@<TRIPOS>MOLECULE
3R540
247   249    1
SMALL
USER_CHARGES


@<TRIPOS>ATOM
      1 CA         -2.7496   -9.3031  -44.2282 C.3       0 UNK        -0.1800 
      2 C          -2.4908   -9.7649  -45.6550 C.2       0 UNK         0.5000 
      3 O          -2.4768   -8.9453  -46.5742 O.2       0 UNK        -0.5000 
      4 N          -2.2772  -11.0723  -45.8442 N.am      1 UNK        -0.5000 
      5 CA         -2.0238  -11.7382  -47.1291 C.3       1 UNK         0.1400 
      6 C6         -2.3526  -13.2539  -47.0527 C.3       23 UNK        -0.0398 
      7 S7         -4.0751  -13.5972  -46.5574 S.3       23 UNK        -0.2404 
      8 C8         -4.8270  -14.1072  -48.1341 C.3       23 UNK        -0.0205 
      9 C9         -4.3984  -15.5055  -48.5588 C.ar      23 UNK        -0.0193 
     10 C10        -3.4666  -15.6779  -49.5846 C.ar      23 UNK        -0.1150 
     11 C11        -3.1139  -16.9590  -50.0140 C.ar      23 UNK        -0.0193 
     12 C12        -3.6916  -18.0753  -49.4015 C.ar      23 UNK        -0.1150 
     13 C13        -4.6311  -17.9229  -48.3713 C.ar      23 UNK        -0.0193 
     14 C14        -4.9725  -16.6302  -47.9590 C.ar      23 UNK        -0.1150 
     15 C15        -5.3459  -19.1019  -47.7016 C.3       23 UNK        -0.0205 
     16 S16        -4.7052  -20.7711  -48.0787 S.3       23 UNK        -0.2404 
     17 C17        -3.1503  -20.7466  -47.1316 C.3       23 UNK        -0.0398 
     18 CA         -2.2869  -22.0068  -47.3742 C.3       11 UNK         0.1400 
     19 N          -0.8556  -21.7230  -47.2491 N.am      11 UNK        -0.5000 
     20 C           0.1281  -22.5732  -47.5727 C.2       10 UNK         0.5000 
     21 O          -0.0643  -23.7006  -48.0236 O.2       10 UNK        -0.5000 
     22 CA          1.5680  -22.1032  -47.3100 C.3       10 UNK         0.1400 
     23 CB          2.0275  -21.1147  -48.3930 C.3       10 UNK        -0.1800 
     24 N           1.7207  -21.5037  -45.9847 N.am      10 UNK        -0.5000 
     25 C           1.5238  -22.1583  -44.8309 C.2       9 UNK         0.5000 
     26 O           1.2482  -23.3567  -44.7609 O.2       9 UNK        -0.5000 
     27 CA          1.5915  -21.3232  -43.5398 C.3       9 UNK         0.1400 
     28 CB          3.0482  -21.0677  -43.1262 C.3       9 UNK        -0.1800 
     29 N           0.8744  -20.0519  -43.6541 N.am      9 UNK        -0.5000 
     30 C          -0.4458  -19.9476  -43.8695 C.2       8 UNK         0.5000 
     31 O          -1.2045  -20.9128  -43.9544 O.2       8 UNK        -0.5000 
     32 CA         -1.0133  -18.5328  -44.0707 C.3       8 UNK         0.1400 
     33 CB         -1.2213  -17.8354  -42.7187 C.3       8 UNK        -0.1800 
     34 N          -0.1772  -17.7040  -44.9395 N.am      8 UNK        -0.5000 
     35 C           0.0823  -17.9801  -46.2262 C.2       7 UNK         0.5000 
     36 O          -0.3716  -18.9572  -46.8175 O.2       7 UNK        -0.5000 
     37 CA          1.0601  -17.0485  -46.9601 C.3       7 UNK         0.1400 
     38 CB          0.3859  -15.7207  -47.3254 C.3       7 UNK        -0.1800 
     39 N           2.2686  -16.7862  -46.1819 N.am      7 UNK        -0.5000 
     40 C           3.1453  -17.7206  -45.7897 C.2       6 UNK         0.5000 
     41 O           3.0580  -18.9134  -46.0806 O.2       6 UNK        -0.5000 
     42 CA          4.2864  -17.2461  -44.8765 C.3       6 UNK         0.1400 
     43 CB          5.4114  -16.5923  -45.6935 C.3       6 UNK        -0.1800 
     44 N           3.8108  -16.3122  -43.8567 N.am      6 UNK        -0.5000 
     45 C           3.0327  -16.6560  -42.8213 C.2       5 UNK         0.5000 
     46 O           2.6466  -17.8050  -42.6047 O.2       5 UNK        -0.5000 
     47 CA          2.5836  -15.5137  -41.8922 C.3       5 UNK         0.1400 
     48 CB          3.6977  -15.1476  -40.9001 C.3       5 UNK        -0.1800 
     49 N           2.1709  -14.3161  -42.6265 N.am      5 UNK        -0.5000 
     50 C           1.0910  -14.2596  -43.4168 C.2       4 UNK         0.5000 
     51 O           0.3353  -15.2091  -43.6131 O.2       4 UNK        -0.5000 
     52 CA          0.8197  -12.9307  -44.1381 C.3       4 UNK         0.1400 
     53 CB          0.0873  -11.9486  -43.2120 C.3       4 UNK        -0.1800 
     54 N           1.9969  -12.2708  -44.7032 N.am      4 UNK        -0.5000 
     55 C           2.8933  -12.8170  -45.5359 C.2       3 UNK         0.5000 
     56 O           2.9739  -14.0236  -45.7707 O.2       3 UNK        -0.5000 
     57 CA          3.7964  -11.8170  -46.2865 C.3       3 UNK         0.1400 
     58 CB          4.9738  -12.5057  -46.9993 C.3       3 UNK        -0.1800 
     59 N           2.9968  -11.0957  -47.2782 N.am      3 UNK        -0.5000 
     60 C           2.1365  -10.1065  -47.0016 C.2       2 UNK         0.5000 
     61 O           2.0624   -9.5615  -45.8982 O.2       2 UNK        -0.5000 
     62 CA          1.1371   -9.7018  -48.1040 C.3       2 UNK         0.1400 
     63 CB          1.5653  -10.1099  -49.5317 C.3       2 UNK        -0.1800 
     64 N          -0.2038  -10.2092  -47.7884 N.am      2 UNK        -0.5000 
     65 C          -0.5762  -11.4878  -47.6205 C.2       1 UNK         0.5000 
     66 O           0.1779  -12.4420  -47.8089 O.2       1 UNK        -0.5000 
     67 C          -2.7292  -23.1934  -46.4950 C.2       11 UNK         0.5000 
     68 O          -3.4801  -24.0471  -46.9674 O.2       11 UNK        -0.5000 
     69 N          -2.2202  -23.2587  -45.2567 N.am      12 UNK        -0.5000 
     70 CA         -2.4323  -24.3716  -44.3322 C.3       12 UNK         0.1400 
     71 CB         -1.8729  -24.0119  -42.9476 C.3       12 UNK        -0.1800 
     72 C          -1.8253  -25.6885  -44.8481 C.2       12 UNK         0.5000 
     73 O          -2.5062  -26.7141  -44.8262 O.2       12 UNK        -0.5000 
     74 N          -0.5807  -25.6313  -45.3452 N.am      13 UNK        -0.5000 
     75 CA          0.1301  -26.7665  -45.9417 C.3       13 UNK         0.1400 
     76 CB          1.5898  -26.3722  -46.2125 C.3       13 UNK        -0.1800 
     77 C          -0.5403  -27.2947  -47.2253 C.2       13 UNK         0.5000 
     78 O          -0.5829  -28.5070  -47.4365 O.2       13 UNK        -0.5000 
     79 N          -1.0819  -26.3784  -48.0376 N.am      14 UNK        -0.5000 
     80 CA         -1.8399  -26.6663  -49.2564 C.3       14 UNK         0.1400 
     81 CB         -1.8193  -25.4173  -50.1493 C.3       14 UNK        -0.1800 
     82 C          -3.2925  -27.1203  -48.9954 C.2       14 UNK         0.5000 
     83 O          -3.9828  -27.4743  -49.9513 O.2       14 UNK        -0.5000 
     84 N          -3.7317  -27.0984  -47.7280 N.am      15 UNK        -0.5000 
     85 CA         -5.0633  -27.4623  -47.2371 C.3       15 UNK         0.1400 
     86 CB         -5.3544  -28.9592  -47.4761 C.3       15 UNK        -0.1800 
     87 C          -6.1697  -26.5269  -47.7673 C.2       15 UNK         0.5000 
     88 O          -7.1970  -26.9944  -48.2624 O.2       15 UNK        -0.5000 
     89 N          -5.9324  -25.2148  -47.6274 N.am      16 UNK        -0.5000 
     90 CA         -6.8261  -24.1028  -47.9629 C.3       16 UNK         0.1400 
     91 CB         -8.1140  -24.1440  -47.1134 C.3       16 UNK        -0.1800 
     92 C          -7.0917  -23.9815  -49.4766 C.2       16 UNK         0.5000 
     93 O          -8.2347  -23.7968  -49.8982 O.2       16 UNK        -0.5000 
     94 N          -6.0163  -24.0727  -50.2711 N.am      17 UNK        -0.5000 
     95 CA         -6.0459  -23.9601  -51.7339 C.3       17 UNK         0.1400 
     96 CB         -4.7773  -24.6079  -52.3096 C.3       17 UNK        -0.1800 
     97 C          -6.2007  -22.5138  -52.2545 C.2       17 UNK         0.5000 
     98 O          -6.3406  -22.3285  -53.4645 O.2       17 UNK        -0.5000 
     99 N          -6.1602  -21.5215  -51.3517 N.am      18 UNK        -0.5000 
    100 CA        -6.2137  -20.0813  -51.6179 C.3       18 UNK         0.1400 
    101 CB        -7.5864  -19.6705  -52.1959 C.3       18 UNK        -0.1800 
    102 C         -5.0020  -19.6299  -52.4567 C.2       18 UNK         0.5000 
    103 O         -3.8847  -20.0425  -52.1454 O.2       18 UNK        -0.5000 
    104 N         -5.2210  -18.8108  -53.4961 N.am      19 UNK        -0.5000 
    105 CA        -4.1938  -18.2119  -54.3599 C.3       19 UNK         0.1400 
    106 CB        -4.8826  -17.4080  -55.4722 C.3       19 UNK        -0.1800 
    107 C         -3.1857  -19.2093  -54.9670 C.2       19 UNK         0.5000 
    108 O         -2.0180  -18.8590  -55.1477 O.2       19 UNK        -0.5000 
    109 N         -3.6392  -20.4450  -55.2184 N.am      20 UNK        -0.5000 
    110 CA        -2.8236  -21.5592  -55.7019 C.3       20 UNK         0.1400 
    111 CB        -3.7493  -22.7265  -56.0756 C.3       20 UNK        -0.1800 
    112 C         -1.7404  -22.0250  -54.7064 C.2       20 UNK         0.5000 
    113 O         -0.7614  -22.6350  -55.1379 O.2       20 UNK        -0.5000 
    114 N         -1.9165  -21.7343  -53.4086 N.am      21 UNK        -0.5000 
    115 CA        -0.9304  -22.0188  -52.3679 C.3       21 UNK         0.1400 
    116 CB        -1.6024  -21.9558  -50.9909 C.3       21 UNK        -0.1800 
    117 C          0.2528  -21.0384  -52.4158 C.2       21 UNK         0.5000 
    118 O          1.3993  -21.4619  -52.2643 O.2       21 UNK        -0.5000 
    119 N         -0.0516  -19.7501  -52.6180 N.am      22 UNK        -0.5000 
    120 CA         0.9451  -18.6732  -52.7108 C.3       22 UNK         0.1400 
    121 C          1.6217  -18.6036  -54.1073 C.2       22 UNK         0.5000 
    122 N          0.9023  -18.8598  -55.1940 N.am      22 UNK        -0.7600 
    123 O          2.8111  -18.3153  -54.2055 O.2       22 UNK        -0.5000 
    124 C124        0.3652  -17.2876  -52.3305 C.3       23 UNK        -0.0398 
    125 S125       -0.4249  -17.2422  -50.6822 S.3       23 UNK        -0.2404 
    126 C126       -2.1647  -17.1281  -51.1887 C.3       23 UNK        -0.0205 
    127 H127       -1.9676   -8.6136  -43.9105 H         1 UNK         0.0600 
    128 H128       -2.7711  -10.1390  -43.5286 H         1 UNK         0.0600 
    129 H129       -3.7072   -8.7859  -44.1689 H         1 UNK         0.0600 
    130 H130       -2.3201  -11.6899  -45.0472 H         1 UNK         0.3000 
    131 H131       -2.6864  -11.2986  -47.8776 H         1 UNK         0.0600 
    132 H132       -1.7081  -13.7457  -46.3247 H         1 UNK         0.0800 
    133 H133       -2.1476  -13.7376  -48.0081 H         1 UNK         0.0800 
    134 H134       -5.9123  -14.0852  -48.0256 H         1 UNK         0.0800 
    135 H135       -4.5869  -13.3746  -48.9063 H         1 UNK         0.0800 
    136 H136       -3.0315  -14.8145  -50.0680 H         1 UNK         0.1150 
    137 H137       -3.4174  -19.0582  -49.7542 H         1 UNK         0.1150 
    138 H138       -5.7042  -16.4947  -47.1746 H         1 UNK         0.1150 
    139 H139       -5.3337  -18.9633  -46.6194 H         1 UNK         0.0800 
    140 H140       -6.3944  -19.0728  -48.0006 H         1 UNK         0.0800 
    141 H141       -3.3564  -20.5922  -46.0707 H         1 UNK         0.0800 
    142 H142       -2.6117  -19.8603  -47.4624 H         1 UNK         0.0800 
    143 H143       -2.4383  -22.3211  -48.4067 H         1 UNK         0.0600 
    144 H144       -0.6067  -20.7904  -46.9252 H         1 UNK         0.3000 
    145 H145        2.2171  -22.9801  -47.3549 H         1 UNK         0.0600 
    146 H146        1.9365  -21.5548  -49.3869 H         1 UNK         0.0600 
    147 H147        1.4356  -20.1992  -48.3861 H         1 UNK         0.0600 
    148 H148        3.0722  -20.8364  -48.2543 H         1 UNK         0.0600 
    149 H149        1.9811  -20.5215  -45.9569 H         1 UNK         0.3000 
    150 H150        1.1130  -21.9026  -42.7476 H         1 UNK         0.0600 
    151 H151        3.5970  -22.0052  -43.0291 H         1 UNK         0.0600 
    152 H152        3.1001  -20.5596  -42.1632 H         1 UNK         0.0600 
    153 H153        3.5741  -20.4527  -43.8568 H         1 UNK         0.0600 
    154 H154        1.4286  -19.2070  -43.5658 H         1 UNK         0.3000 
    155 H155       -1.9883  -18.6344  -44.5519 H         1 UNK         0.0600 
    156 H156       -0.2734  -17.6487  -42.2123 H         1 UNK         0.0600 
    157 H157       -1.7284  -16.8787  -42.8441 H         1 UNK         0.0600 
    158 H158       -1.8363  -18.4437  -42.0543 H         1 UNK         0.0600 
    159 H159        0.2070  -16.8594  -44.5233 H         1 UNK         0.3000 
    160 H160        1.3580  -17.5443  -47.8863 H         1 UNK         0.0600 
    161 H161        0.1624  -15.1320  -46.4372 H         1 UNK         0.0600 
    162 H162       -0.5507  -15.8859  -47.8597 H         1 UNK         0.0600 
    163 H163        1.0274  -15.1188  -47.9693 H         1 UNK         0.0600 
    164 H164        2.4438  -15.8182  -45.9220 H         1 UNK         0.3000 
    165 H165        4.6989  -18.1225  -44.3722 H         1 UNK         0.0600 
    166 H166        6.2439  -16.2988  -45.0539 H         1 UNK         0.0600 
    167 H167        5.8027  -17.2855  -46.4391 H         1 UNK         0.0600 
    168 H168        5.0656  -15.7039  -46.2228 H         1 UNK         0.0600 
    169 H169        4.0098  -15.3340  -44.0101 H         1 UNK         0.3000 
    170 H170        1.7247  -15.8717  -41.3204 H         1 UNK         0.0600 
    171 H171        4.0142  -16.0219  -40.3296 H         1 UNK         0.0600 
    172 H172        4.5776  -14.7507  -41.4079 H         1 UNK         0.0600 
    173 H173        3.3572  -14.3996  -40.1839 H         1 UNK         0.0600 
    174 H174        2.7476  -13.4928  -42.5336 H         1 UNK         0.3000 
    175 H175        0.1600  -13.1528  -44.9772 H         1 UNK         0.0600 
    176 H176        0.7022  -11.6709  -42.3551 H         1 UNK         0.0600 
    177 H177       -0.1798  -11.0329  -43.7392 H         1 UNK         0.0600 
    178 H178       -0.8351  -12.3857  -42.8274 H         1 UNK         0.0600 
    179 H179        2.0062  -11.2596  -44.6360 H         1 UNK         0.3000 
    180 H180        4.2046  -11.1114  -45.5600 H         1 UNK         0.0600 
    181 H181        4.6321  -13.2143  -47.7550 H         1 UNK         0.0600 
    182 H182        5.5914  -13.0559  -46.2883 H         1 UNK         0.0600 
    183 H183        5.6167  -11.7759  -47.4916 H         1 UNK         0.0600 
    184 H184        2.9317  -11.5278  -48.1885 H         1 UNK         0.3000 
    185 H185        1.0736   -8.6130  -48.0775 H         1 UNK         0.0600 
    186 H186        2.5506   -9.7094  -49.7732 H         1 UNK         0.0600 
    187 H187        1.6050  -11.1909  -49.6672 H         1 UNK         0.0600 
    188 H188        0.8690   -9.7142  -50.2711 H         1 UNK         0.0600 
    189 H189       -0.8942   -9.5044  -47.5440 H         1 UNK         0.3000 
    190 H190       -1.6473  -22.4900  -44.9173 H         1 UNK         0.3000 
    191 H191       -3.5096  -24.5198  -44.2325 H         1 UNK         0.0600 
    192 H192       -0.8024  -23.8090  -42.9841 H         1 UNK         0.0600 
    193 H193       -2.0301  -24.8257  -42.2387 H         1 UNK         0.0600 
    194 H194       -2.3655  -23.1278  -42.5426 H         1 UNK         0.0600 
    195 H195       -0.0748  -24.7513  -45.3036 H         1 UNK         0.3000 
    196 H196        0.1287  -27.5785  -45.2118 H         1 UNK         0.0600 
    197 H197        2.1488  -27.2076  -46.6358 H         1 UNK         0.0600 
    198 H198        2.0944  -26.0753  -45.2930 H         1 UNK         0.0600 
    199 H199        1.6588  -25.5407  -46.9143 H         1 UNK         0.0600 
    200 H200       -0.9278  -25.3953  -47.8274 H         1 UNK         0.3000 
    201 H201       -1.3380  -27.4742  -49.7925 H         1 UNK         0.0600 
    202 H202       -0.7998  -25.0824  -50.3407 H         1 UNK         0.0600 
    203 H203       -2.3638  -24.5932  -49.6880 H         1 UNK         0.0600 
    204 H204       -2.2757  -25.6217  -51.1175 H         1 UNK         0.0600 
    205 H205       -3.0891  -26.7690  -47.0187 H         1 UNK         0.3000 
    206 H206       -5.0344  -27.3096  -46.1573 H         1 UNK         0.0600 
    207 H207       -6.2852  -29.2560  -46.9915 H         1 UNK         0.0600 
    208 H208       -5.4513  -29.1932  -48.5365 H         1 UNK         0.0600 
    209 H209       -4.5617  -29.5844  -47.0653 H         1 UNK         0.0600 
    210 H210       -5.0205  -24.9307  -47.2700 H         1 UNK         0.3000 
    211 H211       -6.2895  -23.1983  -47.6782 H         1 UNK         0.0600 
    212 H212       -8.7458  -24.9947  -47.3698 H         1 UNK         0.0600 
    213 H213       -8.7074  -23.2413  -47.2633 H         1 UNK         0.0600 
    214 H214       -7.8825  -24.2055  -46.0501 H         1 UNK         0.0600 
    215 H215       -5.1172  -24.2447  -49.8457 H         1 UNK         0.3000 
    216 H216       -6.9046  -24.5256  -52.1016 H         1 UNK         0.0600 
    217 H217       -3.8821  -24.0486  -52.0419 H         1 UNK         0.0600 
    218 H218       -4.8202  -24.6507  -53.3982 H         1 UNK         0.0600 
    219 H219       -4.6595  -25.6314  -51.9541 H         1 UNK         0.0600 
    220 H220       -5.9870  -21.7764  -50.3907 H         1 UNK         0.3000 
    221 H221       -6.1067  -19.5888  -50.6511 H         1 UNK         0.0600 
    222 H222       -7.7498  -20.0686  -53.1979 H         1 UNK         0.0600 
    223 H223       -8.3967  -20.0321  -51.5627 H         1 UNK         0.0600 
    224 H224       -7.6847  -18.5855  -52.2469 H         1 UNK         0.0600 
    225 H225       -6.1744  -18.5430  -53.6923 H         1 UNK         0.3000 
    226 H226       -3.6240  -17.5125  -53.7472 H         1 UNK         0.0600 
    227 H227       -5.5107  -16.6187  -55.0587 H         1 UNK         0.0600 
    228 H228       -4.1483  -16.9292  -56.1215 H         1 UNK         0.0600 
    229 H229       -5.5095  -18.0442  -56.0983 H         1 UNK         0.0600 
    230 H230       -4.6029  -20.6542  -54.9982 H         1 UNK         0.3000 
    231 H231       -2.3102  -21.2276  -56.6067 H         1 UNK         0.0600 
    232 H232       -3.1792  -23.5695  -56.4683 H         1 UNK         0.0600 
    233 H233       -4.4651  -22.4331  -56.8437 H         1 UNK         0.0600 
    234 H234       -4.3111  -23.0835  -55.2125 H         1 UNK         0.0600 
    235 H235       -2.7359  -21.2068  -53.1188 H         1 UNK         0.3000 
    236 H236       -0.5509  -23.0323  -52.5154 H         1 UNK         0.0600 
    237 H237       -2.5188  -22.5418  -50.9594 H         1 UNK         0.0600 
    238 H238       -0.9286  -22.3538  -50.2351 H         1 UNK         0.0600 
    239 H239       -1.8528  -20.9351  -50.6989 H         1 UNK         0.0600 
    240 H240       -1.0164  -19.4935  -52.7605 H         1 UNK         0.3000 
    241 H241        1.7358  -18.8906  -51.9894 H         1 UNK         0.0600 
    242 H242       -0.0994  -19.0191  -55.1319 H         1 UNK         0.3800 
    243 H243        1.3427  -18.8188  -56.0990 H         1 UNK         0.3800 
    244 H244        1.1616  -16.5414  -52.3261 H         1 UNK         0.0800 
    245 H245       -0.3461  -16.9556  -53.0890 H         1 UNK         0.0800 
    246 H246       -2.4188  -18.0264  -51.7467 H         1 UNK         0.0800 
    247 H247       -2.2884  -16.2916  -51.8783 H         1 UNK         0.0800 
@<TRIPOS>BOND
     1    1    2 1    
     2    1  127 1    
     3    1  128 1    
     4    1  129 1    
     5    2    3 2    
     6    2    4 am   BACKBONE|DICT|INTERRES
     7    4    5 1    
     8    4  130 1    
     9    5    6 1    
    10    5   65 1    
    11    5  131 1    
    12    6    7 1    
    13    6  132 1    
    14    6  133 1    
    15    7    8 1    
    16    8    9 1    
    17    8  134 1    
    18    8  135 1    
    19    9   10 ar   
    20    9   14 ar   
    21   10   11 ar   
    22   10  136 1    
    23   11   12 ar   
    24   11  126 1    
    25   12   13 ar   
    26   12  137 1    
    27   13   14 ar   
    28   13   15 1    
    29   14  138 1    
    30   15   16 1    
    31   15  139 1    
    32   15  140 1    
    33   16   17 1    
    34   17   18 1    
    35   17  141 1    
    36   17  142 1    
    37   18   19 1    
    38   18   67 1    
    39   18  143 1    
    40   19   20 am   BACKBONE|DICT|INTERRES
    41   19  144 1    
    42   20   21 2    
    43   20   22 1    
    44   22   23 1    
    45   22   24 1    
    46   22  145 1    
    47   23  146 1    
    48   23  147 1    
    49   23  148 1    
    50   24   25 am   BACKBONE|DICT|INTERRES
    51   24  149 1    
    52   25   26 2    
    53   25   27 1    
    54   27   28 1    
    55   27   29 1    
    56   27  150 1    
    57   28  151 1    
    58   28  152 1    
    59   28  153 1    
    60   29   30 am   BACKBONE|DICT|INTERRES
    61   29  154 1    
    62   30   31 2    
    63   30   32 1    
    64   32   33 1    
    65   32   34 1    
    66   32  155 1    
    67   33  156 1    
    68   33  157 1    
    69   33  158 1    
    70   34   35 am   BACKBONE|DICT|INTERRES
    71   34  159 1    
    72   35   36 2    
    73   35   37 1    
    74   37   38 1    
    75   37   39 1    
    76   37  160 1    
    77   38  161 1    
    78   38  162 1    
    79   38  163 1    
    80   39   40 am   BACKBONE|DICT|INTERRES
    81   39  164 1    
    82   40   41 2    
    83   40   42 1    
    84   42   43 1    
    85   42   44 1    
    86   42  165 1    
    87   43  166 1    
    88   43  167 1    
    89   43  168 1    
    90   44   45 am   BACKBONE|DICT|INTERRES
    91   44  169 1    
    92   45   46 2    
    93   45   47 1    
    94   47   48 1    
    95   47   49 1    
    96   47  170 1    
    97   48  171 1    
    98   48  172 1    
    99   48  173 1    
   100   49   50 am   BACKBONE|DICT|INTERRES
   101   49  174 1    
   102   50   51 2    
   103   50   52 1    
   104   52   53 1    
   105   52   54 1    
   106   52  175 1    
   107   53  176 1    
   108   53  177 1    
   109   53  178 1    
   110   54   55 am   BACKBONE|DICT|INTERRES
   111   54  179 1    
   112   55   56 2    
   113   55   57 1    
   114   57   58 1    
   115   57   59 1    
   116   57  180 1    
   117   58  181 1    
   118   58  182 1    
   119   58  183 1    
   120   59   60 am   BACKBONE|DICT|INTERRES
   121   59  184 1    
   122   60   61 2    
   123   60   62 1    
   124   62   63 1    
   125   62   64 1    
   126   62  185 1    
   127   63  186 1    
   128   63  187 1    
   129   63  188 1    
   130   64   65 am   BACKBONE|DICT|INTERRES
   131   64  189 1    
   132   65   66 2    
   133   67   68 2    
   134   67   69 am   BACKBONE|DICT|INTERRES
   135   69   70 1    
   136   69  190 1    
   137   70   71 1    
   138   70   72 1    
   139   70  191 1    
   140   71  192 1    
   141   71  193 1    
   142   71  194 1    
   143   72   73 2    
   144   72   74 am   BACKBONE|DICT|INTERRES
   145   74   75 1    
   146   74  195 1    
   147   75   76 1    
   148   75   77 1    
   149   75  196 1    
   150   76  197 1    
   151   76  198 1    
   152   76  199 1    
   153   77   78 2    
   154   77   79 am   BACKBONE|DICT|INTERRES
   155   79   80 1    
   156   79  200 1    
   157   80   81 1    
   158   80   82 1    
   159   80  201 1    
   160   81  202 1    
   161   81  203 1    
   162   81  204 1    
   163   82   83 2    
   164   82   84 am   BACKBONE|DICT|INTERRES
   165   84   85 1    
   166   84  205 1    
   167   85   86 1    
   168   85   87 1    
   169   85  206 1    
   170   86  207 1    
   171   86  208 1    
   172   86  209 1    
   173   87   88 2    
   174   87   89 am   BACKBONE|DICT|INTERRES
   175   89   90 1    
   176   89  210 1    
   177   90   91 1    
   178   90   92 1    
   179   90  211 1    
   180   91  212 1    
   181   91  213 1    
   182   91  214 1    
   183   92   93 2    
   184   92   94 am   BACKBONE|DICT|INTERRES
   185   94   95 1    
   186   94  215 1    
   187   95   96 1    
   188   95   97 1    
   189   95  216 1    
   190   96  217 1    
   191   96  218 1    
   192   96  219 1    
   193   97   98 2    
   194   97   99 am   BACKBONE|DICT|INTERRES
   195   99  100 1    
   196   99  220 1    
   197  100  101 1    
   198  100  102 1    
   199  100  221 1    
   200  101  222 1    
   201  101  223 1    
   202  101  224 1    
   203  102  103 2    
   204  102  104 am   BACKBONE|DICT|INTERRES
   205  104  105 1    
   206  104  225 1    
   207  105  106 1    
   208  105  107 1    
   209  105  226 1    
   210  106  227 1    
   211  106  228 1    
   212  106  229 1    
   213  107  108 2    
   214  107  109 am   BACKBONE|DICT|INTERRES
   215  109  110 1    
   216  109  230 1    
   217  110  111 1    
   218  110  112 1    
   219  110  231 1    
   220  111  232 1    
   221  111  233 1    
   222  111  234 1    
   223  112  113 2    
   224  112  114 am   BACKBONE|DICT|INTERRES
   225  114  115 1    
   226  114  235 1    
   227  115  116 1    
   228  115  117 1    
   229  115  236 1    
   230  116  237 1    
   231  116  238 1    
   232  116  239 1    
   233  117  118 2    
   234  117  119 am   BACKBONE|DICT|INTERRES
   235  119  120 1    
   236  119  240 1    
   237  120  121 1    
   238  120  124 1    
   239  120  241 1    
   240  121  122 am   BACKBONE|DICT|INTERRES
   241  121  123 2    
   242  122  242 1    
   243  122  243 1    
   244  124  125 1    
   245  124  244 1    
   246  124  245 1    
   247  125  126 1    
   248  126  246 1    
   249  126  247 1    
@<TRIPOS>SUBSTRUCTURE
     1 UNK         1 GROUP             0       ****    0 ROOT    
