@<TRIPOS>MOLECULE
3R540
247   249    1
SMALL
USER_CHARGES


@<TRIPOS>ATOM
      1 CA          6.9109  -12.0823  -47.1772 C.3       0 UNK        -0.1800 
      2 C           6.0590  -12.2751  -48.4239 C.2       0 UNK         0.5000 
      3 O           5.9009  -11.3362  -49.2029 O.2       0 UNK        -0.5000 
      4 N           5.5198  -13.4892  -48.6061 N.am      1 UNK        -0.5000 
      5 CA          4.6511  -13.9100  -49.7137 C.3       1 UNK         0.1400 
      6 C6          5.4322  -13.9662  -51.0575 C.3       23 UNK        -0.0398 
      7 S7          4.5778  -14.7932  -52.4460 S.3       23 UNK        -0.2404 
      8 C8          4.5255  -16.5423  -51.9300 C.3       23 UNK        -0.0205 
      9 C9          3.2922  -16.8630  -51.0943 C.ar      23 UNK        -0.0193 
     10 C10         2.0148  -16.6046  -51.6005 C.ar      23 UNK        -0.1150 
     11 C11         0.8742  -16.8925  -50.8468 C.ar      23 UNK        -0.0193 
     12 C12         1.0181  -17.4431  -49.5706 C.ar      23 UNK        -0.1150 
     13 C13         2.2893  -17.7077  -49.0508 C.ar      23 UNK        -0.0193 
     14 C14         3.4215  -17.4250  -49.8205 C.ar      23 UNK        -0.1150 
     15 C15         2.4441  -18.2635  -47.6441 C.3       23 UNK        -0.0205 
     16 S16         2.5437  -20.0812  -47.6206 S.3       23 UNK        -0.2404 
     17 C17         0.8300  -20.5651  -48.0180 C.3       23 UNK        -0.0398 
     18 CA          0.3889  -21.8356  -47.2520 C.3       11 UNK         0.1400 
     19 N           0.2157  -21.6080  -45.8116 N.am      11 UNK        -0.5000 
     20 C          -0.0215  -22.5740  -44.9115 C.2       10 UNK         0.5000 
     21 O          -0.0712  -23.7705  -45.1922 O.2       10 UNK        -0.5000 
     22 CA         -0.3129  -22.1351  -43.4653 C.3       10 UNK         0.1400 
     23 CB          0.9808  -21.7821  -42.7164 C.3       10 UNK        -0.1800 
     24 N          -1.2585  -21.0202  -43.4010 N.am      10 UNK        -0.5000 
     25 C          -2.5371  -21.0970  -43.7982 C.2       9 UNK         0.5000 
     26 O          -3.0605  -22.1327  -44.2091 O.2       9 UNK        -0.5000 
     27 CA         -3.3623  -19.7969  -43.7709 C.3       9 UNK         0.1400 
     28 CB         -3.9169  -19.5327  -42.3635 C.3       9 UNK        -0.1800 
     29 N          -2.6080  -18.6308  -44.2305 N.am      9 UNK        -0.5000 
     30 C          -2.1028  -18.4831  -45.4639 C.2       8 UNK         0.5000 
     31 O          -2.2561  -19.2982  -46.3728 O.2       8 UNK        -0.5000 
     32 CA         -1.2161  -17.2476  -45.7019 C.3       8 UNK         0.1400 
     33 CB         -2.0700  -15.9881  -45.9093 C.3       8 UNK        -0.1800 
     34 N          -0.2577  -17.0306  -44.6158 N.am      8 UNK        -0.5000 
     35 C           0.6712  -17.9193  -44.2317 C.2       7 UNK         0.5000 
     36 O           0.8537  -18.9999  -44.7882 O.2       7 UNK        -0.5000 
     37 CA          1.4953  -17.5689  -42.9836 C.3       7 UNK         0.1400 
     38 CB          2.6359  -16.5984  -43.3278 C.3       7 UNK        -0.1800 
     39 N           0.6499  -17.0082  -41.9299 N.am      7 UNK        -0.5000 
     40 C          -0.2523  -17.7195  -41.2370 C.2       6 UNK         0.5000 
     41 O          -0.4194  -18.9308  -41.3770 O.2       6 UNK        -0.5000 
     42 CA         -1.1446  -16.9395  -40.2537 C.3       6 UNK         0.1400 
     43 CB         -0.4362  -16.7650  -38.9022 C.3       6 UNK        -0.1800 
     44 N          -1.5330  -15.6262  -40.7697 N.am      6 UNK        -0.5000 
     45 C          -2.3317  -15.4311  -41.8293 C.2       5 UNK         0.5000 
     46 O          -2.8773  -16.3433  -42.4486 O.2       5 UNK        -0.5000 
     47 CA         -2.4993  -13.9758  -42.3104 C.3       5 UNK         0.1400 
     48 CB         -3.6721  -13.2990  -41.5862 C.3       5 UNK        -0.1800 
     49 N          -1.2851  -13.1724  -42.1308 N.am      5 UNK        -0.5000 
     50 C          -0.1163  -13.4302  -42.7309 C.2       4 UNK         0.5000 
     51 O           0.0455  -14.3455  -43.5445 O.2       4 UNK        -0.5000 
     52 CA          1.0823  -12.5749  -42.2984 C.3       4 UNK         0.1400 
     53 CB          1.4888  -12.9139  -40.8491 C.3       4 UNK        -0.1800 
     54 N           2.1868  -12.8547  -43.2076 N.am      4 UNK        -0.5000 
     55 C           3.3318  -12.1734  -43.3142 C.2       3 UNK         0.5000 
     56 O           3.5981  -11.1715  -42.6495 O.2       3 UNK        -0.5000 
     57 CA          4.3619  -12.7034  -44.3318 C.3       3 UNK         0.1400 
     58 CB          5.4117  -13.5731  -43.6227 C.3       3 UNK        -0.1800 
     59 N           3.7709  -13.4772  -45.4291 N.am      3 UNK        -0.5000 
     60 C           3.0421  -12.9430  -46.4171 C.2       2 UNK         0.5000 
     61 O           2.7594  -11.7449  -46.4882 O.2       2 UNK        -0.5000 
     62 CA          2.5473  -13.9139  -47.5031 C.3       2 UNK         0.1400 
     63 CB          1.1720  -14.4759  -47.1140 C.3       2 UNK        -0.1800 
     64 N           2.4257  -13.2045  -48.7784 N.am      2 UNK        -0.5000 
     65 C           3.3274  -13.0950  -49.7682 C.2       1 UNK         0.5000 
     66 O           3.1182  -12.3372  -50.7154 O.2       1 UNK        -0.5000 
     67 C          -0.8756  -22.4454  -47.8905 C.2       11 UNK         0.5000 
     68 O          -0.7594  -23.4092  -48.6487 O.2       11 UNK        -0.5000 
     69 N          -2.0553  -21.9105  -47.5398 N.am      12 UNK        -0.5000 
     70 CA         -3.3629  -22.4190  -47.9562 C.3       12 UNK         0.1400 
     71 CB         -4.4764  -21.5030  -47.4299 C.3       12 UNK        -0.1800 
     72 C          -3.6045  -23.8770  -47.5349 C.2       12 UNK         0.5000 
     73 O          -4.0384  -24.6771  -48.3617 O.2       12 UNK        -0.5000 
     74 N          -3.2855  -24.2023  -46.2756 N.am      13 UNK        -0.5000 
     75 CA         -3.3773  -25.5537  -45.7264 C.3       13 UNK         0.1400 
     76 CB         -3.1903  -25.4993  -44.2024 C.3       13 UNK        -0.1800 
     77 C          -2.3740  -26.5320  -46.3654 C.2       13 UNK         0.5000 
     78 O          -2.7481  -27.6643  -46.6722 O.2       13 UNK        -0.5000 
     79 N          -1.1248  -26.0832  -46.5508 N.am      14 UNK        -0.5000 
     80 CA         -0.0280  -26.8829  -47.0947 C.3       14 UNK         0.1400 
     81 CB          1.3072  -26.1607  -46.8556 C.3       14 UNK        -0.1800 
     82 C          -0.2014  -27.2182  -48.5851 C.2       14 UNK         0.5000 
     83 O          -0.0480  -28.3801  -48.9649 O.2       14 UNK        -0.5000 
     84 N          -0.5031  -26.2017  -49.4040 N.am      15 UNK        -0.5000 
     85 CA         -0.6330  -26.3450  -50.8556 C.3       15 UNK         0.1400 
     86 CB         -0.3120  -25.0010  -51.5240 C.3       15 UNK        -0.1800 
     87 C          -2.0215  -26.8416  -51.2946 C.2       15 UNK         0.5000 
     88 O          -2.1521  -27.3238  -52.4205 O.2       15 UNK        -0.5000 
     89 N          -3.0329  -26.6863  -50.4269 N.am      16 UNK        -0.5000 
     90 CA         -4.4581  -26.9998  -50.5989 C.3       16 UNK         0.1400 
     91 CB         -4.6865  -28.4917  -50.9083 C.3       16 UNK        -0.1800 
     92 C          -5.1686  -26.0912  -51.6204 C.2       16 UNK         0.5000 
     93 O          -6.1871  -25.4840  -51.2910 O.2       16 UNK        -0.5000 
     94 N          -4.6101  -25.9858  -52.8324 N.am      17 UNK        -0.5000 
     95 CA         -5.1099  -25.1558  -53.9299 C.3       17 UNK         0.1400 
     96 CB         -4.3378  -25.5017  -55.2113 C.3       17 UNK        -0.1800 
     97 C          -5.0197  -23.6468  -53.6374 C.2       17 UNK         0.5000 
     98 O          -5.8681  -22.8852  -54.1014 O.2       17 UNK        -0.5000 
     99 N          -4.0207  -23.2421  -52.8385 N.am      18 UNK        -0.5000 
    100 CA        -3.7857  -21.8533  -52.4347 C.3       18 UNK         0.1400 
    101 CB        -2.3811  -21.7200  -51.8271 C.3       18 UNK        -0.1800 
    102 C         -4.8639  -21.2741  -51.4950 C.2       18 UNK         0.5000 
    103 O         -4.8884  -20.0609  -51.2904 O.2       18 UNK        -0.5000 
    104 N         -5.7670  -22.1196  -50.9763 N.am      19 UNK        -0.5000 
    105 CA        -6.9694  -21.6976  -50.2545 C.3       19 UNK         0.1400 
    106 CB        -7.6581  -22.9302  -49.6524 C.3       19 UNK        -0.1800 
    107 C         -7.9510  -20.8944  -51.1328 C.2       19 UNK         0.5000 
    108 O         -8.6879  -20.0602  -50.6054 O.2       19 UNK        -0.5000 
    109 N         -7.9115  -21.1068  -52.4567 N.am      20 UNK        -0.5000 
    110 CA        -8.6440  -20.3297  -53.4555 C.3       20 UNK         0.1400 
    111 CB        -8.8821  -21.2103  -54.6952 C.3       20 UNK        -0.1800 
    112 C         -7.8970  -19.0199  -53.7872 C.2       20 UNK         0.5000 
    113 O         -7.4779  -18.8174  -54.9285 O.2       20 UNK        -0.5000 
    114 N         -7.7164  -18.1676  -52.7668 N.am      21 UNK        -0.5000 
    115 CA        -7.1049  -16.8312  -52.8108 C.3       21 UNK         0.1400 
    116 CB        -8.0665  -15.8387  -53.4964 C.3       21 UNK        -0.1800 
    117 C         -5.6874  -16.8097  -53.4275 C.2       21 UNK         0.5000 
    118 O         -5.3578  -15.9059  -54.1978 O.2       21 UNK        -0.5000 
    119 N         -4.8807  -17.8229  -53.0892 N.am      22 UNK        -0.5000 
    120 CA        -3.5411  -18.0900  -53.6366 C.3       22 UNK         0.1400 
    121 C         -3.5197  -18.5748  -55.1213 C.2       22 UNK         0.5000 
    122 N         -4.6487  -18.9025  -55.7395 N.am      22 UNK        -0.7600 
    123 O         -2.4564  -18.6919  -55.7233 O.2       22 UNK        -0.5000 
    124 C124       -2.5247  -16.9480  -53.3427 C.3       23 UNK        -0.0398 
    125 S125       -0.8800  -17.5900  -52.8740 S.3       23 UNK        -0.2404 
    126 C126       -0.5066  -16.5811  -51.4056 C.3       23 UNK        -0.0205 
    127 H127        7.9359  -11.8395  -47.4571 H         1 UNK         0.0600 
    128 H128        6.9310  -12.9775  -46.5556 H         1 UNK         0.0600 
    129 H129        6.5172  -11.2614  -46.5780 H         1 UNK         0.0600 
    130 H130        5.7299  -14.2102  -47.9309 H         1 UNK         0.3000 
    131 H131        4.3732  -14.9334  -49.4795 H         1 UNK         0.0600 
    132 H132        5.6953  -12.9588  -51.3834 H         1 UNK         0.0800 
    133 H133        6.3820  -14.4810  -50.9071 H         1 UNK         0.0800 
    134 H134        5.4438  -16.7975  -51.3989 H         1 UNK         0.0800 
    135 H135        4.5052  -17.1673  -52.8237 H         1 UNK         0.0800 
    136 H136        1.9067  -16.1738  -52.5862 H         1 UNK         0.1150 
    137 H137        0.1401  -17.6541  -48.9776 H         1 UNK         0.1150 
    138 H138        4.4042  -17.6321  -49.4201 H         1 UNK         0.1150 
    139 H139        3.3487  -17.8601  -47.1871 H         1 UNK         0.0800 
    140 H140        1.6201  -17.9256  -47.0194 H         1 UNK         0.0800 
    141 H141        0.7848  -20.7213  -49.0977 H         1 UNK         0.0800 
    142 H142        0.1495  -19.7420  -47.7967 H         1 UNK         0.0800 
    143 H143        1.1786  -22.5818  -47.3632 H         1 UNK         0.0600 
    144 H144        0.2933  -20.6463  -45.4881 H         1 UNK         0.3000 
    145 H145       -0.7711  -22.9829  -42.9515 H         1 UNK         0.0600 
    146 H146        1.5046  -20.9457  -43.1772 H         1 UNK         0.0600 
    147 H147        0.7759  -21.5179  -41.6789 H         1 UNK         0.0600 
    148 H148        1.6664  -22.6302  -42.7071 H         1 UNK         0.0600 
    149 H149       -0.9075  -20.1425  -43.0355 H         1 UNK         0.3000 
    150 H150       -4.2098  -19.9271  -44.4461 H         1 UNK         0.0600 
    151 H151       -4.5041  -20.3809  -42.0095 H         1 UNK         0.0600 
    152 H152       -4.5689  -18.6591  -42.3548 H         1 UNK         0.0600 
    153 H153       -3.1189  -19.3608  -41.6410 H         1 UNK         0.0600 
    154 H154       -2.4767  -17.8816  -43.5568 H         1 UNK         0.3000 
    155 H155       -0.6457  -17.4192  -46.6156 H         1 UNK         0.0600 
    156 H156       -2.7095  -16.0947  -46.7862 H         1 UNK         0.0600 
    157 H157       -2.7182  -15.7929  -45.0560 H         1 UNK         0.0600 
    158 H158       -1.4498  -15.1059  -46.0635 H         1 UNK         0.0600 
    159 H159       -0.3144  -16.1429  -44.1251 H         1 UNK         0.3000 
    160 H160        1.9425  -18.4908  -42.6057 H         1 UNK         0.0600 
    161 H161        3.2106  -16.3326  -42.4405 H         1 UNK         0.0600 
    162 H162        3.3267  -17.0535  -44.0387 H         1 UNK         0.0600 
    163 H163        2.2679  -15.6788  -43.7785 H         1 UNK         0.0600 
    164 H164        0.6893  -16.0097  -41.7960 H         1 UNK         0.3000 
    165 H165       -2.0529  -17.5239  -40.0918 H         1 UNK         0.0600 
    166 H166       -1.0880  -16.2800  -38.1753 H         1 UNK         0.0600 
    167 H167       -0.1486  -17.7312  -38.4854 H         1 UNK         0.0600 
    168 H168        0.4697  -16.1644  -38.9948 H         1 UNK         0.0600 
    169 H169       -1.1354  -14.8197  -40.3122 H         1 UNK         0.3000 
    170 H170       -2.7275  -14.0037  -43.3776 H         1 UNK         0.0600 
    171 H171       -4.5937  -13.8669  -41.7215 H         1 UNK         0.0600 
    172 H172       -3.4914  -13.2167  -40.5137 H         1 UNK         0.0600 
    173 H173       -3.8502  -12.2964  -41.9753 H         1 UNK         0.0600 
    174 H174       -1.3447  -12.4054  -41.4764 H         1 UNK         0.3000 
    175 H175        0.8078  -11.5213  -42.3781 H         1 UNK         0.0600 
    176 H176        1.7825  -13.9597  -40.7489 H         1 UNK         0.0600 
    177 H177        2.3262  -12.3019  -40.5147 H         1 UNK         0.0600 
    178 H178        0.6697  -12.7332  -40.1523 H         1 UNK         0.0600 
    179 H179        2.0101  -13.6339  -43.8279 H         1 UNK         0.3000 
    180 H180        4.8711  -11.8371  -44.7591 H         1 UNK         0.0600 
    181 H181        4.9644  -14.4633  -43.1791 H         1 UNK         0.0600 
    182 H182        5.9008  -13.0185  -42.8207 H         1 UNK         0.0600 
    183 H183        6.1911  -13.8966  -44.3125 H         1 UNK         0.0600 
    184 H184        3.9571  -14.4692  -45.4259 H         1 UNK         0.3000 
    185 H185        3.2380  -14.7529  -47.5842 H         1 UNK         0.0600 
    186 H186        0.7793  -15.1348  -47.8877 H         1 UNK         0.0600 
    187 H187        1.2325  -15.0571  -46.1933 H         1 UNK         0.0600 
    188 H188        0.4421  -13.6816  -46.9517 H         1 UNK         0.0600 
    189 H189        1.6093  -12.6150  -48.8397 H         1 UNK         0.3000 
    190 H190       -2.0636  -21.0863  -46.9436 H         1 UNK         0.3000 
    191 H191       -3.4020  -22.3907  -49.0436 H         1 UNK         0.0600 
    192 H192       -4.4188  -21.3761  -46.3506 H         1 UNK         0.0600 
    193 H193       -5.4603  -21.9153  -47.6512 H         1 UNK         0.0600 
    194 H194       -4.4217  -20.5150  -47.8877 H         1 UNK         0.0600 
    195 H195       -2.9749  -23.4714  -45.6418 H         1 UNK         0.3000 
    196 H196       -4.3822  -25.9298  -45.9297 H         1 UNK         0.0600 
    197 H197       -3.2674  -26.4944  -43.7625 H         1 UNK         0.0600 
    198 H198       -3.9529  -24.8763  -43.7347 H         1 UNK         0.0600 
    199 H199       -2.2156  -25.0929  -43.9303 H         1 UNK         0.0600 
    200 H200       -0.8848  -25.1504  -46.2244 H         1 UNK         0.3000 
    201 H201        0.0012  -27.8265  -46.5456 H         1 UNK         0.0600 
    202 H202        1.4923  -26.0194  -45.7907 H         1 UNK         0.0600 
    203 H203        1.3251  -25.1791  -47.3306 H         1 UNK         0.0600 
    204 H204        2.1423  -26.7365  -47.2565 H         1 UNK         0.0600 
    205 H205       -0.6088  -25.2629  -49.0244 H         1 UNK         0.3000 
    206 H206        0.1001  -27.0732  -51.2093 H         1 UNK         0.0600 
    207 H207        0.6878  -24.6565  -51.2593 H         1 UNK         0.0600 
    208 H208       -0.3529  -25.0810  -52.6110 H         1 UNK         0.0600 
    209 H209       -1.0201  -24.2317  -51.2238 H         1 UNK         0.0600 
    210 H210       -2.8199  -26.2254  -49.5511 H         1 UNK         0.3000 
    211 H211       -4.9218  -26.8043  -49.6312 H         1 UNK         0.0600 
    212 H212       -4.2850  -28.7796  -51.8800 H         1 UNK         0.0600 
    213 H213       -5.7517  -28.7252  -50.9170 H         1 UNK         0.0600 
    214 H214       -4.2213  -29.1245  -50.1524 H         1 UNK         0.0600 
    215 H215       -3.7559  -26.5125  -52.9971 H         1 UNK         0.3000 
    216 H216       -6.1629  -25.3995  -54.0857 H         1 UNK         0.0600 
    217 H217       -4.6973  -24.9123  -56.0560 H         1 UNK         0.0600 
    218 H218       -4.4605  -26.5527  -55.4735 H         1 UNK         0.0600 
    219 H219       -3.2702  -25.3056  -55.1031 H         1 UNK         0.0600 
    220 H220       -3.3805  -23.9372  -52.4855 H         1 UNK         0.3000 
    221 H221       -3.8116  -21.2475  -53.3424 H         1 UNK         0.0600 
    222 H222       -2.2587  -22.3493  -50.9483 H         1 UNK         0.0600 
    223 H223       -1.6128  -21.9996  -52.5482 H         1 UNK         0.0600 
    224 H224       -2.1769  -20.6924  -51.5226 H         1 UNK         0.0600 
    225 H225       -5.6909  -23.1063  -51.1856 H         1 UNK         0.3000 
    226 H226       -6.6604  -21.0411  -49.4397 H         1 UNK         0.0600 
    227 H227       -6.9770  -23.4925  -49.0130 H         1 UNK         0.0600 
    228 H228       -8.5144  -22.6398  -49.0425 H         1 UNK         0.0600 
    229 H229       -8.0215  -23.6050  -50.4284 H         1 UNK         0.0600 
    230 H230       -7.2470  -21.7788  -52.8231 H         1 UNK         0.3000 
    231 H231       -9.6221  -20.0556  -53.0545 H         1 UNK         0.0600 
    232 H232       -9.4714  -20.6790  -55.4435 H         1 UNK         0.0600 
    233 H233       -9.4284  -22.1172  -54.4357 H         1 UNK         0.0600 
    234 H234       -7.9448  -21.5077  -55.1666 H         1 UNK         0.0600 
    235 H235       -8.0609  -18.4634  -51.8599 H         1 UNK         0.3000 
    236 H236       -6.9868  -16.5135  -51.7739 H         1 UNK         0.0600 
    237 H237       -7.6869  -14.8180  -53.4370 H         1 UNK         0.0600 
    238 H238       -9.0466  -15.8459  -53.0193 H         1 UNK         0.0600 
    239 H239       -8.2057  -16.0767  -54.5516 H         1 UNK         0.0600 
    240 H240       -5.2144  -18.5225  -52.4325 H         1 UNK         0.3000 
    241 H241       -3.2134  -18.9617  -53.0733 H         1 UNK         0.0600 
    242 H242       -5.5547  -18.8029  -55.2924 H         1 UNK         0.3800 
    243 H243       -4.6063  -19.2228  -56.6936 H         1 UNK         0.3800 
    244 H244       -2.8883  -16.3257  -52.5241 H         1 UNK         0.0800 
    245 H245       -2.4227  -16.2748  -54.1956 H         1 UNK         0.0800 
    246 H246       -0.5525  -15.5237  -51.6703 H         1 UNK         0.0800 
    247 H247       -1.2758  -16.7493  -50.6500 H         1 UNK         0.0800 
@<TRIPOS>BOND
     1    1    2 1    
     2    1  127 1    
     3    1  128 1    
     4    1  129 1    
     5    2    3 2    
     6    2    4 am   BACKBONE|DICT|INTERRES
     7    4    5 1    
     8    4  130 1    
     9    5    6 1    
    10    5   65 1    
    11    5  131 1    
    12    6    7 1    
    13    6  132 1    
    14    6  133 1    
    15    7    8 1    
    16    8    9 1    
    17    8  134 1    
    18    8  135 1    
    19    9   10 ar   
    20    9   14 ar   
    21   10   11 ar   
    22   10  136 1    
    23   11   12 ar   
    24   11  126 1    
    25   12   13 ar   
    26   12  137 1    
    27   13   14 ar   
    28   13   15 1    
    29   14  138 1    
    30   15   16 1    
    31   15  139 1    
    32   15  140 1    
    33   16   17 1    
    34   17   18 1    
    35   17  141 1    
    36   17  142 1    
    37   18   19 1    
    38   18   67 1    
    39   18  143 1    
    40   19   20 am   BACKBONE|DICT|INTERRES
    41   19  144 1    
    42   20   21 2    
    43   20   22 1    
    44   22   23 1    
    45   22   24 1    
    46   22  145 1    
    47   23  146 1    
    48   23  147 1    
    49   23  148 1    
    50   24   25 am   BACKBONE|DICT|INTERRES
    51   24  149 1    
    52   25   26 2    
    53   25   27 1    
    54   27   28 1    
    55   27   29 1    
    56   27  150 1    
    57   28  151 1    
    58   28  152 1    
    59   28  153 1    
    60   29   30 am   BACKBONE|DICT|INTERRES
    61   29  154 1    
    62   30   31 2    
    63   30   32 1    
    64   32   33 1    
    65   32   34 1    
    66   32  155 1    
    67   33  156 1    
    68   33  157 1    
    69   33  158 1    
    70   34   35 am   BACKBONE|DICT|INTERRES
    71   34  159 1    
    72   35   36 2    
    73   35   37 1    
    74   37   38 1    
    75   37   39 1    
    76   37  160 1    
    77   38  161 1    
    78   38  162 1    
    79   38  163 1    
    80   39   40 am   BACKBONE|DICT|INTERRES
    81   39  164 1    
    82   40   41 2    
    83   40   42 1    
    84   42   43 1    
    85   42   44 1    
    86   42  165 1    
    87   43  166 1    
    88   43  167 1    
    89   43  168 1    
    90   44   45 am   BACKBONE|DICT|INTERRES
    91   44  169 1    
    92   45   46 2    
    93   45   47 1    
    94   47   48 1    
    95   47   49 1    
    96   47  170 1    
    97   48  171 1    
    98   48  172 1    
    99   48  173 1    
   100   49   50 am   BACKBONE|DICT|INTERRES
   101   49  174 1    
   102   50   51 2    
   103   50   52 1    
   104   52   53 1    
   105   52   54 1    
   106   52  175 1    
   107   53  176 1    
   108   53  177 1    
   109   53  178 1    
   110   54   55 am   BACKBONE|DICT|INTERRES
   111   54  179 1    
   112   55   56 2    
   113   55   57 1    
   114   57   58 1    
   115   57   59 1    
   116   57  180 1    
   117   58  181 1    
   118   58  182 1    
   119   58  183 1    
   120   59   60 am   BACKBONE|DICT|INTERRES
   121   59  184 1    
   122   60   61 2    
   123   60   62 1    
   124   62   63 1    
   125   62   64 1    
   126   62  185 1    
   127   63  186 1    
   128   63  187 1    
   129   63  188 1    
   130   64   65 am   BACKBONE|DICT|INTERRES
   131   64  189 1    
   132   65   66 2    
   133   67   68 2    
   134   67   69 am   BACKBONE|DICT|INTERRES
   135   69   70 1    
   136   69  190 1    
   137   70   71 1    
   138   70   72 1    
   139   70  191 1    
   140   71  192 1    
   141   71  193 1    
   142   71  194 1    
   143   72   73 2    
   144   72   74 am   BACKBONE|DICT|INTERRES
   145   74   75 1    
   146   74  195 1    
   147   75   76 1    
   148   75   77 1    
   149   75  196 1    
   150   76  197 1    
   151   76  198 1    
   152   76  199 1    
   153   77   78 2    
   154   77   79 am   BACKBONE|DICT|INTERRES
   155   79   80 1    
   156   79  200 1    
   157   80   81 1    
   158   80   82 1    
   159   80  201 1    
   160   81  202 1    
   161   81  203 1    
   162   81  204 1    
   163   82   83 2    
   164   82   84 am   BACKBONE|DICT|INTERRES
   165   84   85 1    
   166   84  205 1    
   167   85   86 1    
   168   85   87 1    
   169   85  206 1    
   170   86  207 1    
   171   86  208 1    
   172   86  209 1    
   173   87   88 2    
   174   87   89 am   BACKBONE|DICT|INTERRES
   175   89   90 1    
   176   89  210 1    
   177   90   91 1    
   178   90   92 1    
   179   90  211 1    
   180   91  212 1    
   181   91  213 1    
   182   91  214 1    
   183   92   93 2    
   184   92   94 am   BACKBONE|DICT|INTERRES
   185   94   95 1    
   186   94  215 1    
   187   95   96 1    
   188   95   97 1    
   189   95  216 1    
   190   96  217 1    
   191   96  218 1    
   192   96  219 1    
   193   97   98 2    
   194   97   99 am   BACKBONE|DICT|INTERRES
   195   99  100 1    
   196   99  220 1    
   197  100  101 1    
   198  100  102 1    
   199  100  221 1    
   200  101  222 1    
   201  101  223 1    
   202  101  224 1    
   203  102  103 2    
   204  102  104 am   BACKBONE|DICT|INTERRES
   205  104  105 1    
   206  104  225 1    
   207  105  106 1    
   208  105  107 1    
   209  105  226 1    
   210  106  227 1    
   211  106  228 1    
   212  106  229 1    
   213  107  108 2    
   214  107  109 am   BACKBONE|DICT|INTERRES
   215  109  110 1    
   216  109  230 1    
   217  110  111 1    
   218  110  112 1    
   219  110  231 1    
   220  111  232 1    
   221  111  233 1    
   222  111  234 1    
   223  112  113 2    
   224  112  114 am   BACKBONE|DICT|INTERRES
   225  114  115 1    
   226  114  235 1    
   227  115  116 1    
   228  115  117 1    
   229  115  236 1    
   230  116  237 1    
   231  116  238 1    
   232  116  239 1    
   233  117  118 2    
   234  117  119 am   BACKBONE|DICT|INTERRES
   235  119  120 1    
   236  119  240 1    
   237  120  121 1    
   238  120  124 1    
   239  120  241 1    
   240  121  122 am   BACKBONE|DICT|INTERRES
   241  121  123 2    
   242  122  242 1    
   243  122  243 1    
   244  124  125 1    
   245  124  244 1    
   246  124  245 1    
   247  125  126 1    
   248  126  246 1    
   249  126  247 1    
@<TRIPOS>SUBSTRUCTURE
     1 UNK         1 GROUP             0       ****    0 ROOT    
