@<TRIPOS>MOLECULE
3R540
247   249    1
SMALL
USER_CHARGES


@<TRIPOS>ATOM
      1 CA          5.7766  -16.7273  -48.2319 C.3       0 UNK        -0.1800 
      2 C           4.7149  -16.0401  -47.3854 C.2       0 UNK         0.5000 
      3 O           4.9353  -15.8044  -46.1973 O.2       0 UNK        -0.5000 
      4 N           3.5558  -15.7421  -47.9817 N.am      1 UNK        -0.5000 
      5 CA          2.4743  -14.9756  -47.3600 C.3       1 UNK         0.1400 
      6 C6          1.1119  -15.2157  -48.0571 C.3       23 UNK        -0.0398 
      7 S7          1.1191  -15.0049  -49.8701 S.3       23 UNK        -0.2404 
      8 C8         -0.6678  -14.8945  -50.2125 C.3       23 UNK        -0.0205 
      9 C9         -1.4332  -16.1458  -49.7973 C.ar      23 UNK        -0.0193 
     10 C10        -2.4737  -16.0603  -48.8667 C.ar      23 UNK        -0.1150 
     11 C11        -3.2214  -17.1934  -48.5250 C.ar      23 UNK        -0.0193 
     12 C12        -2.8802  -18.4291  -49.0800 C.ar      23 UNK        -0.1150 
     13 C13        -1.8327  -18.5323  -49.9997 C.ar      23 UNK        -0.0193 
     14 C14        -1.1254  -17.3846  -50.3671 C.ar      23 UNK        -0.1150 
     15 C15        -1.4803  -19.8805  -50.6114 C.3       23 UNK        -0.0205 
     16 S16         0.1762  -20.4767  -50.1347 S.3       23 UNK        -0.2404 
     17 C17         0.0717  -20.5302  -48.3135 C.3       23 UNK        -0.0398 
     18 CA         -0.2217  -21.9380  -47.7425 C.3       11 UNK         0.1400 
     19 N           0.1772  -22.0291  -46.3373 N.am      11 UNK        -0.5000 
     20 C           0.1306  -23.1298  -45.5752 C.2       10 UNK         0.5000 
     21 O          -0.2099  -24.2386  -45.9851 O.2       10 UNK        -0.5000 
     22 CA          0.4693  -22.9407  -44.0872 C.3       10 UNK         0.1400 
     23 CB          1.9894  -22.9253  -43.8649 C.3       10 UNK        -0.1800 
     24 N          -0.1211  -21.7147  -43.5482 N.am      10 UNK        -0.5000 
     25 C          -1.4353  -21.5267  -43.3624 C.2       9 UNK         0.5000 
     26 O          -2.2877  -22.3839  -43.5925 O.2       9 UNK        -0.5000 
     27 CA         -1.8711  -20.1312  -42.8794 C.3       9 UNK         0.1400 
     28 CB         -1.6758  -19.9929  -41.3623 C.3       9 UNK        -0.1800 
     29 N          -1.1570  -19.0510  -43.5614 N.am      9 UNK        -0.5000 
     30 C          -1.2796  -18.7737  -44.8670 C.2       8 UNK         0.5000 
     31 O          -2.0227  -19.3886  -45.6304 O.2       8 UNK        -0.5000 
     32 CA         -0.3888  -17.6480  -45.4238 C.3       8 UNK         0.1400 
     33 CB         -1.0749  -16.2923  -45.2040 C.3       8 UNK        -0.1800 
     34 N           0.9708  -17.6174  -44.8633 N.am      8 UNK        -0.5000 
     35 C           1.8248  -18.6556  -44.8628 C.2       7 UNK         0.5000 
     36 O           1.5385  -19.7532  -45.3399 O.2       7 UNK        -0.5000 
     37 CA          3.2206  -18.4798  -44.2293 C.3       7 UNK         0.1400 
     38 CB          4.3215  -18.9569  -45.1898 C.3       7 UNK        -0.1800 
     39 N           3.5057  -17.1122  -43.7854 N.am      7 UNK        -0.5000 
     40 C           3.1220  -16.6221  -42.5978 C.2       6 UNK         0.5000 
     41 O           2.4768  -17.2771  -41.7768 O.2       6 UNK        -0.5000 
     42 CA          3.4703  -15.1560  -42.2582 C.3       6 UNK         0.1400 
     43 CB          4.4248  -14.4688  -43.2569 C.3       6 UNK        -0.1800 
     44 N           2.2525  -14.3617  -42.0752 N.am      6 UNK        -0.5000 
     45 C           1.2626  -14.2090  -42.9635 C.2       5 UNK         0.5000 
     46 O           1.3117  -14.6318  -44.1186 O.2       5 UNK        -0.5000 
     47 CA          0.0125  -13.4487  -42.4962 C.3       5 UNK         0.1400 
     48 CB         -0.7504  -14.2044  -41.3903 C.3       5 UNK        -0.1800 
     49 N           0.3035  -12.0602  -42.1346 N.am      5 UNK        -0.5000 
     50 C           0.9848  -11.5735  -41.0873 C.2       4 UNK         0.5000 
     51 O           1.4323  -12.2789  -40.1813 O.2       4 UNK        -0.5000 
     52 CA          1.2420  -10.0483  -41.0725 C.3       4 UNK         0.1400 
     53 CB          2.5982   -9.7044  -40.4312 C.3       4 UNK        -0.1800 
     54 N           1.2099   -9.4753  -42.4210 N.am      4 UNK        -0.5000 
     55 C           0.1311   -8.9803  -43.0435 C.2       3 UNK         0.5000 
     56 O          -0.9704   -8.8555  -42.5088 O.2       3 UNK        -0.5000 
     57 CA          0.3033   -8.6197  -44.5346 C.3       3 UNK         0.1400 
     58 CB          0.6217   -7.1255  -44.6943 C.3       3 UNK        -0.1800 
     59 N           1.3471   -9.4088  -45.2015 N.am      3 UNK        -0.5000 
     60 C           1.2949  -10.7337  -45.3992 C.2       2 UNK         0.5000 
     61 O           0.3218  -11.4293  -45.0993 O.2       2 UNK        -0.5000 
     62 CA          2.5626  -11.3843  -45.9715 C.3       2 UNK         0.1400 
     63 CB          3.7319  -11.2698  -44.9760 C.3       2 UNK        -0.1800 
     64 N           2.3208  -12.7978  -46.2500 N.am      2 UNK        -0.5000 
     65 C           2.8366  -13.4766  -47.2783 C.2       1 UNK         0.5000 
     66 O           3.5646  -12.9681  -48.1359 O.2       1 UNK        -0.5000 
     67 C          -1.6974  -22.3417  -47.9388 C.2       11 UNK         0.5000 
     68 O          -1.9911  -23.1529  -48.8171 O.2       11 UNK        -0.5000 
     69 N          -2.5866  -21.8068  -47.0891 N.am      12 UNK        -0.5000 
     70 CA         -4.0087  -22.1408  -47.0495 C.3       12 UNK         0.1400 
     71 CB         -4.7382  -21.1844  -46.0952 C.3       12 UNK        -0.1800 
     72 C          -4.2687  -23.6070  -46.6614 C.2       12 UNK         0.5000 
     73 O          -5.0728  -24.2658  -47.3199 O.2       12 UNK        -0.5000 
     74 N          -3.5669  -24.1028  -45.6311 N.am      13 UNK        -0.5000 
     75 CA         -3.6625  -25.4836  -45.1459 C.3       13 UNK         0.1400 
     76 CB         -2.8690  -25.6292  -43.8389 C.3       13 UNK        -0.1800 
     77 C          -3.2000  -26.5262  -46.1814 C.2       13 UNK         0.5000 
     78 O          -3.8429  -27.5664  -46.3269 O.2       13 UNK        -0.5000 
     79 N          -2.1169  -26.2142  -46.9047 N.am      14 UNK        -0.5000 
     80 CA         -1.5924  -27.0145  -48.0138 C.3       14 UNK         0.1400 
     81 CB         -0.1207  -26.6314  -48.2387 C.3       14 UNK        -0.1800 
     82 C          -2.3867  -26.8363  -49.3237 C.2       14 UNK         0.5000 
     83 O          -2.1281  -27.5607  -50.2866 O.2       14 UNK        -0.5000 
     84 N          -3.2868  -25.8414  -49.3635 N.am      15 UNK        -0.5000 
     85 CA         -4.0542  -25.3677  -50.5201 C.3       15 UNK         0.1400 
     86 CB         -5.1173  -26.4082  -50.9263 C.3       15 UNK        -0.1800 
     87 C          -3.1516  -24.9498  -51.7012 C.2       15 UNK         0.5000 
     88 O          -3.5240  -25.1471  -52.8558 O.2       15 UNK        -0.5000 
     89 N          -1.9413  -24.4593  -51.3906 N.am      16 UNK        -0.5000 
     90 CA         -0.8216  -24.1727  -52.3000 C.3       16 UNK         0.1400 
     91 CB         -1.1151  -22.8942  -53.1058 C.3       16 UNK        -0.1800 
     92 C          -0.4142  -25.3506  -53.2216 C.2       16 UNK         0.5000 
     93 O           0.2198  -25.1201  -54.2525 O.2       16 UNK        -0.5000 
     94 N          -0.8093  -26.5822  -52.8571 N.am      17 UNK        -0.5000 
     95 CA         -0.7467  -27.8131  -53.6533 C.3       17 UNK         0.1400 
     96 CB          0.7164  -28.2545  -53.8661 C.3       17 UNK        -0.1800 
     97 C          -1.5549  -27.7485  -54.9741 C.2       17 UNK         0.5000 
     98 O          -1.2529  -28.4938  -55.9083 O.2       17 UNK        -0.5000 
     99 N          -2.5701  -26.8759  -55.0353 N.am      18 UNK        -0.5000 
    100 CA        -3.4280  -26.6446  -56.1938 C.3       18 UNK         0.1400 
    101 CB        -2.6810  -25.8125  -57.2594 C.3       18 UNK        -0.1800 
    102 C         -4.7235  -25.9883  -55.6937 C.2       18 UNK         0.5000 
    103 O         -5.6437  -26.6995  -55.2869 O.2       18 UNK        -0.5000 
    104 N         -4.7534  -24.6519  -55.6865 N.am      19 UNK        -0.5000 
    105 CA        -5.7506  -23.8289  -55.0140 C.3       19 UNK         0.1400 
    106 CB        -6.8299  -23.3835  -56.0137 C.3       19 UNK        -0.1800 
    107 C         -5.0115  -22.6264  -54.4124 C.2       19 UNK         0.5000 
    108 O         -4.1572  -22.0467  -55.0880 O.2       19 UNK        -0.5000 
    109 N         -5.3315  -22.2858  -53.1574 N.am      20 UNK        -0.5000 
    110 CA        -4.6575  -21.2288  -52.3994 C.3       20 UNK         0.1400 
    111 CB        -4.9862  -21.3793  -50.9058 C.3       20 UNK        -0.1800 
    112 C         -5.0013  -19.8103  -52.8793 C.2       20 UNK         0.5000 
    113 O         -4.1271  -18.9432  -52.8751 O.2       20 UNK        -0.5000 
    114 N         -6.2720  -19.6047  -53.2550 N.am      21 UNK        -0.5000 
    115 CA        -6.9180  -18.3514  -53.6673 C.3       21 UNK         0.1400 
    116 CB        -6.2748  -17.7722  -54.9424 C.3       21 UNK        -0.1800 
    117 C         -7.0095  -17.2945  -52.5466 C.2       21 UNK         0.5000 
    118 O         -8.1115  -16.8382  -52.2408 O.2       21 UNK        -0.5000 
    119 N         -5.8645  -16.9407  -51.9484 N.am      22 UNK        -0.5000 
    120 CA        -5.7097  -15.9631  -50.8573 C.3       22 UNK         0.1400 
    121 C         -6.0911  -14.4982  -51.2482 C.2       22 UNK         0.5000 
    122 N         -6.0017  -14.1221  -52.5188 N.am      22 UNK        -0.7600 
    123 O         -6.4576  -13.6829  -50.4065 O.2       22 UNK        -0.5000 
    124 C124       -6.3591  -16.4704  -49.5360 C.3       23 UNK        -0.0398 
    125 S125       -5.5904  -15.7903  -48.0228 S.3       23 UNK        -0.2404 
    126 C126       -4.3998  -17.0935  -47.5620 C.3       23 UNK        -0.0205 
    127 H127        6.0637  -17.6757  -47.7781 H         1 UNK         0.0600 
    128 H128        6.6643  -16.0985  -48.3001 H         1 UNK         0.0600 
    129 H129        5.4217  -16.9274  -49.2432 H         1 UNK         0.0600 
    130 H130        3.4338  -15.9303  -48.9666 H         1 UNK         0.3000 
    131 H131        2.3740  -15.3401  -46.3367 H         1 UNK         0.0600 
    132 H132        0.7879  -16.2364  -47.8557 H         1 UNK         0.0800 
    133 H133        0.3447  -14.5680  -47.6301 H         1 UNK         0.0800 
    134 H134       -0.8107  -14.7355  -51.2820 H         1 UNK         0.0800 
    135 H135       -1.0695  -14.0097  -49.7161 H         1 UNK         0.0800 
    136 H136       -2.7266  -15.1047  -48.4296 H         1 UNK         0.1150 
    137 H137       -3.4333  -19.3121  -48.7949 H         1 UNK         0.1150 
    138 H138       -0.3245  -17.4585  -51.0895 H         1 UNK         0.1150 
    139 H139       -2.2165  -20.6366  -50.3397 H         1 UNK         0.0800 
    140 H140       -1.5235  -19.7889  -51.6974 H         1 UNK         0.0800 
    141 H141       -0.6412  -19.7950  -47.9418 H         1 UNK         0.0800 
    142 H142        1.0442  -20.1907  -47.9550 H         1 UNK         0.0800 
    143 H143        0.3905  -22.6623  -48.2840 H         1 UNK         0.0600 
    144 H144        0.5215  -21.1709  -45.9120 H         1 UNK         0.3000 
    145 H145        0.0553  -23.7890  -43.5383 H         1 UNK         0.0600 
    146 H146        2.2317  -22.8434  -42.8053 H         1 UNK         0.0600 
    147 H147        2.4442  -23.8463  -44.2317 H         1 UNK         0.0600 
    148 H148        2.4692  -22.0950  -44.3837 H         1 UNK         0.0600 
    149 H149        0.5055  -20.9388  -43.3955 H         1 UNK         0.3000 
    150 H150       -2.9358  -20.0229  -43.0972 H         1 UNK         0.0600 
    151 H151       -2.2085  -20.7802  -40.8272 H         1 UNK         0.0600 
    152 H152       -2.0602  -19.0387  -41.0012 H         1 UNK         0.0600 
    153 H153       -0.6238  -20.0585  -41.0818 H         1 UNK         0.0600 
    154 H154       -0.5130  -18.5039  -43.0092 H         1 UNK         0.3000 
    155 H155       -0.2976  -17.8148  -46.4982 H         1 UNK         0.0600 
    156 H156       -2.0856  -16.2914  -45.6075 H         1 UNK         0.0600 
    157 H157       -0.5394  -15.4864  -45.7000 H         1 UNK         0.0600 
    158 H158       -1.1477  -16.0459  -44.1446 H         1 UNK         0.0600 
    159 H159        1.2750  -16.7354  -44.4673 H         1 UNK         0.3000 
    160 H160        3.2532  -19.1396  -43.3597 H         1 UNK         0.0600 
    161 H161        4.2112  -18.5167  -46.1789 H         1 UNK         0.0600 
    162 H162        4.2782  -20.0392  -45.3181 H         1 UNK         0.0600 
    163 H163        5.3164  -18.7142  -44.8160 H         1 UNK         0.0600 
    164 H164        4.0062  -16.5176  -44.4389 H         1 UNK         0.3000 
    165 H165        3.9732  -15.1826  -41.2906 H         1 UNK         0.0600 
    166 H166        4.7292  -13.4900  -42.8871 H         1 UNK         0.0600 
    167 H167        5.3359  -15.0509  -43.4004 H         1 UNK         0.0600 
    168 H168        3.9655  -14.3217  -44.2337 H         1 UNK         0.0600 
    169 H169        2.1211  -13.9423  -41.1606 H         1 UNK         0.3000 
    170 H170       -0.6543  -13.3909  -43.3581 H         1 UNK         0.0600 
    171 H171       -1.0392  -15.1992  -41.7311 H         1 UNK         0.0600 
    172 H172       -0.1547  -14.3355  -40.4870 H         1 UNK         0.0600 
    173 H173       -1.6640  -13.6779  -41.1146 H         1 UNK         0.0600 
    174 H174        0.0327  -11.3952  -42.8474 H         1 UNK         0.3000 
    175 H175        0.4566   -9.5960  -40.4637 H         1 UNK         0.0600 
    176 H176        3.4255  -10.1752  -40.9638 H         1 UNK         0.0600 
    177 H177        2.7705   -8.6279  -40.4275 H         1 UNK         0.0600 
    178 H178        2.6407  -10.0393  -39.3941 H         1 UNK         0.0600 
    179 H179        2.0666   -9.5430  -42.9501 H         1 UNK         0.3000 
    180 H180       -0.6460   -8.8237  -45.0345 H         1 UNK         0.0600 
    181 H181        1.5730   -6.8639  -44.2292 H         1 UNK         0.0600 
    182 H182       -0.1505   -6.5100  -44.2306 H         1 UNK         0.0600 
    183 H183        0.6719   -6.8428  -45.7459 H         1 UNK         0.0600 
    184 H184        2.1753   -8.9042  -45.4839 H         1 UNK         0.3000 
    185 H185        2.8147  -10.8573  -46.8941 H         1 UNK         0.0600 
    186 H186        4.0167  -10.2302  -44.8124 H         1 UNK         0.0600 
    187 H187        3.4729  -11.6971  -44.0065 H         1 UNK         0.0600 
    188 H188        4.6169  -11.7899  -45.3437 H         1 UNK         0.0600 
    189 H189        1.7078  -13.2688  -45.5903 H         1 UNK         0.3000 
    190 H190       -2.2727  -21.1052  -46.4234 H         1 UNK         0.3000 
    191 H191       -4.4126  -21.9869  -48.0512 H         1 UNK         0.0600 
    192 H192       -4.3608  -21.2658  -45.0755 H         1 UNK         0.0600 
    193 H193       -5.8076  -21.3968  -46.0694 H         1 UNK         0.0600 
    194 H194       -4.6193  -20.1487  -46.4104 H         1 UNK         0.0600 
    195 H195       -2.9550  -23.4821  -45.1097 H         1 UNK         0.3000 
    196 H196       -4.7132  -25.6833  -44.9259 H         1 UNK         0.0600 
    197 H197       -2.9393  -26.6456  -43.4495 H         1 UNK         0.0600 
    198 H198       -3.2519  -24.9596  -43.0687 H         1 UNK         0.0600 
    199 H199       -1.8121  -25.4047  -43.9829 H         1 UNK         0.0600 
    200 H200       -1.6028  -25.3665  -46.6767 H         1 UNK         0.3000 
    201 H201       -1.6360  -28.0709  -47.7416 H         1 UNK         0.0600 
    202 H202        0.4699  -26.7889  -47.3360 H         1 UNK         0.0600 
    203 H203       -0.0193  -25.5836  -48.5253 H         1 UNK         0.0600 
    204 H204        0.3280  -27.2341  -49.0294 H         1 UNK         0.0600 
    205 H205       -3.4056  -25.2920  -48.5222 H         1 UNK         0.3000 
    206 H206       -4.5790  -24.4721  -50.1914 H         1 UNK         0.0600 
    207 H207       -5.7442  -26.6812  -50.0774 H         1 UNK         0.0600 
    208 H208       -5.7752  -26.0145  -51.7020 H         1 UNK         0.0600 
    209 H209       -4.6632  -27.3199  -51.3159 H         1 UNK         0.0600 
    210 H210       -1.7694  -24.2633  -50.4080 H         1 UNK         0.3000 
    211 H211        0.0416  -23.9735  -51.6636 H         1 UNK         0.0600 
    212 H212       -1.9456  -23.0371  -53.7969 H         1 UNK         0.0600 
    213 H213       -0.2488  -22.5854  -53.6916 H         1 UNK         0.0600 
    214 H214       -1.3624  -22.0676  -52.4442 H         1 UNK         0.0600 
    215 H215       -1.3161  -26.6752  -51.9828 H         1 UNK         0.3000 
    216 H216       -1.2330  -28.5791  -53.0477 H         1 UNK         0.0600 
    217 H217        0.7647  -29.2498  -54.3093 H         1 UNK         0.0600 
    218 H218        1.2568  -28.2966  -52.9205 H         1 UNK         0.0600 
    219 H219        1.2525  -27.5762  -54.5301 H         1 UNK         0.0600 
    220 H220       -2.7959  -26.3169  -54.2147 H         1 UNK         0.3000 
    221 H221       -3.7043  -27.6054  -56.6329 H         1 UNK         0.0600 
    222 H222       -2.2525  -24.9012  -56.8404 H         1 UNK         0.0600 
    223 H223       -1.8640  -26.3841  -57.6997 H         1 UNK         0.0600 
    224 H224       -3.3474  -25.5275  -58.0745 H         1 UNK         0.0600 
    225 H225       -3.9366  -24.1393  -55.9925 H         1 UNK         0.3000 
    226 H226       -6.2164  -24.3966  -54.2052 H         1 UNK         0.0600 
    227 H227       -6.4027  -22.8105  -56.8377 H         1 UNK         0.0600 
    228 H228       -7.3509  -24.2420  -56.4377 H         1 UNK         0.0600 
    229 H229       -7.5770  -22.7555  -55.5271 H         1 UNK         0.0600 
    230 H230       -6.0443  -22.8107  -52.6723 H         1 UNK         0.3000 
    231 H231       -3.5807  -21.3525  -52.5203 H         1 UNK         0.0600 
    232 H232       -4.6670  -20.5048  -50.3399 H         1 UNK         0.0600 
    233 H233       -6.0560  -21.5004  -50.7328 H         1 UNK         0.0600 
    234 H234       -4.4712  -22.2379  -50.4798 H         1 UNK         0.0600 
    235 H235       -6.8939  -20.3983  -53.1968 H         1 UNK         0.3000 
    236 H236       -7.9436  -18.6231  -53.9222 H         1 UNK         0.0600 
    237 H237       -6.8267  -16.8989  -55.2922 H         1 UNK         0.0600 
    238 H238       -5.2430  -17.4601  -54.7799 H         1 UNK         0.0600 
    239 H239       -6.2785  -18.5038  -55.7504 H         1 UNK         0.0600 
    240 H240       -5.0172  -17.4123  -52.2555 H         1 UNK         0.3000 
    241 H241       -4.6336  -15.9229  -50.6939 H         1 UNK         0.0600 
    242 H242       -5.6975  -14.7714  -53.2264 H         1 UNK         0.3800 
    243 H243       -6.2437  -13.1776  -52.7744 H         1 UNK         0.3800 
    244 H244       -7.4255  -16.2401  -49.5227 H         1 UNK         0.0800 
    245 H245       -6.2942  -17.5579  -49.4811 H         1 UNK         0.0800 
    246 H246       -4.9307  -18.0436  -47.4960 H         1 UNK         0.0800 
    247 H247       -4.0264  -16.8882  -46.5602 H         1 UNK         0.0800 
@<TRIPOS>BOND
     1    1    2 1    
     2    1  127 1    
     3    1  128 1    
     4    1  129 1    
     5    2    3 2    
     6    2    4 am   BACKBONE|DICT|INTERRES
     7    4    5 1    
     8    4  130 1    
     9    5    6 1    
    10    5   65 1    
    11    5  131 1    
    12    6    7 1    
    13    6  132 1    
    14    6  133 1    
    15    7    8 1    
    16    8    9 1    
    17    8  134 1    
    18    8  135 1    
    19    9   10 ar   
    20    9   14 ar   
    21   10   11 ar   
    22   10  136 1    
    23   11   12 ar   
    24   11  126 1    
    25   12   13 ar   
    26   12  137 1    
    27   13   14 ar   
    28   13   15 1    
    29   14  138 1    
    30   15   16 1    
    31   15  139 1    
    32   15  140 1    
    33   16   17 1    
    34   17   18 1    
    35   17  141 1    
    36   17  142 1    
    37   18   19 1    
    38   18   67 1    
    39   18  143 1    
    40   19   20 am   BACKBONE|DICT|INTERRES
    41   19  144 1    
    42   20   21 2    
    43   20   22 1    
    44   22   23 1    
    45   22   24 1    
    46   22  145 1    
    47   23  146 1    
    48   23  147 1    
    49   23  148 1    
    50   24   25 am   BACKBONE|DICT|INTERRES
    51   24  149 1    
    52   25   26 2    
    53   25   27 1    
    54   27   28 1    
    55   27   29 1    
    56   27  150 1    
    57   28  151 1    
    58   28  152 1    
    59   28  153 1    
    60   29   30 am   BACKBONE|DICT|INTERRES
    61   29  154 1    
    62   30   31 2    
    63   30   32 1    
    64   32   33 1    
    65   32   34 1    
    66   32  155 1    
    67   33  156 1    
    68   33  157 1    
    69   33  158 1    
    70   34   35 am   BACKBONE|DICT|INTERRES
    71   34  159 1    
    72   35   36 2    
    73   35   37 1    
    74   37   38 1    
    75   37   39 1    
    76   37  160 1    
    77   38  161 1    
    78   38  162 1    
    79   38  163 1    
    80   39   40 am   BACKBONE|DICT|INTERRES
    81   39  164 1    
    82   40   41 2    
    83   40   42 1    
    84   42   43 1    
    85   42   44 1    
    86   42  165 1    
    87   43  166 1    
    88   43  167 1    
    89   43  168 1    
    90   44   45 am   BACKBONE|DICT|INTERRES
    91   44  169 1    
    92   45   46 2    
    93   45   47 1    
    94   47   48 1    
    95   47   49 1    
    96   47  170 1    
    97   48  171 1    
    98   48  172 1    
    99   48  173 1    
   100   49   50 am   BACKBONE|DICT|INTERRES
   101   49  174 1    
   102   50   51 2    
   103   50   52 1    
   104   52   53 1    
   105   52   54 1    
   106   52  175 1    
   107   53  176 1    
   108   53  177 1    
   109   53  178 1    
   110   54   55 am   BACKBONE|DICT|INTERRES
   111   54  179 1    
   112   55   56 2    
   113   55   57 1    
   114   57   58 1    
   115   57   59 1    
   116   57  180 1    
   117   58  181 1    
   118   58  182 1    
   119   58  183 1    
   120   59   60 am   BACKBONE|DICT|INTERRES
   121   59  184 1    
   122   60   61 2    
   123   60   62 1    
   124   62   63 1    
   125   62   64 1    
   126   62  185 1    
   127   63  186 1    
   128   63  187 1    
   129   63  188 1    
   130   64   65 am   BACKBONE|DICT|INTERRES
   131   64  189 1    
   132   65   66 2    
   133   67   68 2    
   134   67   69 am   BACKBONE|DICT|INTERRES
   135   69   70 1    
   136   69  190 1    
   137   70   71 1    
   138   70   72 1    
   139   70  191 1    
   140   71  192 1    
   141   71  193 1    
   142   71  194 1    
   143   72   73 2    
   144   72   74 am   BACKBONE|DICT|INTERRES
   145   74   75 1    
   146   74  195 1    
   147   75   76 1    
   148   75   77 1    
   149   75  196 1    
   150   76  197 1    
   151   76  198 1    
   152   76  199 1    
   153   77   78 2    
   154   77   79 am   BACKBONE|DICT|INTERRES
   155   79   80 1    
   156   79  200 1    
   157   80   81 1    
   158   80   82 1    
   159   80  201 1    
   160   81  202 1    
   161   81  203 1    
   162   81  204 1    
   163   82   83 2    
   164   82   84 am   BACKBONE|DICT|INTERRES
   165   84   85 1    
   166   84  205 1    
   167   85   86 1    
   168   85   87 1    
   169   85  206 1    
   170   86  207 1    
   171   86  208 1    
   172   86  209 1    
   173   87   88 2    
   174   87   89 am   BACKBONE|DICT|INTERRES
   175   89   90 1    
   176   89  210 1    
   177   90   91 1    
   178   90   92 1    
   179   90  211 1    
   180   91  212 1    
   181   91  213 1    
   182   91  214 1    
   183   92   93 2    
   184   92   94 am   BACKBONE|DICT|INTERRES
   185   94   95 1    
   186   94  215 1    
   187   95   96 1    
   188   95   97 1    
   189   95  216 1    
   190   96  217 1    
   191   96  218 1    
   192   96  219 1    
   193   97   98 2    
   194   97   99 am   BACKBONE|DICT|INTERRES
   195   99  100 1    
   196   99  220 1    
   197  100  101 1    
   198  100  102 1    
   199  100  221 1    
   200  101  222 1    
   201  101  223 1    
   202  101  224 1    
   203  102  103 2    
   204  102  104 am   BACKBONE|DICT|INTERRES
   205  104  105 1    
   206  104  225 1    
   207  105  106 1    
   208  105  107 1    
   209  105  226 1    
   210  106  227 1    
   211  106  228 1    
   212  106  229 1    
   213  107  108 2    
   214  107  109 am   BACKBONE|DICT|INTERRES
   215  109  110 1    
   216  109  230 1    
   217  110  111 1    
   218  110  112 1    
   219  110  231 1    
   220  111  232 1    
   221  111  233 1    
   222  111  234 1    
   223  112  113 2    
   224  112  114 am   BACKBONE|DICT|INTERRES
   225  114  115 1    
   226  114  235 1    
   227  115  116 1    
   228  115  117 1    
   229  115  236 1    
   230  116  237 1    
   231  116  238 1    
   232  116  239 1    
   233  117  118 2    
   234  117  119 am   BACKBONE|DICT|INTERRES
   235  119  120 1    
   236  119  240 1    
   237  120  121 1    
   238  120  124 1    
   239  120  241 1    
   240  121  122 am   BACKBONE|DICT|INTERRES
   241  121  123 2    
   242  122  242 1    
   243  122  243 1    
   244  124  125 1    
   245  124  244 1    
   246  124  245 1    
   247  125  126 1    
   248  126  246 1    
   249  126  247 1    
@<TRIPOS>SUBSTRUCTURE
     1 UNK         1 GROUP             0       ****    0 ROOT    
