@<TRIPOS>MOLECULE
3R540
247   249    1
SMALL
USER_CHARGES


@<TRIPOS>ATOM
      1 CA         -2.8228  -14.3967  -47.1016 C.3       0 UNK        -0.1800 
      2 C          -1.8667  -13.4495  -47.8115 C.2       0 UNK         0.5000 
      3 O          -2.3057  -12.5949  -48.5799 O.2       0 UNK        -0.5000 
      4 N          -0.5605  -13.5847  -47.5414 N.am      1 UNK        -0.5000 
      5 CA          0.5017  -12.7303  -48.0957 C.3       1 UNK         0.1400 
      6 C6          1.9115  -13.3852  -48.0254 C.3       23 UNK        -0.0398 
      7 S7          2.0449  -15.1658  -48.4182 S.3       23 UNK        -0.2404 
      8 C8          1.1491  -15.3933  -49.9887 C.3       23 UNK        -0.0205 
      9 C9          0.2939  -16.6513  -49.9317 C.ar      23 UNK        -0.0193 
     10 C10        -1.1001  -16.5570  -49.8821 C.ar      23 UNK        -0.1150 
     11 C11        -1.8858  -17.7098  -49.7899 C.ar      23 UNK        -0.0193 
     12 C12        -1.2680  -18.9609  -49.7303 C.ar      23 UNK        -0.1150 
     13 C13         0.1224  -19.0716  -49.7923 C.ar      23 UNK        -0.0193 
     14 C14         0.8976  -17.9133  -49.9064 C.ar      23 UNK        -0.1150 
     15 C15         0.7821  -20.4398  -49.7135 C.3       23 UNK        -0.0205 
     16 S16         1.5914  -20.6627  -48.1026 S.3       23 UNK        -0.2404 
     17 C17         1.8467  -22.4613  -48.0255 C.3       23 UNK        -0.0398 
     18 CA          0.8863  -23.2155  -47.0722 C.3       11 UNK         0.1400 
     19 N           0.8665  -22.7091  -45.6932 N.am      11 UNK        -0.5000 
     20 C           0.4408  -23.4472  -44.6560 C.2       10 UNK         0.5000 
     21 O           0.0468  -24.6085  -44.7706 O.2       10 UNK        -0.5000 
     22 CA          0.4065  -22.7830  -43.2685 C.3       10 UNK         0.1400 
     23 CB          1.8145  -22.6637  -42.6652 C.3       10 UNK        -0.1800 
     24 N          -0.2473  -21.4764  -43.2868 N.am      10 UNK        -0.5000 
     25 C          -1.5535  -21.2917  -43.5256 C.2       9 UNK         0.5000 
     26 O          -2.3424  -22.2076  -43.7543 O.2       9 UNK        -0.5000 
     27 CA         -2.0630  -19.8391  -43.5418 C.3       9 UNK         0.1400 
     28 CB         -2.3756  -19.3559  -42.1180 C.3       9 UNK        -0.1800 
     29 N          -1.1241  -18.9137  -44.1711 N.am      9 UNK        -0.5000 
     30 C          -0.7265  -18.9871  -45.4491 C.2       8 UNK         0.5000 
     31 O          -1.1412  -19.8240  -46.2481 O.2       8 UNK        -0.5000 
     32 CA          0.3521  -17.9811  -45.8809 C.3       8 UNK         0.1400 
     33 CB         -0.2720  -16.5955  -46.0817 C.3       8 UNK        -0.1800 
     34 N           1.4511  -17.8913  -44.9180 N.am      8 UNK        -0.5000 
     35 C           2.2148  -18.9152  -44.5059 C.2       7 UNK         0.5000 
     36 O           2.1026  -20.0724  -44.9080 O.2       7 UNK        -0.5000 
     37 CA          3.2416  -18.6007  -43.4070 C.3       7 UNK         0.1400 
     38 CB          4.5229  -18.0027  -44.0065 C.3       7 UNK        -0.1800 
     39 N           2.6850  -17.6902  -42.4066 N.am      7 UNK        -0.5000 
     40 C           1.7650  -18.0459  -41.4981 C.2       6 UNK         0.5000 
     41 O           1.3435  -19.1954  -41.3661 O.2       6 UNK        -0.5000 
     42 CA          1.1966  -16.9195  -40.6137 C.3       6 UNK         0.1400 
     43 CB          2.1132  -16.6614  -39.4085 C.3       6 UNK        -0.1800 
     44 N           0.9984  -15.6684  -41.3498 N.am      6 UNK        -0.5000 
     45 C           0.0886  -15.5019  -42.3200 C.2       5 UNK         0.5000 
     46 O          -0.7073  -16.3765  -42.6614 O.2       5 UNK        -0.5000 
     47 CA          0.0953  -14.1500  -43.0647 C.3       5 UNK         0.1400 
     48 CB         -0.8590  -13.1541  -42.3909 C.3       5 UNK        -0.1800 
     49 N           1.4212  -13.5345  -43.1952 N.am      5 UNK        -0.5000 
     50 C           2.4739  -14.0964  -43.8066 C.2       4 UNK         0.5000 
     51 O           2.4436  -15.2233  -44.3006 O.2       4 UNK        -0.5000 
     52 CA          3.7486  -13.2424  -43.8945 C.3       4 UNK         0.1400 
     53 CB          4.8375  -13.8654  -44.7884 C.3       4 UNK        -0.1800 
     54 N           3.4032  -11.9142  -44.3922 N.am      4 UNK        -0.5000 
     55 C           3.9771  -10.7641  -44.0197 C.2       3 UNK         0.5000 
     56 O           4.8863  -10.6894  -43.1924 O.2       3 UNK        -0.5000 
     57 CA          3.4494   -9.4765  -44.6857 C.3       3 UNK         0.1400 
     58 CB          4.4226   -9.0000  -45.7748 C.3       3 UNK        -0.1800 
     59 N           2.1213   -9.6368  -45.2831 N.am      3 UNK        -0.5000 
     60 C           0.9733   -9.7383  -44.6034 C.2       2 UNK         0.5000 
     61 O           0.9010   -9.6843  -43.3758 O.2       2 UNK        -0.5000 
     62 CA         -0.3002   -9.9974  -45.4283 C.3       2 UNK         0.1400 
     63 CB         -0.7569   -8.7360  -46.1860 C.3       2 UNK        -0.1800 
     64 N          -0.1914  -11.1646  -46.3146 N.am      2 UNK        -0.5000 
     65 C           0.5493  -11.3364  -47.4224 C.2       1 UNK         0.5000 
     66 O           1.2904  -10.4696  -47.8874 O.2       1 UNK        -0.5000 
     67 C          -0.5306  -23.3941  -47.6559 C.2       11 UNK         0.5000 
     68 O          -0.7489  -24.3620  -48.3833 O.2       11 UNK        -0.5000 
     69 N          -1.4841  -22.5229  -47.2902 N.am      12 UNK        -0.5000 
     70 CA         -2.8978  -22.6702  -47.6476 C.3       12 UNK         0.1400 
     71 CB         -3.6780  -21.3991  -47.2845 C.3       12 UNK        -0.1800 
     72 C          -3.5561  -23.9101  -47.0170 C.2       12 UNK         0.5000 
     73 O          -4.3851  -24.5392  -47.6711 O.2       12 UNK        -0.5000 
     74 N          -3.1701  -24.2517  -45.7795 N.am      13 UNK        -0.5000 
     75 CA         -3.6162  -25.4608  -45.0858 C.3       13 UNK         0.1400 
     76 CB         -3.3219  -25.3320  -43.5835 C.3       13 UNK        -0.1800 
     77 C          -2.9831  -26.7447  -45.6547 C.2       13 UNK         0.5000 
     78 O          -3.6429  -27.7846  -45.6690 O.2       13 UNK        -0.5000 
     79 N          -1.7211  -26.6582  -46.1002 N.am      14 UNK        -0.5000 
     80 CA         -0.9947  -27.7547  -46.7435 C.3       14 UNK         0.1400 
     81 CB          0.5050  -27.4233  -46.7835 C.3       14 UNK        -0.1800 
     82 C          -1.5266  -28.0591  -48.1568 C.2       14 UNK         0.5000 
     83 O          -1.6798  -29.2286  -48.5135 O.2       14 UNK        -0.5000 
     84 N          -1.8040  -27.0009  -48.9280 N.am      15 UNK        -0.5000 
     85 CA         -2.4409  -27.0535  -50.2420 C.3       15 UNK         0.1400 
     86 CB         -2.1562  -25.7244  -50.9653 C.3       15 UNK        -0.1800 
     87 C          -3.9597  -27.3020  -50.1390 C.2       15 UNK         0.5000 
     88 O          -4.5276  -27.3205  -49.0450 O.2       15 UNK        -0.5000 
     89 N          -4.6178  -27.4340  -51.2973 N.am      16 UNK        -0.5000 
     90 CA         -6.0760  -27.4966  -51.4290 C.3       16 UNK         0.1400 
     91 CB         -6.4232  -28.2082  -52.7492 C.3       16 UNK        -0.1800 
     92 C          -6.6914  -26.0831  -51.3316 C.2       16 UNK         0.5000 
     93 O          -7.2430  -25.5797  -52.3109 O.2       16 UNK        -0.5000 
     94 N          -6.5143  -25.4447  -50.1648 N.am      17 UNK        -0.5000 
     95 CA         -6.8889  -24.0672  -49.8079 C.3       17 UNK         0.1400 
     96 CB         -8.4059  -23.8372  -49.9716 C.3       17 UNK        -0.1800 
     97 C          -6.0600  -22.9756  -50.5225 C.2       17 UNK         0.5000 
     98 O          -6.3599  -21.7921  -50.3577 O.2       17 UNK        -0.5000 
     99 N          -5.0432  -23.3828  -51.2984 N.am      18 UNK        -0.5000 
    100 CA        -4.1604  -22.5987  -52.1726 C.3       18 UNK         0.1400 
    101 CB        -3.2873  -21.6071  -51.3798 C.3       18 UNK        -0.1800 
    102 C         -4.8800  -21.9247  -53.3577 C.2       18 UNK         0.5000 
    103 O         -4.4819  -22.1484  -54.5019 O.2       18 UNK        -0.5000 
    104 N         -5.9277  -21.1403  -53.0727 N.am      19 UNK        -0.5000 
    105 CA        -6.8052  -20.4343  -54.0100 C.3       19 UNK         0.1400 
    106 CB        -7.7368  -21.4404  -54.7210 C.3       19 UNK        -0.1800 
    107 C         -6.0123  -19.5296  -54.9755 C.2       19 UNK         0.5000 
    108 O         -5.5506  -18.4658  -54.5635 O.2       19 UNK        -0.5000 
    109 N         -5.8312  -19.9753  -56.2263 N.am      20 UNK        -0.5000 
    110 CA        -5.0363  -19.3011  -57.2553 C.3       20 UNK         0.1400 
    111 CB        -5.1944  -20.0546  -58.5843 C.3       20 UNK        -0.1800 
    112 C         -3.5447  -19.1566  -56.8908 C.2       20 UNK         0.5000 
    113 O         -2.9082  -18.1957  -57.3268 O.2       20 UNK        -0.5000 
    114 N         -3.0193  -20.0766  -56.0662 N.am      21 UNK        -0.5000 
    115 CA        -1.6441  -20.0457  -55.5603 C.3       21 UNK         0.1400 
    116 CB        -1.2877  -21.4055  -54.9399 C.3       21 UNK        -0.1800 
    117 C         -1.3707  -18.8933  -54.5710 C.2       21 UNK         0.5000 
    118 O         -0.2027  -18.5899  -54.3250 O.2       21 UNK        -0.5000 
    119 N         -2.4274  -18.2501  -54.0512 N.am      22 UNK        -0.5000 
    120 CA        -2.3318  -17.0081  -53.2674 C.3       22 UNK         0.1400 
    121 C         -1.9489  -15.7536  -54.1098 C.2       22 UNK         0.5000 
    122 N         -1.9896  -15.7951  -55.4382 N.am      22 UNK        -0.7600 
    123 O         -1.6036  -14.7194  -53.5454 O.2       22 UNK        -0.5000 
    124 C124       -3.6144  -16.7211  -52.4409 C.3       23 UNK        -0.0398 
    125 S125       -4.1307  -18.0979  -51.3587 S.3       23 UNK        -0.2404 
    126 C126       -3.4026  -17.6135  -49.7625 C.3       23 UNK        -0.0205 
    127 H127       -2.8785  -15.3479  -47.6285 H         1 UNK         0.0600 
    128 H128       -3.8252  -13.9700  -47.0628 H         1 UNK         0.0600 
    129 H129       -2.5013  -14.5843  -46.0773 H         1 UNK         0.0600 
    130 H130       -0.2472  -14.3375  -46.9462 H         1 UNK         0.3000 
    131 H131        0.2709  -12.5477  -49.1467 H         1 UNK         0.0600 
    132 H132        2.5992  -12.8494  -48.6822 H         1 UNK         0.0800 
    133 H133        2.3243  -13.2802  -47.0207 H         1 UNK         0.0800 
    134 H134        0.5318  -14.5266  -50.2201 H         1 UNK         0.0800 
    135 H135        1.8706  -15.4793  -50.8021 H         1 UNK         0.0800 
    136 H136       -1.5737  -15.5866  -49.9194 H         1 UNK         0.1150 
    137 H137       -1.8733  -19.8506  -49.6399 H         1 UNK         0.1150 
    138 H138        1.9751  -17.9923  -49.9385 H         1 UNK         0.1150 
    139 H139        0.0415  -21.2270  -49.8635 H         1 UNK         0.0800 
    140 H140        1.5183  -20.5436  -50.5116 H         1 UNK         0.0800 
    141 H141        1.8064  -22.8845  -49.0309 H         1 UNK         0.0800 
    142 H142        2.8714  -22.6199  -47.6875 H         1 UNK         0.0800 
    143 H143        1.2955  -24.2263  -47.0127 H         1 UNK         0.0600 
    144 H144        1.1757  -21.7520  -45.5432 H         1 UNK         0.3000 
    145 H145       -0.1772  -23.4309  -42.6108 H         1 UNK         0.0600 
    146 H146        1.7805  -22.2209  -41.6695 H         1 UNK         0.0600 
    147 H147        2.2783  -23.6461  -42.5693 H         1 UNK         0.0600 
    148 H148        2.4741  -22.0524  -43.2797 H         1 UNK         0.0600 
    149 H149        0.3399  -20.6680  -43.1313 H         1 UNK         0.3000 
    150 H150       -2.9882  -19.8182  -44.1210 H         1 UNK         0.0600 
    151 H151       -3.0889  -20.0193  -41.6275 H         1 UNK         0.0600 
    152 H152       -2.8129  -18.3573  -42.1283 H         1 UNK         0.0600 
    153 H153       -1.4782  -19.3204  -41.4992 H         1 UNK         0.0600 
    154 H154       -0.7680  -18.1592  -43.5927 H         1 UNK         0.3000 
    155 H155        0.7769  -18.2976  -46.8326 H         1 UNK         0.0600 
    156 H156       -0.9520  -16.3287  -45.2739 H         1 UNK         0.0600 
    157 H157       -0.8438  -16.5772  -47.0087 H         1 UNK         0.0600 
    158 H158        0.4907  -15.8226  -46.1407 H         1 UNK         0.0600 
    159 H159        1.6691  -16.9642  -44.5653 H         1 UNK         0.3000 
    160 H160        3.5056  -19.5379  -42.9120 H         1 UNK         0.0600 
    161 H161        4.3207  -17.0914  -44.5688 H         1 UNK         0.0600 
    162 H162        4.9933  -18.7084  -44.6922 H         1 UNK         0.0600 
    163 H163        5.2516  -17.7668  -43.2310 H         1 UNK         0.0600 
    164 H164        2.9300  -16.7149  -42.4971 H         1 UNK         0.3000 
    165 H165        0.2258  -17.2510  -40.2386 H         1 UNK         0.0600 
    166 H166        1.6806  -15.9206  -38.7358 H         1 UNK         0.0600 
    167 H167        2.2638  -17.5745  -38.8309 H         1 UNK         0.0600 
    168 H168        3.0958  -16.3024  -39.7172 H         1 UNK         0.0600 
    169 H169        1.6120  -14.8994  -41.1248 H         1 UNK         0.3000 
    170 H170       -0.2751  -14.3354  -44.0741 H         1 UNK         0.0600 
    171 H171       -1.8643  -13.5699  -42.3092 H         1 UNK         0.0600 
    172 H172       -0.5267  -12.8971  -41.3844 H         1 UNK         0.0600 
    173 H173       -0.9363  -12.2303  -42.9643 H         1 UNK         0.0600 
    174 H174        1.5276  -12.6070  -42.8086 H         1 UNK         0.3000 
    175 H175        4.1395  -13.1647  -42.8780 H         1 UNK         0.0600 
    176 H176        4.4824  -14.0205  -45.8079 H         1 UNK         0.0600 
    177 H177        5.7218  -13.2299  -44.8350 H         1 UNK         0.0600 
    178 H178        5.1569  -14.8321  -44.3987 H         1 UNK         0.0600 
    179 H179        2.6461  -11.8707  -45.0573 H         1 UNK         0.3000 
    180 H180        3.3916   -8.7059  -43.9141 H         1 UNK         0.0600 
    181 H181        4.5088   -9.7278  -46.5828 H         1 UNK         0.0600 
    182 H182        5.4216   -8.8417  -45.3663 H         1 UNK         0.0600 
    183 H183        4.0966   -8.0543  -46.2084 H         1 UNK         0.0600 
    184 H184        2.0742   -9.7204  -46.2951 H         1 UNK         0.3000 
    185 H185       -1.0885  -10.2445  -44.7153 H         1 UNK         0.0600 
    186 H186       -0.9416   -7.9145  -45.4928 H         1 UNK         0.0600 
    187 H187       -0.0119   -8.3915  -46.9035 H         1 UNK         0.0600 
    188 H188       -1.6846   -8.9182  -46.7284 H         1 UNK         0.0600 
    189 H189       -0.7490  -11.9573  -46.0318 H         1 UNK         0.3000 
    190 H190       -1.2344  -21.7043  -46.7404 H         1 UNK         0.3000 
    191 H191       -2.9544  -22.7985  -48.7283 H         1 UNK         0.0600 
    192 H192       -3.6426  -21.1991  -46.2132 H         1 UNK         0.0600 
    193 H193       -4.7268  -21.4896  -47.5705 H         1 UNK         0.0600 
    194 H194       -3.2773  -20.5284  -47.8022 H         1 UNK         0.0600 
    195 H195       -2.5367  -23.6434  -45.2726 H         1 UNK         0.3000 
    196 H196       -4.6981  -25.5453  -45.2090 H         1 UNK         0.0600 
    197 H197       -3.6475  -26.2217  -43.0430 H         1 UNK         0.0600 
    198 H198       -3.8470  -24.4800  -43.1517 H         1 UNK         0.0600 
    199 H199       -2.2567  -25.2012  -43.3907 H         1 UNK         0.0600 
    200 H200       -1.2222  -25.7847  -45.9777 H         1 UNK         0.3000 
    201 H201       -1.1251  -28.6522  -46.1352 H         1 UNK         0.0600 
    202 H202        0.8947  -27.2333  -45.7832 H         1 UNK         0.0600 
    203 H203        0.7075  -26.5441  -47.3949 H         1 UNK         0.0600 
    204 H204        1.0752  -28.2525  -47.2039 H         1 UNK         0.0600 
    205 H205       -1.6163  -26.0719  -48.5627 H         1 UNK         0.3000 
    206 H206       -1.9988  -27.8701  -50.8163 H         1 UNK         0.0600 
    207 H207       -1.0845  -25.5345  -51.0296 H         1 UNK         0.0600 
    208 H208       -2.5409  -25.7291  -51.9853 H         1 UNK         0.0600 
    209 H209       -2.6095  -24.8810  -50.4426 H         1 UNK         0.0600 
    210 H210       -4.0965  -27.4037  -52.1617 H         1 UNK         0.3000 
    211 H211       -6.4896  -28.0929  -50.6128 H         1 UNK         0.0600 
    212 H212       -6.0279  -27.6738  -53.6140 H         1 UNK         0.0600 
    213 H213       -7.5034  -28.2885  -52.8772 H         1 UNK         0.0600 
    214 H214       -6.0195  -29.2207  -52.7681 H         1 UNK         0.0600 
    215 H215       -5.9805  -25.9365  -49.4522 H         1 UNK         0.3000 
    216 H216       -6.6670  -23.9634  -48.7460 H         1 UNK         0.0600 
    217 H217       -8.7044  -22.8842  -49.5333 H         1 UNK         0.0600 
    218 H218       -8.9805  -24.6163  -49.4709 H         1 UNK         0.0600 
    219 H219       -8.7056  -23.8170  -51.0196 H         1 UNK         0.0600 
    220 H220       -4.9287  -24.3823  -51.3709 H         1 UNK         0.3000 
    221 H221       -3.4787  -23.3230  -52.6212 H         1 UNK         0.0600 
    222 H222       -3.8633  -21.0334  -50.6549 H         1 UNK         0.0600 
    223 H223       -2.4967  -22.1302  -50.8437 H         1 UNK         0.0600 
    224 H224       -2.7980  -20.8880  -52.0375 H         1 UNK         0.0600 
    225 H225       -6.1592  -21.0405  -52.0875 H         1 UNK         0.3000 
    226 H226       -7.4301  -19.7706  -53.4109 H         1 UNK         0.0600 
    227 H227       -8.3617  -21.9646  -53.9977 H         1 UNK         0.0600 
    228 H228       -8.4072  -20.9330  -55.4160 H         1 UNK         0.0600 
    229 H229       -7.1839  -22.1958  -55.2804 H         1 UNK         0.0600 
    230 H230       -6.2103  -20.8791  -56.4686 H         1 UNK         0.3000 
    231 H231       -5.4407  -18.2947  -57.3812 H         1 UNK         0.0600 
    232 H232       -4.6343  -19.5632  -59.3810 H         1 UNK         0.0600 
    233 H233       -6.2382  -20.0897  -58.8968 H         1 UNK         0.0600 
    234 H234       -4.8299  -21.0801  -58.5106 H         1 UNK         0.0600 
    235 H235       -3.6152  -20.8204  -55.7139 H         1 UNK         0.3000 
    236 H236       -0.9834  -19.8913  -56.4160 H         1 UNK         0.0600 
    237 H237       -1.4526  -22.2187  -55.6468 H         1 UNK         0.0600 
    238 H238       -0.2373  -21.4366  -54.6479 H         1 UNK         0.0600 
    239 H239       -1.8771  -21.6114  -54.0489 H         1 UNK         0.0600 
    240 H240       -3.3646  -18.5473  -54.2931 H         1 UNK         0.3000 
    241 H241       -1.5126  -17.1458  -52.5614 H         1 UNK         0.0600 
    242 H242       -1.7351  -14.9740  -55.9642 H         1 UNK         0.3800 
    243 H243       -2.2723  -16.6338  -55.9291 H         1 UNK         0.3800 
    244 H244       -3.4818  -15.8278  -51.8283 H         1 UNK         0.0800 
    245 H245       -4.4468  -16.4989  -53.1102 H         1 UNK         0.0800 
    246 H246       -3.7292  -16.6057  -49.5041 H         1 UNK         0.0800 
    247 H247       -3.7910  -18.2707  -48.9833 H         1 UNK         0.0800 
@<TRIPOS>BOND
     1    1    2 1    
     2    1  127 1    
     3    1  128 1    
     4    1  129 1    
     5    2    3 2    
     6    2    4 am   BACKBONE|DICT|INTERRES
     7    4    5 1    
     8    4  130 1    
     9    5    6 1    
    10    5   65 1    
    11    5  131 1    
    12    6    7 1    
    13    6  132 1    
    14    6  133 1    
    15    7    8 1    
    16    8    9 1    
    17    8  134 1    
    18    8  135 1    
    19    9   10 ar   
    20    9   14 ar   
    21   10   11 ar   
    22   10  136 1    
    23   11   12 ar   
    24   11  126 1    
    25   12   13 ar   
    26   12  137 1    
    27   13   14 ar   
    28   13   15 1    
    29   14  138 1    
    30   15   16 1    
    31   15  139 1    
    32   15  140 1    
    33   16   17 1    
    34   17   18 1    
    35   17  141 1    
    36   17  142 1    
    37   18   19 1    
    38   18   67 1    
    39   18  143 1    
    40   19   20 am   BACKBONE|DICT|INTERRES
    41   19  144 1    
    42   20   21 2    
    43   20   22 1    
    44   22   23 1    
    45   22   24 1    
    46   22  145 1    
    47   23  146 1    
    48   23  147 1    
    49   23  148 1    
    50   24   25 am   BACKBONE|DICT|INTERRES
    51   24  149 1    
    52   25   26 2    
    53   25   27 1    
    54   27   28 1    
    55   27   29 1    
    56   27  150 1    
    57   28  151 1    
    58   28  152 1    
    59   28  153 1    
    60   29   30 am   BACKBONE|DICT|INTERRES
    61   29  154 1    
    62   30   31 2    
    63   30   32 1    
    64   32   33 1    
    65   32   34 1    
    66   32  155 1    
    67   33  156 1    
    68   33  157 1    
    69   33  158 1    
    70   34   35 am   BACKBONE|DICT|INTERRES
    71   34  159 1    
    72   35   36 2    
    73   35   37 1    
    74   37   38 1    
    75   37   39 1    
    76   37  160 1    
    77   38  161 1    
    78   38  162 1    
    79   38  163 1    
    80   39   40 am   BACKBONE|DICT|INTERRES
    81   39  164 1    
    82   40   41 2    
    83   40   42 1    
    84   42   43 1    
    85   42   44 1    
    86   42  165 1    
    87   43  166 1    
    88   43  167 1    
    89   43  168 1    
    90   44   45 am   BACKBONE|DICT|INTERRES
    91   44  169 1    
    92   45   46 2    
    93   45   47 1    
    94   47   48 1    
    95   47   49 1    
    96   47  170 1    
    97   48  171 1    
    98   48  172 1    
    99   48  173 1    
   100   49   50 am   BACKBONE|DICT|INTERRES
   101   49  174 1    
   102   50   51 2    
   103   50   52 1    
   104   52   53 1    
   105   52   54 1    
   106   52  175 1    
   107   53  176 1    
   108   53  177 1    
   109   53  178 1    
   110   54   55 am   BACKBONE|DICT|INTERRES
   111   54  179 1    
   112   55   56 2    
   113   55   57 1    
   114   57   58 1    
   115   57   59 1    
   116   57  180 1    
   117   58  181 1    
   118   58  182 1    
   119   58  183 1    
   120   59   60 am   BACKBONE|DICT|INTERRES
   121   59  184 1    
   122   60   61 2    
   123   60   62 1    
   124   62   63 1    
   125   62   64 1    
   126   62  185 1    
   127   63  186 1    
   128   63  187 1    
   129   63  188 1    
   130   64   65 am   BACKBONE|DICT|INTERRES
   131   64  189 1    
   132   65   66 2    
   133   67   68 2    
   134   67   69 am   BACKBONE|DICT|INTERRES
   135   69   70 1    
   136   69  190 1    
   137   70   71 1    
   138   70   72 1    
   139   70  191 1    
   140   71  192 1    
   141   71  193 1    
   142   71  194 1    
   143   72   73 2    
   144   72   74 am   BACKBONE|DICT|INTERRES
   145   74   75 1    
   146   74  195 1    
   147   75   76 1    
   148   75   77 1    
   149   75  196 1    
   150   76  197 1    
   151   76  198 1    
   152   76  199 1    
   153   77   78 2    
   154   77   79 am   BACKBONE|DICT|INTERRES
   155   79   80 1    
   156   79  200 1    
   157   80   81 1    
   158   80   82 1    
   159   80  201 1    
   160   81  202 1    
   161   81  203 1    
   162   81  204 1    
   163   82   83 2    
   164   82   84 am   BACKBONE|DICT|INTERRES
   165   84   85 1    
   166   84  205 1    
   167   85   86 1    
   168   85   87 1    
   169   85  206 1    
   170   86  207 1    
   171   86  208 1    
   172   86  209 1    
   173   87   88 2    
   174   87   89 am   BACKBONE|DICT|INTERRES
   175   89   90 1    
   176   89  210 1    
   177   90   91 1    
   178   90   92 1    
   179   90  211 1    
   180   91  212 1    
   181   91  213 1    
   182   91  214 1    
   183   92   93 2    
   184   92   94 am   BACKBONE|DICT|INTERRES
   185   94   95 1    
   186   94  215 1    
   187   95   96 1    
   188   95   97 1    
   189   95  216 1    
   190   96  217 1    
   191   96  218 1    
   192   96  219 1    
   193   97   98 2    
   194   97   99 am   BACKBONE|DICT|INTERRES
   195   99  100 1    
   196   99  220 1    
   197  100  101 1    
   198  100  102 1    
   199  100  221 1    
   200  101  222 1    
   201  101  223 1    
   202  101  224 1    
   203  102  103 2    
   204  102  104 am   BACKBONE|DICT|INTERRES
   205  104  105 1    
   206  104  225 1    
   207  105  106 1    
   208  105  107 1    
   209  105  226 1    
   210  106  227 1    
   211  106  228 1    
   212  106  229 1    
   213  107  108 2    
   214  107  109 am   BACKBONE|DICT|INTERRES
   215  109  110 1    
   216  109  230 1    
   217  110  111 1    
   218  110  112 1    
   219  110  231 1    
   220  111  232 1    
   221  111  233 1    
   222  111  234 1    
   223  112  113 2    
   224  112  114 am   BACKBONE|DICT|INTERRES
   225  114  115 1    
   226  114  235 1    
   227  115  116 1    
   228  115  117 1    
   229  115  236 1    
   230  116  237 1    
   231  116  238 1    
   232  116  239 1    
   233  117  118 2    
   234  117  119 am   BACKBONE|DICT|INTERRES
   235  119  120 1    
   236  119  240 1    
   237  120  121 1    
   238  120  124 1    
   239  120  241 1    
   240  121  122 am   BACKBONE|DICT|INTERRES
   241  121  123 2    
   242  122  242 1    
   243  122  243 1    
   244  124  125 1    
   245  124  244 1    
   246  124  245 1    
   247  125  126 1    
   248  126  246 1    
   249  126  247 1    
@<TRIPOS>SUBSTRUCTURE
     1 UNK         1 GROUP             0       ****    0 ROOT    
