@<TRIPOS>MOLECULE
3R540
247   249    1
SMALL
USER_CHARGES


@<TRIPOS>ATOM
      1 CA          2.9309  -10.6109  -49.1474 C.3       0 UNK        -0.1800 
      2 C           2.7790  -11.8831  -48.3271 C.2       0 UNK         0.5000 
      3 O           2.9514  -11.8489  -47.1061 O.2       0 UNK        -0.5000 
      4 N           2.4422  -13.0029  -48.9840 N.am      1 UNK        -0.5000 
      5 CA          2.2391  -14.3289  -48.3849 C.3       1 UNK         0.1400 
      6 C6          2.3892  -15.4572  -49.4414 C.3       23 UNK        -0.0398 
      7 S7          2.7019  -17.0958  -48.6879 S.3       23 UNK        -0.2404 
      8 C8          2.3569  -18.2413  -50.0759 C.3       23 UNK        -0.0205 
      9 C9          0.9413  -18.1813  -50.6555 C.ar      23 UNK        -0.0193 
     10 C10         0.7283  -18.5768  -51.9805 C.ar      23 UNK        -0.1150 
     11 C11        -0.5453  -18.5035  -52.5546 C.ar      23 UNK        -0.0193 
     12 C12        -1.6162  -18.0268  -51.7914 C.ar      23 UNK        -0.1150 
     13 C13        -1.4183  -17.6150  -50.4709 C.ar      23 UNK        -0.0193 
     14 C14        -0.1478  -17.7286  -49.9042 C.ar      23 UNK        -0.1150 
     15 C15        -2.5477  -16.9640  -49.6839 C.3       23 UNK        -0.0205 
     16 S16        -3.5145  -18.1447  -48.7001 S.3       23 UNK        -0.2404 
     17 C17        -2.3617  -18.6123  -47.3661 C.3       23 UNK        -0.0398 
     18 CA         -1.8675  -20.0743  -47.4947 C.3       11 UNK         0.1400 
     19 N          -0.7114  -20.3356  -46.6308 N.am      11 UNK        -0.5000 
     20 C          -0.0340  -21.4914  -46.5897 C.2       10 UNK         0.5000 
     21 O          -0.2619  -22.4402  -47.3367 O.2       10 UNK        -0.5000 
     22 CA          1.0340  -21.6471  -45.4926 C.3       10 UNK         0.1400 
     23 CB          2.3671  -21.0222  -45.9286 C.3       10 UNK        -0.1800 
     24 N           0.6019  -21.0948  -44.2076 N.am      10 UNK        -0.5000 
     25 C          -0.4241  -21.5745  -43.4885 C.2       9 UNK         0.5000 
     26 O          -1.0641  -22.5774  -43.8033 O.2       9 UNK        -0.5000 
     27 CA         -0.8429  -20.7819  -42.2369 C.3       9 UNK         0.1400 
     28 CB          0.0145  -21.1772  -41.0263 C.3       9 UNK        -0.1800 
     29 N          -0.7849  -19.3338  -42.4411 N.am      9 UNK        -0.5000 
     30 C          -1.5515  -18.6607  -43.3119 C.2       8 UNK         0.5000 
     31 O          -2.4399  -19.1879  -43.9822 O.2       8 UNK        -0.5000 
     32 CA         -1.2275  -17.1666  -43.5167 C.3       8 UNK         0.1400 
     33 CB         -1.8574  -16.3012  -42.4163 C.3       8 UNK        -0.1800 
     34 N           0.2136  -16.9168  -43.5722 N.am      8 UNK        -0.5000 
     35 C           1.0232  -17.3957  -44.5269 C.2       7 UNK         0.5000 
     36 O           0.6193  -18.0163  -45.5090 O.2       7 UNK        -0.5000 
     37 CA          2.5357  -17.2099  -44.3129 C.3       7 UNK         0.1400 
     38 CB          3.0081  -15.8382  -44.8072 C.3       7 UNK        -0.1800 
     39 N           2.9075  -17.3760  -42.9091 N.am      7 UNK        -0.5000 
     40 C           2.9795  -18.5599  -42.2863 C.2       6 UNK         0.5000 
     41 O           2.7649  -19.6347  -42.8439 O.2       6 UNK        -0.5000 
     42 CA          3.3155  -18.5377  -40.7832 C.3       6 UNK         0.1400 
     43 CB          4.8365  -18.5542  -40.5717 C.3       6 UNK        -0.1800 
     44 N           2.7452  -17.3800  -40.0932 N.am      6 UNK        -0.5000 
     45 C           1.4326  -17.1737  -39.9155 C.2       5 UNK         0.5000 
     46 O           0.5629  -17.9664  -40.2732 O.2       5 UNK        -0.5000 
     47 CA          1.0240  -15.8268  -39.2898 C.3       5 UNK         0.1400 
     48 CB          1.0128  -15.9240  -37.7572 C.3       5 UNK        -0.1800 
     49 N           1.8855  -14.7137  -39.7028 N.am      5 UNK        -0.5000 
     50 C           2.0291  -14.2963  -40.9671 C.2       4 UNK         0.5000 
     51 O           1.4631  -14.8227  -41.9291 O.2       4 UNK        -0.5000 
     52 CA          3.0223  -13.1512  -41.2035 C.3       4 UNK         0.1400 
     53 CB          4.4268  -13.7194  -41.4624 C.3       4 UNK        -0.1800 
     54 N           2.5999  -12.3925  -42.3759 N.am      4 UNK        -0.5000 
     55 C           2.1293  -11.1408  -42.3612 C.2       3 UNK         0.5000 
     56 O           2.1008  -10.4293  -41.3558 O.2       3 UNK        -0.5000 
     57 CA          1.5907  -10.5840  -43.6947 C.3       3 UNK         0.1400 
     58 CB          2.6516   -9.7050  -44.3753 C.3       3 UNK        -0.1800 
     59 N           1.1532  -11.6128  -44.6442 N.am      3 UNK        -0.5000 
     60 C           0.0857  -12.4124  -44.4682 C.2       2 UNK         0.5000 
     61 O          -0.6214  -12.3798  -43.4610 O.2       2 UNK        -0.5000 
     62 CA         -0.2741  -13.3992  -45.5954 C.3       2 UNK         0.1400 
     63 CB         -1.5344  -12.9003  -46.3339 C.3       2 UNK        -0.1800 
     64 N           0.8464  -13.5813  -46.5196 N.am      2 UNK        -0.5000 
     65 C           0.9126  -14.3871  -47.5824 C.2       1 UNK         0.5000 
     66 O          -0.0115  -15.1124  -47.9421 O.2       1 UNK        -0.5000 
     67 C          -3.0151  -21.0768  -47.2328 C.2       11 UNK         0.5000 
     68 O          -3.5857  -21.6233  -48.1783 O.2       11 UNK        -0.5000 
     69 N          -3.3196  -21.3109  -45.9506 N.am      12 UNK        -0.5000 
     70 CA         -4.3498  -22.2447  -45.5137 C.3       12 UNK         0.1400 
     71 CB         -4.6449  -22.0215  -44.0214 C.3       12 UNK        -0.1800 
     72 C          -3.9825  -23.7108  -45.8063 C.2       12 UNK         0.5000 
     73 O          -4.6971  -24.3740  -46.5593 O.2       12 UNK        -0.5000 
     74 N          -2.8960  -24.1918  -45.1908 N.am      13 UNK        -0.5000 
     75 CA         -2.5490  -25.6090  -45.1341 C.3       13 UNK         0.1400 
     76 CB         -1.8630  -25.9089  -43.7908 C.3       13 UNK        -0.1800 
     77 C          -1.6704  -26.0631  -46.3080 C.2       13 UNK         0.5000 
     78 O          -2.0404  -27.0090  -47.0032 O.2       13 UNK        -0.5000 
     79 N          -0.5126  -25.4129  -46.4913 N.am      14 UNK        -0.5000 
     80 CA          0.5286  -25.8464  -47.4305 C.3       14 UNK         0.1400 
     81 CB          1.8554  -25.1374  -47.1147 C.3       14 UNK        -0.1800 
     82 C           0.1300  -25.6503  -48.9028 C.2       14 UNK         0.5000 
     83 O           0.3292  -26.5552  -49.7141 O.2       14 UNK        -0.5000 
     84 N          -0.4558  -24.4870  -49.2110 N.am      15 UNK        -0.5000 
     85 CA         -1.0245  -24.1659  -50.5202 C.3       15 UNK         0.1400 
     86 CB         -1.1276  -22.6392  -50.6690 C.3       15 UNK        -0.1800 
     87 C          -2.3950  -24.8332  -50.7486 C.2       15 UNK         0.5000 
     88 O          -2.8285  -24.9143  -51.8954 O.2       15 UNK        -0.5000 
     89 N          -3.0388  -25.3034  -49.6686 N.am      16 UNK        -0.5000 
     90 CA         -4.3533  -25.9480  -49.6182 C.3       16 UNK         0.1400 
     91 CB         -4.3450  -27.2883  -50.3827 C.3       16 UNK        -0.1800 
     92 C          -5.4606  -24.9887  -50.0922 C.2       16 UNK         0.5000 
     93 O          -5.9309  -25.0891  -51.2271 O.2       16 UNK        -0.5000 
     94 N          -5.8223  -24.0510  -49.2061 N.am      17 UNK        -0.5000 
     95 CA         -6.8116  -22.9856  -49.3975 C.3       17 UNK         0.1400 
     96 CB         -8.2326  -23.5716  -49.5307 C.3       17 UNK        -0.1800 
     97 C          -6.4308  -22.0446  -50.5579 C.2       17 UNK         0.5000 
     98 O          -7.1771  -21.9049  -51.5300 O.2       17 UNK        -0.5000 
     99 N          -5.2413  -21.4402  -50.4340 N.am      18 UNK        -0.5000 
    100 CA        -4.6387  -20.4532  -51.3362 C.3       18 UNK         0.1400 
    101 CB        -5.5192  -19.1861  -51.4173 C.3       18 UNK        -0.1800 
    102 C         -4.3046  -20.9865  -52.7415 C.2       18 UNK         0.5000 
    103 O         -4.0654  -20.1786  -53.6379 O.2       18 UNK        -0.5000 
    104 N         -4.3242  -22.3141  -52.9342 N.am      19 UNK        -0.5000 
    105 CA        -4.1347  -23.0216  -54.2069 C.3       19 UNK         0.1400 
    106 CB        -2.6574  -22.9501  -54.6483 C.3       19 UNK        -0.1800 
    107 C         -5.1130  -22.5497  -55.3059 C.2       19 UNK         0.5000 
    108 O         -4.7200  -22.4183  -56.4666 O.2       19 UNK        -0.5000 
    109 N         -6.3598  -22.2547  -54.9020 N.am      20 UNK        -0.5000 
    110 CA        -7.4294  -21.6638  -55.7160 C.3       20 UNK         0.1400 
    111 CB        -7.9219  -22.6656  -56.7815 C.3       20 UNK        -0.1800 
    112 C         -7.0296  -20.2919  -56.3062 C.2       20 UNK         0.5000 
    113 O         -7.2488  -20.0376  -57.4917 O.2       20 UNK        -0.5000 
    114 N         -6.4317  -19.4485  -55.4511 N.am      21 UNK        -0.5000 
    115 CA        -5.8324  -18.1434  -55.7489 C.3       21 UNK         0.1400 
    116 CB        -6.8794  -17.1428  -56.2837 C.3       21 UNK        -0.1800 
    117 C         -4.5835  -18.2757  -56.6447 C.2       21 UNK         0.5000 
    118 O         -4.4692  -17.5953  -57.6664 O.2       21 UNK        -0.5000 
    119 N         -3.6662  -19.1509  -56.2156 N.am      22 UNK        -0.5000 
    120 CA        -2.3569  -19.4268  -56.8276 C.3       22 UNK         0.1400 
    121 C         -2.4455  -20.0243  -58.2636 C.2       22 UNK         0.5000 
    122 N         -3.3558  -20.9567  -58.5135 N.am      22 UNK        -0.7600 
    123 O         -1.6837  -19.6609  -59.1565 O.2       22 UNK        -0.5000 
    124 C124       -1.3637  -18.2329  -56.7145 C.3       23 UNK        -0.0398 
    125 S125       -1.2109  -17.4931  -55.0466 S.3       23 UNK        -0.2404 
    126 C126       -0.7643  -18.9197  -54.0027 C.3       23 UNK        -0.0205 
    127 H127        2.7419  -10.7858  -50.2068 H         1 UNK         0.0600 
    128 H128        3.9415  -10.2165  -49.0420 H         1 UNK         0.0600 
    129 H129        2.2300   -9.8536  -48.7963 H         1 UNK         0.0600 
    130 H130        2.2812  -12.9498  -49.9799 H         1 UNK         0.3000 
    131 H131        3.0525  -14.4601  -47.6699 H         1 UNK         0.0600 
    132 H132        1.5172  -15.4938  -50.0954 H         1 UNK         0.0800 
    133 H133        3.2391  -15.2444  -50.0913 H         1 UNK         0.0800 
    134 H134        3.0849  -18.0441  -50.8643 H         1 UNK         0.0800 
    135 H135        2.5413  -19.2600  -49.7328 H         1 UNK         0.0800 
    136 H136        1.5610  -18.9319  -52.5713 H         1 UNK         0.1150 
    137 H137       -2.5949  -17.9431  -52.2425 H         1 UNK         0.1150 
    138 H138        0.0017  -17.4190  -48.8824 H         1 UNK         0.1150 
    139 H139       -2.1546  -16.1848  -49.0301 H         1 UNK         0.0800 
    140 H140       -3.2246  -16.4575  -50.3735 H         1 UNK         0.0800 
    141 H141       -2.8697  -18.4529  -46.4151 H         1 UNK         0.0800 
    142 H142       -1.5191  -17.9218  -47.3570 H         1 UNK         0.0800 
    143 H143       -1.5254  -20.2254  -48.5207 H         1 UNK         0.0600 
    144 H144       -0.4095  -19.5767  -46.0265 H         1 UNK         0.3000 
    145 H145        1.2019  -22.7152  -45.3438 H         1 UNK         0.0600 
    146 H146        3.1361  -21.1601  -45.1686 H         1 UNK         0.0600 
    147 H147        2.7301  -21.4870  -46.8461 H         1 UNK         0.0600 
    148 H148        2.2732  -19.9546  -46.1226 H         1 UNK         0.0600 
    149 H149        1.1320  -20.3099  -43.8455 H         1 UNK         0.3000 
    150 H150       -1.8793  -21.0430  -42.0134 H         1 UNK         0.0600 
    151 H151       -0.0488  -22.2496  -40.8379 H         1 UNK         0.0600 
    152 H152       -0.3207  -20.6679  -40.1227 H         1 UNK         0.0600 
    153 H153        1.0654  -20.9328  -41.1780 H         1 UNK         0.0600 
    154 H154       -0.1241  -18.8183  -41.8670 H         1 UNK         0.3000 
    155 H155       -1.6557  -16.8616  -44.4739 H         1 UNK         0.0600 
    156 H156       -1.6541  -15.2428  -42.5827 H         1 UNK         0.0600 
    157 H157       -1.4774  -16.5630  -41.4290 H         1 UNK         0.0600 
    158 H158       -2.9405  -16.4269  -42.3950 H         1 UNK         0.0600 
    159 H159        0.6181  -16.3658  -42.8213 H         1 UNK         0.3000 
    160 H160        3.0554  -17.9710  -44.8986 H         1 UNK         0.0600 
    161 H161        2.4457  -15.0196  -44.3590 H         1 UNK         0.0600 
    162 H162        2.8824  -15.7763  -45.8844 H         1 UNK         0.0600 
    163 H163        4.0660  -15.6802  -44.5973 H         1 UNK         0.0600 
    164 H164        3.0274  -16.5324  -42.3684 H         1 UNK         0.3000 
    165 H165        2.8978  -19.4413  -40.3345 H         1 UNK         0.0600 
    166 H166        5.0867  -18.6134  -39.5123 H         1 UNK         0.0600 
    167 H167        5.2886  -19.4186  -41.0600 H         1 UNK         0.0600 
    168 H168        5.3108  -17.6608  -40.9801 H         1 UNK         0.0600 
    169 H169        3.3918  -16.6785  -39.7643 H         1 UNK         0.3000 
    170 H170        0.0090  -15.6034  -39.6248 H         1 UNK         0.0600 
    171 H171        0.3629  -16.7337  -37.4225 H         1 UNK         0.0600 
    172 H172        2.0093  -16.1161  -37.3574 H         1 UNK         0.0600 
    173 H173        0.6410  -15.0038  -37.3063 H         1 UNK         0.0600 
    174 H174        2.3932  -14.2418  -38.9682 H         1 UNK         0.3000 
    175 H175        3.0524  -12.5177  -40.3147 H         1 UNK         0.0600 
    176 H176        4.4446  -14.3783  -42.3313 H         1 UNK         0.0600 
    177 H177        5.1460  -12.9191  -41.6375 H         1 UNK         0.0600 
    178 H178        4.7835  -14.2931  -40.6061 H         1 UNK         0.0600 
    179 H179        2.5079  -12.9219  -43.2300 H         1 UNK         0.3000 
    180 H180        0.7286   -9.9561  -43.4600 H         1 UNK         0.0600 
    181 H181        3.5333  -10.2838  -44.6539 H         1 UNK         0.0600 
    182 H182        2.9801   -8.9027  -43.7134 H         1 UNK         0.0600 
    183 H183        2.2583   -9.2392  -45.2792 H         1 UNK         0.0600 
    184 H184        1.6779  -11.6445  -45.5093 H         1 UNK         0.3000 
    185 H185       -0.4898  -14.3627  -45.1296 H         1 UNK         0.0600 
    186 H186       -2.3366  -12.6684  -45.6320 H         1 UNK         0.0600 
    187 H187       -1.3287  -11.9959  -46.9075 H         1 UNK         0.0600 
    188 H188       -1.9284  -13.6502  -47.0189 H         1 UNK         0.0600 
    189 H189        1.6621  -13.0000  -46.3608 H         1 UNK         0.3000 
    190 H190       -2.8266  -20.7968  -45.2283 H         1 UNK         0.3000 
    191 H191       -5.2637  -22.0186  -46.0673 H         1 UNK         0.0600 
    192 H192       -5.0026  -21.0076  -43.8406 H         1 UNK         0.0600 
    193 H193       -5.4167  -22.7068  -43.6690 H         1 UNK         0.0600 
    194 H194       -3.7611  -22.1749  -43.4020 H         1 UNK         0.0600 
    195 H195       -2.3154  -23.5596  -44.6414 H         1 UNK         0.3000 
    196 H196       -3.4674  -26.1999  -45.1647 H         1 UNK         0.0600 
    197 H197       -1.6060  -26.9659  -43.7104 H         1 UNK         0.0600 
    198 H198       -2.5194  -25.6700  -42.9539 H         1 UNK         0.0600 
    199 H199       -0.9432  -25.3368  -43.6647 H         1 UNK         0.0600 
    200 H200       -0.3123  -24.6032  -45.9230 H         1 UNK         0.3000 
    201 H201        0.6854  -26.9160  -47.2745 H         1 UNK         0.0600 
    202 H202        2.1402  -25.2734  -46.0714 H         1 UNK         0.0600 
    203 H203        1.8066  -24.0679  -47.3156 H         1 UNK         0.0600 
    204 H204        2.6624  -25.5422  -47.7265 H         1 UNK         0.0600 
    205 H205       -0.5230  -23.7688  -48.4896 H         1 UNK         0.3000 
    206 H206       -0.3477  -24.5333  -51.2943 H         1 UNK         0.0600 
    207 H207       -0.1593  -22.1593  -50.5255 H         1 UNK         0.0600 
    208 H208       -1.4835  -22.3634  -51.6621 H         1 UNK         0.0600 
    209 H209       -1.8202  -22.2141  -49.9458 H         1 UNK         0.0600 
    210 H210       -2.5794  -25.1908  -48.7765 H         1 UNK         0.3000 
    211 H211       -4.5471  -26.1797  -48.5700 H         1 UNK         0.0600 
    212 H212       -4.1668  -27.1555  -51.4500 H         1 UNK         0.0600 
    213 H213       -5.3022  -27.7995  -50.2750 H         1 UNK         0.0600 
    214 H214       -3.5741  -27.9545  -49.9952 H         1 UNK         0.0600 
    215 H215       -5.3616  -24.0603  -48.2983 H         1 UNK         0.3000 
    216 H216       -6.7908  -22.3808  -48.4895 H         1 UNK         0.0600 
    217 H217       -8.9772  -22.7763  -49.5788 H         1 UNK         0.0600 
    218 H218       -8.4816  -24.1982  -48.6743 H         1 UNK         0.0600 
    219 H219       -8.3436  -24.1757  -50.4316 H         1 UNK         0.0600 
    220 H220       -4.6893  -21.6374  -49.5988 H         1 UNK         0.3000 
    221 H221       -3.6852  -20.1772  -50.8849 H         1 UNK         0.0600 
    222 H222       -5.8213  -18.8464  -50.4272 H         1 UNK         0.0600 
    223 H223       -4.9814  -18.3640  -51.8902 H         1 UNK         0.0600 
    224 H224       -6.4258  -19.3576  -51.9981 H         1 UNK         0.0600 
    225 H225       -4.5471  -22.9052  -52.1447 H         1 UNK         0.3000 
    226 H226       -4.3758  -24.0687  -54.0189 H         1 UNK         0.0600 
    227 H227       -1.9975  -23.3727  -53.8922 H         1 UNK         0.0600 
    228 H228       -2.4907  -23.5124  -55.5677 H         1 UNK         0.0600 
    229 H229       -2.3389  -21.9254  -54.8251 H         1 UNK         0.0600 
    230 H230       -6.5738  -22.3727  -53.9193 H         1 UNK         0.3000 
    231 H231       -8.2613  -21.4721  -55.0367 H         1 UNK         0.0600 
    232 H232       -7.1569  -22.8727  -57.5303 H         1 UNK         0.0600 
    233 H233       -8.7956  -22.2780  -57.3065 H         1 UNK         0.0600 
    234 H234       -8.2113  -23.6131  -56.3271 H         1 UNK         0.0600 
    235 H235       -6.2433  -19.7944  -54.5206 H         1 UNK         0.3000 
    236 H236       -5.4755  -17.7539  -54.7940 H         1 UNK         0.0600 
    237 H237       -7.7375  -17.0751  -55.6151 H         1 UNK         0.0600 
    238 H238       -6.4515  -16.1430  -56.3648 H         1 UNK         0.0600 
    239 H239       -7.2444  -17.4190  -57.2729 H         1 UNK         0.0600 
    240 H240       -3.8485  -19.6353  -55.3386 H         1 UNK         0.3000 
    241 H241       -1.9260  -20.2375  -56.2449 H         1 UNK         0.0600 
    242 H242       -3.4212  -21.3490  -59.4387 H         1 UNK         0.3800 
    243 H243       -3.9448  -21.3277  -57.7703 H         1 UNK         0.3800 
    244 H244       -0.3672  -18.5438  -57.0324 H         1 UNK         0.0800 
    245 H245       -1.6614  -17.4373  -57.3992 H         1 UNK         0.0800 
    246 H246       -1.5569  -19.6652  -54.0302 H         1 UNK         0.0800 
    247 H247        0.1285  -19.3973  -54.4091 H         1 UNK         0.0800 
@<TRIPOS>BOND
     1    1    2 1    
     2    1  127 1    
     3    1  128 1    
     4    1  129 1    
     5    2    3 2    
     6    2    4 am   BACKBONE|DICT|INTERRES
     7    4    5 1    
     8    4  130 1    
     9    5    6 1    
    10    5   65 1    
    11    5  131 1    
    12    6    7 1    
    13    6  132 1    
    14    6  133 1    
    15    7    8 1    
    16    8    9 1    
    17    8  134 1    
    18    8  135 1    
    19    9   10 ar   
    20    9   14 ar   
    21   10   11 ar   
    22   10  136 1    
    23   11   12 ar   
    24   11  126 1    
    25   12   13 ar   
    26   12  137 1    
    27   13   14 ar   
    28   13   15 1    
    29   14  138 1    
    30   15   16 1    
    31   15  139 1    
    32   15  140 1    
    33   16   17 1    
    34   17   18 1    
    35   17  141 1    
    36   17  142 1    
    37   18   19 1    
    38   18   67 1    
    39   18  143 1    
    40   19   20 am   BACKBONE|DICT|INTERRES
    41   19  144 1    
    42   20   21 2    
    43   20   22 1    
    44   22   23 1    
    45   22   24 1    
    46   22  145 1    
    47   23  146 1    
    48   23  147 1    
    49   23  148 1    
    50   24   25 am   BACKBONE|DICT|INTERRES
    51   24  149 1    
    52   25   26 2    
    53   25   27 1    
    54   27   28 1    
    55   27   29 1    
    56   27  150 1    
    57   28  151 1    
    58   28  152 1    
    59   28  153 1    
    60   29   30 am   BACKBONE|DICT|INTERRES
    61   29  154 1    
    62   30   31 2    
    63   30   32 1    
    64   32   33 1    
    65   32   34 1    
    66   32  155 1    
    67   33  156 1    
    68   33  157 1    
    69   33  158 1    
    70   34   35 am   BACKBONE|DICT|INTERRES
    71   34  159 1    
    72   35   36 2    
    73   35   37 1    
    74   37   38 1    
    75   37   39 1    
    76   37  160 1    
    77   38  161 1    
    78   38  162 1    
    79   38  163 1    
    80   39   40 am   BACKBONE|DICT|INTERRES
    81   39  164 1    
    82   40   41 2    
    83   40   42 1    
    84   42   43 1    
    85   42   44 1    
    86   42  165 1    
    87   43  166 1    
    88   43  167 1    
    89   43  168 1    
    90   44   45 am   BACKBONE|DICT|INTERRES
    91   44  169 1    
    92   45   46 2    
    93   45   47 1    
    94   47   48 1    
    95   47   49 1    
    96   47  170 1    
    97   48  171 1    
    98   48  172 1    
    99   48  173 1    
   100   49   50 am   BACKBONE|DICT|INTERRES
   101   49  174 1    
   102   50   51 2    
   103   50   52 1    
   104   52   53 1    
   105   52   54 1    
   106   52  175 1    
   107   53  176 1    
   108   53  177 1    
   109   53  178 1    
   110   54   55 am   BACKBONE|DICT|INTERRES
   111   54  179 1    
   112   55   56 2    
   113   55   57 1    
   114   57   58 1    
   115   57   59 1    
   116   57  180 1    
   117   58  181 1    
   118   58  182 1    
   119   58  183 1    
   120   59   60 am   BACKBONE|DICT|INTERRES
   121   59  184 1    
   122   60   61 2    
   123   60   62 1    
   124   62   63 1    
   125   62   64 1    
   126   62  185 1    
   127   63  186 1    
   128   63  187 1    
   129   63  188 1    
   130   64   65 am   BACKBONE|DICT|INTERRES
   131   64  189 1    
   132   65   66 2    
   133   67   68 2    
   134   67   69 am   BACKBONE|DICT|INTERRES
   135   69   70 1    
   136   69  190 1    
   137   70   71 1    
   138   70   72 1    
   139   70  191 1    
   140   71  192 1    
   141   71  193 1    
   142   71  194 1    
   143   72   73 2    
   144   72   74 am   BACKBONE|DICT|INTERRES
   145   74   75 1    
   146   74  195 1    
   147   75   76 1    
   148   75   77 1    
   149   75  196 1    
   150   76  197 1    
   151   76  198 1    
   152   76  199 1    
   153   77   78 2    
   154   77   79 am   BACKBONE|DICT|INTERRES
   155   79   80 1    
   156   79  200 1    
   157   80   81 1    
   158   80   82 1    
   159   80  201 1    
   160   81  202 1    
   161   81  203 1    
   162   81  204 1    
   163   82   83 2    
   164   82   84 am   BACKBONE|DICT|INTERRES
   165   84   85 1    
   166   84  205 1    
   167   85   86 1    
   168   85   87 1    
   169   85  206 1    
   170   86  207 1    
   171   86  208 1    
   172   86  209 1    
   173   87   88 2    
   174   87   89 am   BACKBONE|DICT|INTERRES
   175   89   90 1    
   176   89  210 1    
   177   90   91 1    
   178   90   92 1    
   179   90  211 1    
   180   91  212 1    
   181   91  213 1    
   182   91  214 1    
   183   92   93 2    
   184   92   94 am   BACKBONE|DICT|INTERRES
   185   94   95 1    
   186   94  215 1    
   187   95   96 1    
   188   95   97 1    
   189   95  216 1    
   190   96  217 1    
   191   96  218 1    
   192   96  219 1    
   193   97   98 2    
   194   97   99 am   BACKBONE|DICT|INTERRES
   195   99  100 1    
   196   99  220 1    
   197  100  101 1    
   198  100  102 1    
   199  100  221 1    
   200  101  222 1    
   201  101  223 1    
   202  101  224 1    
   203  102  103 2    
   204  102  104 am   BACKBONE|DICT|INTERRES
   205  104  105 1    
   206  104  225 1    
   207  105  106 1    
   208  105  107 1    
   209  105  226 1    
   210  106  227 1    
   211  106  228 1    
   212  106  229 1    
   213  107  108 2    
   214  107  109 am   BACKBONE|DICT|INTERRES
   215  109  110 1    
   216  109  230 1    
   217  110  111 1    
   218  110  112 1    
   219  110  231 1    
   220  111  232 1    
   221  111  233 1    
   222  111  234 1    
   223  112  113 2    
   224  112  114 am   BACKBONE|DICT|INTERRES
   225  114  115 1    
   226  114  235 1    
   227  115  116 1    
   228  115  117 1    
   229  115  236 1    
   230  116  237 1    
   231  116  238 1    
   232  116  239 1    
   233  117  118 2    
   234  117  119 am   BACKBONE|DICT|INTERRES
   235  119  120 1    
   236  119  240 1    
   237  120  121 1    
   238  120  124 1    
   239  120  241 1    
   240  121  122 am   BACKBONE|DICT|INTERRES
   241  121  123 2    
   242  122  242 1    
   243  122  243 1    
   244  124  125 1    
   245  124  244 1    
   246  124  245 1    
   247  125  126 1    
   248  126  246 1    
   249  126  247 1    
@<TRIPOS>SUBSTRUCTURE
     1 UNK         1 GROUP             0       ****    0 ROOT    
