@<TRIPOS>MOLECULE
3R540
247   249    1
SMALL
USER_CHARGES


@<TRIPOS>ATOM
      1 CA          6.2307  -12.0088  -48.0738 C.3       0 UNK        -0.1800 
      2 C           4.7392  -11.9993  -47.7703 C.2       0 UNK         0.5000 
      3 O           4.0534  -11.0365  -48.1135 O.2       0 UNK        -0.5000 
      4 N           4.2445  -13.0652  -47.1243 N.am      1 UNK        -0.5000 
      5 CA          2.8378  -13.2837  -46.7459 C.3       1 UNK         0.1400 
      6 C6          1.8709  -13.4238  -47.9563 C.3       23 UNK        -0.0398 
      7 S7          2.4318  -14.6226  -49.2186 S.3       23 UNK        -0.2404 
      8 C8          1.3734  -16.0667  -48.8942 C.3       23 UNK        -0.0205 
      9 C9          1.3739  -17.0099  -50.0892 C.ar      23 UNK        -0.0193 
     10 C10         0.4637  -16.8087  -51.1331 C.ar      23 UNK        -0.1150 
     11 C11         0.4880  -17.6256  -52.2671 C.ar      23 UNK        -0.0193 
     12 C12         1.4271  -18.6549  -52.3455 C.ar      23 UNK        -0.1150 
     13 C13         2.3202  -18.8919  -51.2969 C.ar      23 UNK        -0.0193 
     14 C14         2.2944  -18.0618  -50.1706 C.ar      23 UNK        -0.1150 
     15 C15         3.3248  -20.0323  -51.4143 C.3       23 UNK        -0.0205 
     16 S16         2.9069  -21.4971  -50.4055 S.3       23 UNK        -0.2404 
     17 C17         1.1220  -21.7684  -50.7225 C.3       23 UNK        -0.0398 
     18 CA          0.2702  -21.7729  -49.4258 C.3       11 UNK         0.1400 
     19 N           0.6740  -20.7360  -48.4684 N.am      11 UNK        -0.5000 
     20 C           0.2564  -20.6690  -47.1997 C.2       10 UNK         0.5000 
     21 O          -0.5248  -21.4766  -46.6923 O.2       10 UNK        -0.5000 
     22 CA          0.7002  -19.4239  -46.4198 C.3       10 UNK         0.1400 
     23 CB         -0.3050  -18.2903  -46.6798 C.3       10 UNK        -0.1800 
     24 N           0.8055  -19.6428  -44.9789 N.am      10 UNK        -0.5000 
     25 C           1.6230  -20.5120  -44.3684 C.2       9 UNK         0.5000 
     26 O           2.3709  -21.2819  -44.9735 O.2       9 UNK        -0.5000 
     27 CA          1.6511  -20.4978  -42.8232 C.3       9 UNK         0.1400 
     28 CB          3.0878  -20.3248  -42.3010 C.3       9 UNK        -0.1800 
     29 N           0.8285  -19.4380  -42.2386 N.am      9 UNK        -0.5000 
     30 C          -0.4859  -19.5091  -41.9960 C.2       8 UNK         0.5000 
     31 O          -1.1695  -20.5106  -42.2036 O.2       8 UNK        -0.5000 
     32 CA         -1.1470  -18.2254  -41.4652 C.3       8 UNK         0.1400 
     33 CB         -1.0303  -18.1396  -39.9353 C.3       8 UNK        -0.1800 
     34 N          -0.5512  -17.0309  -42.0690 N.am      8 UNK        -0.5000 
     35 C          -0.8853  -16.5523  -43.2753 C.2       7 UNK         0.5000 
     36 O          -1.7689  -17.0422  -43.9773 O.2       7 UNK        -0.5000 
     37 CA         -0.1041  -15.3289  -43.7927 C.3       7 UNK         0.1400 
     38 CB         -0.8398  -14.0367  -43.4118 C.3       7 UNK        -0.1800 
     39 N           1.2750  -15.2757  -43.3006 N.am      7 UNK        -0.5000 
     40 C           2.2552  -16.0901  -43.7110 C.2       6 UNK         0.5000 
     41 O           2.1140  -16.9206  -44.6046 O.2       6 UNK        -0.5000 
     42 CA          3.6207  -15.9876  -43.0055 C.3       6 UNK         0.1400 
     43 CB          4.5526  -15.0134  -43.7378 C.3       6 UNK        -0.1800 
     44 N           3.5713  -15.6259  -41.5868 N.am      6 UNK        -0.5000 
     45 C           2.9571  -16.3268  -40.6234 C.2       5 UNK         0.5000 
     46 O           2.2103  -17.2779  -40.8502 O.2       5 UNK        -0.5000 
     47 CA          3.2385  -15.9194  -39.1616 C.3       5 UNK         0.1400 
     48 CB          4.1408  -16.9702  -38.4971 C.3       5 UNK        -0.1800 
     49 N           3.8999  -14.6126  -39.0621 N.am      5 UNK        -0.5000 
     50 C           3.3271  -13.4015  -39.0208 C.2       4 UNK         0.5000 
     51 O           4.0056  -12.3744  -39.0751 O.2       4 UNK        -0.5000 
     52 CA          1.8006  -13.2670  -38.8728 C.3       4 UNK         0.1400 
     53 CB          1.3926  -13.1403  -37.3950 C.3       4 UNK        -0.1800 
     54 N           1.3833  -12.0894  -39.6186 N.am      4 UNK        -0.5000 
     55 C           0.1768  -11.9267  -40.1673 C.2       3 UNK         0.5000 
     56 O          -0.7950  -12.6357  -39.9032 O.2       3 UNK        -0.5000 
     57 CA          0.0344  -10.8191  -41.2302 C.3       3 UNK         0.1400 
     58 CB         -0.4142   -9.5054  -40.5717 C.3       3 UNK        -0.1800 
     59 N           1.2147  -10.5539  -42.0684 N.am      3 UNK        -0.5000 
     60 C           1.9893  -11.4515  -42.6973 C.2       2 UNK         0.5000 
     61 O           1.9560  -12.6670  -42.4963 O.2       2 UNK        -0.5000 
     62 CA          2.9993  -10.8840  -43.7121 C.3       2 UNK         0.1400 
     63 CB          4.3334  -10.5762  -43.0158 C.3       2 UNK        -0.1800 
     64 N           3.2519  -11.8044  -44.8235 N.am      2 UNK        -0.5000 
     65 C           2.3427  -12.2441  -45.7078 C.2       1 UNK         0.5000 
     66 O           1.1735  -11.8556  -45.7294 O.2       1 UNK        -0.5000 
     67 C          -1.2398  -21.6823  -49.7449 C.2       11 UNK         0.5000 
     68 O          -1.8682  -22.7007  -50.0301 O.2       11 UNK        -0.5000 
     69 N          -1.7939  -20.4636  -49.6378 N.am      12 UNK        -0.5000 
     70 CA         -3.2210  -20.1602  -49.7072 C.3       12 UNK         0.1400 
     71 CB         -3.4125  -18.6350  -49.6854 C.3       12 UNK        -0.1800 
     72 C          -4.0130  -20.7984  -48.5534 C.2       12 UNK         0.5000 
     73 O          -5.0619  -21.3947  -48.7923 O.2       12 UNK        -0.5000 
     74 N          -3.4803  -20.6736  -47.3290 N.am      13 UNK        -0.5000 
     75 CA         -4.0594  -21.2215  -46.1010 C.3       13 UNK         0.1400 
     76 CB         -3.3908  -20.5635  -44.8835 C.3       13 UNK        -0.1800 
     77 C          -3.9388  -22.7540  -46.0383 C.2       13 UNK         0.5000 
     78 O          -4.8597  -23.4196  -45.5642 O.2       13 UNK        -0.5000 
     79 N          -2.8258  -23.2854  -46.5629 N.am      14 UNK        -0.5000 
     80 CA         -2.5916  -24.7172  -46.7609 C.3       14 UNK         0.1400 
     81 CB         -1.1006  -24.9365  -47.0590 C.3       14 UNK        -0.1800 
     82 C          -3.4556  -25.3295  -47.8847 C.2       14 UNK         0.5000 
     83 O          -3.5906  -26.5525  -47.9342 O.2       14 UNK        -0.5000 
     84 N          -4.0092  -24.4747  -48.7590 N.am      15 UNK        -0.5000 
     85 CA         -4.8084  -24.7866  -49.9454 C.3       15 UNK         0.1400 
     86 CB         -6.1577  -25.4212  -49.5521 C.3       15 UNK        -0.1800 
     87 C          -4.0129  -25.6190  -50.9690 C.2       15 UNK         0.5000 
     88 O          -4.4836  -26.6598  -51.4319 O.2       15 UNK        -0.5000 
     89 N          -2.8066  -25.1391  -51.2998 N.am      16 UNK        -0.5000 
     90 CA         -1.8630  -25.7622  -52.2310 C.3       16 UNK         0.1400 
     91 CB         -0.5778  -24.9239  -52.2676 C.3       16 UNK        -0.1800 
     92 C          -2.4140  -25.9676  -53.6569 C.2       16 UNK         0.5000 
     93 O          -2.0434  -26.9445  -54.3088 O.2       16 UNK        -0.5000 
     94 N          -3.3028  -25.0693  -54.0996 N.am      17 UNK        -0.5000 
     95 CA         -4.0286  -25.1509  -55.3688 C.3       17 UNK         0.1400 
     96 CB         -3.8501  -23.8312  -56.1382 C.3       17 UNK        -0.1800 
     97 C          -5.5162  -25.4974  -55.1486 C.2       17 UNK         0.5000 
     98 O          -6.3440  -25.1979  -56.0113 O.2       17 UNK        -0.5000 
     99 N          -5.8388  -26.1196  -54.0035 N.am      18 UNK        -0.5000 
    100 CA        -7.1688  -26.5620  -53.5778 C.3       18 UNK         0.1400 
    101 CB        -7.6279  -27.7700  -54.4255 C.3       18 UNK        -0.1800 
    102 C         -8.1709  -25.3902  -53.5435 C.2       18 UNK         0.5000 
    103 O         -7.9478  -24.4317  -52.8021 O.2       18 UNK        -0.5000 
    104 N         -9.2301  -25.4615  -54.3609 N.am      19 UNK        -0.5000 
    105 CA       -10.2751  -24.4431  -54.4953 C.3       19 UNK         0.1400 
    106 CB       -11.3854  -24.9896  -55.4057 C.3       19 UNK        -0.1800 
    107 C         -9.7722  -23.0810  -55.0169 C.2       19 UNK         0.5000 
    108 O        -10.4203  -22.0659  -54.7601 O.2       19 UNK        -0.5000 
    109 N         -8.6261  -23.0706  -55.7130 N.am      20 UNK        -0.5000 
    110 CA        -7.9523  -21.8577  -56.1813 C.3       20 UNK         0.1400 
    111 CB        -7.2043  -22.1729  -57.4869 C.3       20 UNK        -0.1800 
    112 C         -7.0029  -21.2516  -55.1257 C.2       20 UNK         0.5000 
    113 O         -6.3452  -20.2533  -55.4264 O.2       20 UNK        -0.5000 
    114 N         -6.9308  -21.8561  -53.9277 N.am      21 UNK        -0.5000 
    115 CA        -6.0929  -21.5074  -52.7767 C.3       21 UNK         0.1400 
    116 CB        -6.4400  -20.1103  -52.2213 C.3       21 UNK        -0.1800 
    117 C         -4.5979  -21.6807  -53.0888 C.2       21 UNK         0.5000 
    118 O         -4.0204  -22.7017  -52.7203 O.2       21 UNK        -0.5000 
    119 N         -4.0169  -20.7100  -53.7958 N.am      22 UNK        -0.5000 
    120 CA        -2.6479  -20.7295  -54.3268 C.3       22 UNK         0.1400 
    121 C         -2.5604  -20.3035  -55.8221 C.2       22 UNK         0.5000 
    122 N         -3.6663  -20.0610  -56.5185 N.am      22 UNK        -0.7600 
    123 O         -1.4669  -20.2160  -56.3736 O.2       22 UNK        -0.5000 
    124 C124       -1.6586  -19.9624  -53.4128 C.3       23 UNK        -0.0398 
    125 S125       -2.0778  -18.1975  -53.1783 S.3       23 UNK        -0.2404 
    126 C126       -0.4715  -17.3770  -53.4238 C.3       23 UNK        -0.0205 
    127 H127        6.3944  -11.9445  -49.1495 H         1 UNK         0.0600 
    128 H128        6.7138  -12.9161  -47.7104 H         1 UNK         0.0600 
    129 H129        6.7150  -11.1536  -47.6023 H         1 UNK         0.0600 
    130 H130        4.8723  -13.8225  -46.8950 H         1 UNK         0.3000 
    131 H131        2.8193  -14.2401  -46.2221 H         1 UNK         0.0600 
    132 H132        0.8748  -13.7083  -47.6135 H         1 UNK         0.0800 
    133 H133        1.7482  -12.4601  -48.4529 H         1 UNK         0.0800 
    134 H134        1.7309  -16.5777  -47.9991 H         1 UNK         0.0800 
    135 H135        0.3524  -15.7435  -48.6857 H         1 UNK         0.0800 
    136 H136       -0.2490  -15.9978  -51.0748 H         1 UNK         0.1150 
    137 H137        1.4632  -19.2786  -53.2272 H         1 UNK         0.1150 
    138 H138        3.0035  -18.2211  -49.3702 H         1 UNK         0.1150 
    139 H139        3.4221  -20.3459  -52.4548 H         1 UNK         0.0800 
    140 H140        4.3114  -19.6734  -51.1181 H         1 UNK         0.0800 
    141 H141        1.0225  -22.7279  -51.2294 H         1 UNK         0.0800 
    142 H142        0.7477  -21.0337  -51.4320 H         1 UNK         0.0800 
    143 H143        0.4372  -22.7331  -48.9347 H         1 UNK         0.0600 
    144 H144        1.3253  -20.0486  -48.8195 H         1 UNK         0.3000 
    145 H145        1.6836  -19.1156  -46.7805 H         1 UNK         0.0600 
    146 H146        0.0356  -17.3537  -46.2422 H         1 UNK         0.0600 
    147 H147       -1.2853  -18.5181  -46.2597 H         1 UNK         0.0600 
    148 H148       -0.4410  -18.1128  -47.7469 H         1 UNK         0.0600 
    149 H149        0.2436  -19.0429  -44.3950 H         1 UNK         0.3000 
    150 H150        1.2792  -21.4665  -42.4836 H         1 UNK         0.0600 
    151 H151        3.7336  -21.1340  -42.6436 H         1 UNK         0.0600 
    152 H152        3.1147  -20.3291  -41.2110 H         1 UNK         0.0600 
    153 H153        3.5259  -19.3862  -42.6417 H         1 UNK         0.0600 
    154 H154        1.3171  -18.5878  -41.9739 H         1 UNK         0.3000 
    155 H155       -2.2086  -18.2639  -41.7193 H         1 UNK         0.0600 
    156 H156       -1.5084  -18.9977  -39.4615 H         1 UNK         0.0600 
    157 H157       -1.5187  -17.2432  -39.5529 H         1 UNK         0.0600 
    158 H158        0.0086  -18.1219  -39.6053 H         1 UNK         0.0600 
    159 H159        0.2287  -16.6147  -41.5778 H         1 UNK         0.3000 
    160 H160       -0.0767  -15.3869  -44.8825 H         1 UNK         0.0600 
    161 H161       -0.8624  -13.8942  -42.3317 H         1 UNK         0.0600 
    162 H162       -1.8723  -14.0546  -43.7629 H         1 UNK         0.0600 
    163 H163       -0.3643  -13.1641  -43.8580 H         1 UNK         0.0600 
    164 H164        1.5054  -14.5194  -42.6618 H         1 UNK         0.3000 
    165 H165        4.0726  -16.9797  -43.0636 H         1 UNK         0.0600 
    166 H166        5.5715  -15.0846  -43.3570 H         1 UNK         0.0600 
    167 H167        4.5921  -15.2302  -44.8057 H         1 UNK         0.0600 
    168 H168        4.2233  -13.9840  -43.6123 H         1 UNK         0.0600 
    169 H169        4.1349  -14.8361  -41.3095 H         1 UNK         0.3000 
    170 H170        2.2946  -15.9221  -38.6156 H         1 UNK         0.0600 
    171 H171        5.1075  -17.0478  -38.9964 H         1 UNK         0.0600 
    172 H172        4.3224  -16.7281  -37.4498 H         1 UNK         0.0600 
    173 H173        3.6779  -17.9579  -38.5244 H         1 UNK         0.0600 
    174 H174        4.9082  -14.6460  -39.1012 H         1 UNK         0.3000 
    175 H175        1.3028  -14.1279  -39.3188 H         1 UNK         0.0600 
    176 H176        1.8431  -12.2630  -36.9292 H         1 UNK         0.0600 
    177 H177        0.3111  -13.0579  -37.2872 H         1 UNK         0.0600 
    178 H178        1.7098  -14.0152  -36.8263 H         1 UNK         0.0600 
    179 H179        2.1432  -11.4841  -39.9027 H         1 UNK         0.3000 
    180 H180       -0.7575  -11.1408  -41.9093 H         1 UNK         0.0600 
    181 H181       -0.6615   -8.7515  -41.3192 H         1 UNK         0.0600 
    182 H182        0.3626   -9.0963  -39.9245 H         1 UNK         0.0600 
    183 H183       -1.3050   -9.6568  -39.9602 H         1 UNK         0.0600 
    184 H184        1.3686   -9.5793  -42.2829 H         1 UNK         0.3000 
    185 H185        2.5959   -9.9598  -44.1307 H         1 UNK         0.0600 
    186 H186        5.0505  -10.1380  -43.7102 H         1 UNK         0.0600 
    187 H187        4.1956   -9.8641  -42.2010 H         1 UNK         0.0600 
    188 H188        4.7817  -11.4756  -42.5911 H         1 UNK         0.0600 
    189 H189        4.1909  -12.1649  -44.8963 H         1 UNK         0.3000 
    190 H190       -1.1838  -19.6887  -49.4274 H         1 UNK         0.3000 
    191 H191       -3.6020  -20.5524  -50.6498 H         1 UNK         0.0600 
    192 H192       -3.0961  -18.1987  -48.7370 H         1 UNK         0.0600 
    193 H193       -4.4603  -18.3713  -49.8331 H         1 UNK         0.0600 
    194 H194       -2.8415  -18.1464  -50.4716 H         1 UNK         0.0600 
    195 H195       -2.5856  -20.2184  -47.2332 H         1 UNK         0.3000 
    196 H196       -5.1218  -20.9694  -46.0830 H         1 UNK         0.0600 
    197 H197       -3.5135  -19.4803  -44.8997 H         1 UNK         0.0600 
    198 H198       -2.3223  -20.7767  -44.8409 H         1 UNK         0.0600 
    199 H199       -3.8305  -20.9259  -43.9536 H         1 UNK         0.0600 
    200 H200       -2.0790  -22.6566  -46.8440 H         1 UNK         0.3000 
    201 H201       -2.8373  -25.2354  -45.8318 H         1 UNK         0.0600 
    202 H202       -0.4709  -24.4995  -46.2835 H         1 UNK         0.0600 
    203 H203       -0.8160  -24.4944  -48.0134 H         1 UNK         0.0600 
    204 H204       -0.8656  -26.0003  -47.1097 H         1 UNK         0.0600 
    205 H205       -3.7988  -23.4938  -48.6362 H         1 UNK         0.3000 
    206 H206       -5.0247  -23.8318  -50.4259 H         1 UNK         0.0600 
    207 H207       -6.0309  -26.4088  -49.1080 H         1 UNK         0.0600 
    208 H208       -6.6908  -24.7962  -48.8357 H         1 UNK         0.0600 
    209 H209       -6.8016  -25.5344  -50.4244 H         1 UNK         0.0600 
    210 H210       -2.5126  -24.2581  -50.8832 H         1 UNK         0.3000 
    211 H211       -1.6170  -26.7482  -51.8323 H         1 UNK         0.0600 
    212 H212       -0.7763  -23.9053  -52.6043 H         1 UNK         0.0600 
    213 H213        0.1581  -25.3593  -52.9447 H         1 UNK         0.0600 
    214 H214       -0.1199  -24.8707  -51.2798 H         1 UNK         0.0600 
    215 H215       -3.5469  -24.2876  -53.4923 H         1 UNK         0.3000 
    216 H216       -3.6152  -25.9488  -55.9882 H         1 UNK         0.0600 
    217 H217       -4.2284  -23.9211  -57.1568 H         1 UNK         0.0600 
    218 H218       -2.7987  -23.5533  -56.2111 H         1 UNK         0.0600 
    219 H219       -4.3849  -23.0103  -55.6629 H         1 UNK         0.0600 
    220 H220       -5.1020  -26.2922  -53.3277 H         1 UNK         0.3000 
    221 H221       -7.0671  -26.9041  -52.5473 H         1 UNK         0.0600 
    222 H222       -7.7343  -27.5202  -55.4817 H         1 UNK         0.0600 
    223 H223       -6.9086  -28.5861  -54.3544 H         1 UNK         0.0600 
    224 H224       -8.5842  -28.1592  -54.0737 H         1 UNK         0.0600 
    225 H225       -9.3164  -26.2718  -54.9570 H         1 UNK         0.3000 
    226 H226      -10.6989  -24.2724  -53.5036 H         1 UNK         0.0600 
    227 H227      -11.8131  -25.9069  -55.0007 H         1 UNK         0.0600 
    228 H228      -12.1995  -24.2703  -55.5055 H         1 UNK         0.0600 
    229 H229      -11.0131  -25.2050  -56.4081 H         1 UNK         0.0600 
    230 H230       -8.1316  -23.9434  -55.8626 H         1 UNK         0.3000 
    231 H231       -8.6997  -21.0949  -56.4085 H         1 UNK         0.0600 
    232 H232       -6.7450  -21.2760  -57.9044 H         1 UNK         0.0600 
    233 H233       -7.8819  -22.5699  -58.2428 H         1 UNK         0.0600 
    234 H234       -6.4118  -22.9031  -57.3325 H         1 UNK         0.0600 
    235 H235       -7.4845  -22.6951  -53.7919 H         1 UNK         0.3000 
    236 H236       -6.3347  -22.2320  -51.9975 H         1 UNK         0.0600 
    237 H237       -6.2455  -19.3107  -52.9359 H         1 UNK         0.0600 
    238 H238       -7.4925  -20.0548  -51.9436 H         1 UNK         0.0600 
    239 H239       -5.8607  -19.8946  -51.3240 H         1 UNK         0.0600 
    240 H240       -4.5901  -19.9338  -54.0989 H         1 UNK         0.3000 
    241 H241       -2.3117  -21.7678  -54.3426 H         1 UNK         0.0600 
    242 H242       -3.5813  -19.7933  -57.4859 H         1 UNK         0.3800 
    243 H243       -4.5912  -20.1413  -56.1064 H         1 UNK         0.3800 
    244 H244       -0.6464  -20.0572  -53.8050 H         1 UNK         0.0800 
    245 H245       -1.6371  -20.4339  -52.4319 H         1 UNK         0.0800 
    246 H246       -0.0328  -17.7066  -54.3671 H         1 UNK         0.0800 
    247 H247       -0.6408  -16.3045  -53.5296 H         1 UNK         0.0800 
@<TRIPOS>BOND
     1    1    2 1    
     2    1  127 1    
     3    1  128 1    
     4    1  129 1    
     5    2    3 2    
     6    2    4 am   BACKBONE|DICT|INTERRES
     7    4    5 1    
     8    4  130 1    
     9    5    6 1    
    10    5   65 1    
    11    5  131 1    
    12    6    7 1    
    13    6  132 1    
    14    6  133 1    
    15    7    8 1    
    16    8    9 1    
    17    8  134 1    
    18    8  135 1    
    19    9   10 ar   
    20    9   14 ar   
    21   10   11 ar   
    22   10  136 1    
    23   11   12 ar   
    24   11  126 1    
    25   12   13 ar   
    26   12  137 1    
    27   13   14 ar   
    28   13   15 1    
    29   14  138 1    
    30   15   16 1    
    31   15  139 1    
    32   15  140 1    
    33   16   17 1    
    34   17   18 1    
    35   17  141 1    
    36   17  142 1    
    37   18   19 1    
    38   18   67 1    
    39   18  143 1    
    40   19   20 am   BACKBONE|DICT|INTERRES
    41   19  144 1    
    42   20   21 2    
    43   20   22 1    
    44   22   23 1    
    45   22   24 1    
    46   22  145 1    
    47   23  146 1    
    48   23  147 1    
    49   23  148 1    
    50   24   25 am   BACKBONE|DICT|INTERRES
    51   24  149 1    
    52   25   26 2    
    53   25   27 1    
    54   27   28 1    
    55   27   29 1    
    56   27  150 1    
    57   28  151 1    
    58   28  152 1    
    59   28  153 1    
    60   29   30 am   BACKBONE|DICT|INTERRES
    61   29  154 1    
    62   30   31 2    
    63   30   32 1    
    64   32   33 1    
    65   32   34 1    
    66   32  155 1    
    67   33  156 1    
    68   33  157 1    
    69   33  158 1    
    70   34   35 am   BACKBONE|DICT|INTERRES
    71   34  159 1    
    72   35   36 2    
    73   35   37 1    
    74   37   38 1    
    75   37   39 1    
    76   37  160 1    
    77   38  161 1    
    78   38  162 1    
    79   38  163 1    
    80   39   40 am   BACKBONE|DICT|INTERRES
    81   39  164 1    
    82   40   41 2    
    83   40   42 1    
    84   42   43 1    
    85   42   44 1    
    86   42  165 1    
    87   43  166 1    
    88   43  167 1    
    89   43  168 1    
    90   44   45 am   BACKBONE|DICT|INTERRES
    91   44  169 1    
    92   45   46 2    
    93   45   47 1    
    94   47   48 1    
    95   47   49 1    
    96   47  170 1    
    97   48  171 1    
    98   48  172 1    
    99   48  173 1    
   100   49   50 am   BACKBONE|DICT|INTERRES
   101   49  174 1    
   102   50   51 2    
   103   50   52 1    
   104   52   53 1    
   105   52   54 1    
   106   52  175 1    
   107   53  176 1    
   108   53  177 1    
   109   53  178 1    
   110   54   55 am   BACKBONE|DICT|INTERRES
   111   54  179 1    
   112   55   56 2    
   113   55   57 1    
   114   57   58 1    
   115   57   59 1    
   116   57  180 1    
   117   58  181 1    
   118   58  182 1    
   119   58  183 1    
   120   59   60 am   BACKBONE|DICT|INTERRES
   121   59  184 1    
   122   60   61 2    
   123   60   62 1    
   124   62   63 1    
   125   62   64 1    
   126   62  185 1    
   127   63  186 1    
   128   63  187 1    
   129   63  188 1    
   130   64   65 am   BACKBONE|DICT|INTERRES
   131   64  189 1    
   132   65   66 2    
   133   67   68 2    
   134   67   69 am   BACKBONE|DICT|INTERRES
   135   69   70 1    
   136   69  190 1    
   137   70   71 1    
   138   70   72 1    
   139   70  191 1    
   140   71  192 1    
   141   71  193 1    
   142   71  194 1    
   143   72   73 2    
   144   72   74 am   BACKBONE|DICT|INTERRES
   145   74   75 1    
   146   74  195 1    
   147   75   76 1    
   148   75   77 1    
   149   75  196 1    
   150   76  197 1    
   151   76  198 1    
   152   76  199 1    
   153   77   78 2    
   154   77   79 am   BACKBONE|DICT|INTERRES
   155   79   80 1    
   156   79  200 1    
   157   80   81 1    
   158   80   82 1    
   159   80  201 1    
   160   81  202 1    
   161   81  203 1    
   162   81  204 1    
   163   82   83 2    
   164   82   84 am   BACKBONE|DICT|INTERRES
   165   84   85 1    
   166   84  205 1    
   167   85   86 1    
   168   85   87 1    
   169   85  206 1    
   170   86  207 1    
   171   86  208 1    
   172   86  209 1    
   173   87   88 2    
   174   87   89 am   BACKBONE|DICT|INTERRES
   175   89   90 1    
   176   89  210 1    
   177   90   91 1    
   178   90   92 1    
   179   90  211 1    
   180   91  212 1    
   181   91  213 1    
   182   91  214 1    
   183   92   93 2    
   184   92   94 am   BACKBONE|DICT|INTERRES
   185   94   95 1    
   186   94  215 1    
   187   95   96 1    
   188   95   97 1    
   189   95  216 1    
   190   96  217 1    
   191   96  218 1    
   192   96  219 1    
   193   97   98 2    
   194   97   99 am   BACKBONE|DICT|INTERRES
   195   99  100 1    
   196   99  220 1    
   197  100  101 1    
   198  100  102 1    
   199  100  221 1    
   200  101  222 1    
   201  101  223 1    
   202  101  224 1    
   203  102  103 2    
   204  102  104 am   BACKBONE|DICT|INTERRES
   205  104  105 1    
   206  104  225 1    
   207  105  106 1    
   208  105  107 1    
   209  105  226 1    
   210  106  227 1    
   211  106  228 1    
   212  106  229 1    
   213  107  108 2    
   214  107  109 am   BACKBONE|DICT|INTERRES
   215  109  110 1    
   216  109  230 1    
   217  110  111 1    
   218  110  112 1    
   219  110  231 1    
   220  111  232 1    
   221  111  233 1    
   222  111  234 1    
   223  112  113 2    
   224  112  114 am   BACKBONE|DICT|INTERRES
   225  114  115 1    
   226  114  235 1    
   227  115  116 1    
   228  115  117 1    
   229  115  236 1    
   230  116  237 1    
   231  116  238 1    
   232  116  239 1    
   233  117  118 2    
   234  117  119 am   BACKBONE|DICT|INTERRES
   235  119  120 1    
   236  119  240 1    
   237  120  121 1    
   238  120  124 1    
   239  120  241 1    
   240  121  122 am   BACKBONE|DICT|INTERRES
   241  121  123 2    
   242  122  242 1    
   243  122  243 1    
   244  124  125 1    
   245  124  244 1    
   246  124  245 1    
   247  125  126 1    
   248  126  246 1    
   249  126  247 1    
@<TRIPOS>SUBSTRUCTURE
     1 UNK         1 GROUP             0       ****    0 ROOT    
