@<TRIPOS>MOLECULE
3R540
247   249    1
SMALL
USER_CHARGES


@<TRIPOS>ATOM
      1 CA          1.0284  -11.3102  -51.6908 C.3       0 UNK        -0.1800 
      2 C           1.3186  -12.2530  -50.5316 C.2       0 UNK         0.5000 
      3 O           2.2610  -13.0403  -50.6049 O.2       0 UNK        -0.5000 
      4 N           0.5148  -12.1750  -49.4675 N.am      1 UNK        -0.5000 
      5 CA          0.6324  -12.9645  -48.2425 C.3       1 UNK         0.1400 
      6 C6          0.1970  -14.4480  -48.4296 C.3       23 UNK        -0.0398 
      7 S7          1.2341  -15.6076  -47.4711 S.3       23 UNK        -0.2404 
      8 C8          2.5134  -16.0989  -48.6757 C.3       23 UNK        -0.0205 
      9 C9          2.0016  -17.0990  -49.7052 C.ar      23 UNK        -0.0193 
     10 C10         1.4369  -16.6484  -50.9022 C.ar      23 UNK        -0.1150 
     11 C11         0.9316  -17.5531  -51.8372 C.ar      23 UNK        -0.0193 
     12 C12         1.0539  -18.9233  -51.6025 C.ar      23 UNK        -0.1150 
     13 C13         1.6536  -19.3916  -50.4305 C.ar      23 UNK        -0.0193 
     14 C14         2.1100  -18.4756  -49.4752 C.ar      23 UNK        -0.1150 
     15 C15         1.8125  -20.8891  -50.2188 C.3       23 UNK        -0.0205 
     16 S16         0.2279  -21.6775  -49.8047 S.3       23 UNK        -0.2404 
     17 C17         0.0255  -21.1936  -48.0575 C.3       23 UNK        -0.0398 
     18 CA         -0.3539  -22.4052  -47.1741 C.3       11 UNK         0.1400 
     19 N           0.0969  -22.2540  -45.7894 N.am      11 UNK        -0.5000 
     20 C           0.1042  -23.2457  -44.8877 C.2       10 UNK         0.5000 
     21 O          -0.2787  -24.3894  -45.1287 O.2       10 UNK        -0.5000 
     22 CA          0.5722  -22.8962  -43.4659 C.3       10 UNK         0.1400 
     23 CB          2.1017  -22.7716  -43.4071 C.3       10 UNK        -0.1800 
     24 N          -0.0510  -21.6753  -42.9574 N.am      10 UNK        -0.5000 
     25 C          -1.3697  -21.5280  -42.7611 C.2       9 UNK         0.5000 
     26 O          -2.1964  -22.4199  -42.9560 O.2       9 UNK        -0.5000 
     27 CA         -1.8525  -20.1373  -42.3159 C.3       9 UNK         0.1400 
     28 CB         -1.6060  -19.9300  -40.8142 C.3       9 UNK        -0.1800 
     29 N          -1.2262  -19.0530  -43.0718 N.am      9 UNK        -0.5000 
     30 C          -1.3450  -18.8771  -44.3961 C.2       8 UNK         0.5000 
     31 O          -2.0142  -19.6024  -45.1308 O.2       8 UNK        -0.5000 
     32 CA         -0.5335  -17.7272  -45.0125 C.3       8 UNK         0.1400 
     33 CB         -1.1692  -16.3695  -44.6800 C.3       8 UNK        -0.1800 
     34 N           0.8608  -17.7390  -44.5745 N.am      8 UNK        -0.5000 
     35 C           1.7230  -18.7410  -44.7957 C.2       7 UNK         0.5000 
     36 O           1.4469  -19.7642  -45.4200 O.2       7 UNK        -0.5000 
     37 CA          3.1154  -18.5996  -44.1639 C.3       7 UNK         0.1400 
     38 CB          4.0169  -17.7048  -45.0280 C.3       7 UNK        -0.1800 
     39 N           3.0378  -18.0729  -42.8010 N.am      7 UNK        -0.5000 
     40 C           2.5163  -18.7431  -41.7625 C.2       6 UNK         0.5000 
     41 O           2.0781  -19.8910  -41.8368 O.2       6 UNK        -0.5000 
     42 CA          2.4312  -17.9856  -40.4255 C.3       6 UNK         0.1400 
     43 CB          3.7809  -18.0194  -39.6932 C.3       6 UNK        -0.1800 
     44 N           2.0033  -16.5969  -40.5963 N.am      6 UNK        -0.5000 
     45 C           0.7868  -16.2299  -41.0222 C.2       5 UNK         0.5000 
     46 O          -0.1151  -17.0246  -41.2860 O.2       5 UNK        -0.5000 
     47 CA          0.5532  -14.7231  -41.2300 C.3       5 UNK         0.1400 
     48 CB          0.1102  -14.0584  -39.9186 C.3       5 UNK        -0.1800 
     49 N           1.7143  -14.0079  -41.7675 N.am      5 UNK        -0.5000 
     50 C           2.3045  -14.2722  -42.9403 C.2       4 UNK         0.5000 
     51 O           1.9819  -15.2133  -43.6666 O.2       4 UNK        -0.5000 
     52 CA          3.3764  -13.2682  -43.4008 C.3       4 UNK         0.1400 
     53 CB          4.2224  -13.8022  -44.5705 C.3       4 UNK        -0.1800 
     54 N           2.6942  -12.0528  -43.8300 N.am      4 UNK        -0.5000 
     55 C           2.3565  -11.0277  -43.0360 C.2       3 UNK         0.5000 
     56 O           2.7594  -10.8900  -41.8806 O.2       3 UNK        -0.5000 
     57 CA          1.3234  -10.0428  -43.6178 C.3       3 UNK         0.1400 
     58 CB          2.0078   -8.9805  -44.4907 C.3       3 UNK        -0.1800 
     59 N           0.3100  -10.7456  -44.4098 N.am      3 UNK        -0.5000 
     60 C          -0.5794  -11.6167  -43.9147 C.2       2 UNK         0.5000 
     61 O          -0.7645  -11.7866  -42.7099 O.2       2 UNK        -0.5000 
     62 CA         -1.3483  -12.4956  -44.9191 C.3       2 UNK         0.1400 
     63 CB         -2.6757  -11.8391  -45.3434 C.3       2 UNK        -0.1800 
     64 N          -0.5549  -12.9351  -46.0803 N.am      2 UNK        -0.5000 
     65 C          -0.1191  -12.2141  -47.1229 C.2       1 UNK         0.5000 
     66 O          -0.2766  -10.9936  -47.2143 O.2       1 UNK        -0.5000 
     67 C          -1.8595  -22.7212  -47.2677 C.2       11 UNK         0.5000 
     68 O          -2.2490  -23.5610  -48.0797 O.2       11 UNK        -0.5000 
     69 N          -2.6811  -22.0759  -46.4280 N.am      12 UNK        -0.5000 
     70 CA         -4.1164  -22.3383  -46.3147 C.3       12 UNK         0.1400 
     71 CB         -4.7664  -21.2972  -45.3923 C.3       12 UNK        -0.1800 
     72 C          -4.4214  -23.7661  -45.8284 C.2       12 UNK         0.5000 
     73 O          -5.3320  -24.4024  -46.3577 O.2       12 UNK        -0.5000 
     74 N          -3.6428  -24.2513  -44.8533 N.am      13 UNK        -0.5000 
     75 CA         -3.7575  -25.6022  -44.3114 C.3       13 UNK         0.1400 
     76 CB         -3.0021  -25.6822  -42.9753 C.3       13 UNK        -0.1800 
     77 C          -3.2570  -26.6818  -45.2881 C.2       13 UNK         0.5000 
     78 O          -3.9573  -27.6708  -45.5084 O.2       13 UNK        -0.5000 
     79 N          -2.0469  -26.4922  -45.8298 N.am      14 UNK        -0.5000 
     80 CA         -1.3345  -27.5125  -46.5981 C.3       14 UNK         0.1400 
     81 CB          0.1783  -27.2693  -46.4787 C.3       14 UNK        -0.1800 
     82 C          -1.7368  -27.5772  -48.0797 C.2       14 UNK         0.5000 
     83 O          -1.7531  -28.6736  -48.6414 O.2       14 UNK        -0.5000 
     84 N          -2.0057  -26.4201  -48.6982 N.am      15 UNK        -0.5000 
     85 CA         -2.1278  -26.2840  -50.1525 C.3       15 UNK         0.1400 
     86 CB         -0.8592  -25.5887  -50.6803 C.3       15 UNK        -0.1800 
     87 C          -3.3904  -25.5258  -50.5916 C.2       15 UNK         0.5000 
     88 O          -3.5280  -25.2518  -51.7838 O.2       15 UNK        -0.5000 
     89 N          -4.2715  -25.1635  -49.6465 N.am      16 UNK        -0.5000 
     90 CA         -5.4801  -24.3528  -49.8500 C.3       16 UNK         0.1400 
     91 CB         -6.5466  -25.1565  -50.6231 C.3       16 UNK        -0.1800 
     92 C          -5.1775  -22.9760  -50.4846 C.2       16 UNK         0.5000 
     93 O          -5.9219  -22.5190  -51.3533 O.2       16 UNK        -0.5000 
     94 N          -4.0623  -22.3644  -50.0522 N.am      17 UNK        -0.5000 
     95 CA         -3.4850  -21.1141  -50.5588 C.3       17 UNK         0.1400 
     96 CB         -4.3964  -19.9111  -50.2429 C.3       17 UNK        -0.1800 
     97 C          -3.0906  -21.2300  -52.0463 C.2       17 UNK         0.5000 
     98 O          -3.4960  -20.4109  -52.8728 O.2       17 UNK        -0.5000 
     99 N          -2.3312  -22.2923  -52.3541 N.am      18 UNK        -0.5000 
    100 CA        -1.8821  -22.7010  -53.6898 C.3       18 UNK         0.1400 
    101 CB        -0.8824  -21.6772  -54.2678 C.3       18 UNK        -0.1800 
    102 C         -3.0575  -23.0125  -54.6417 C.2       18 UNK         0.5000 
    103 O         -3.0131  -22.6564  -55.8208 O.2       18 UNK        -0.5000 
    104 N         -4.0955  -23.6593  -54.0914 N.am      19 UNK        -0.5000 
    105 CA        -5.3633  -24.1085  -54.6816 C.3       19 UNK         0.1400 
    106 CB        -5.1133  -25.1853  -55.7531 C.3       19 UNK        -0.1800 
    107 C         -6.2852  -22.9983  -55.2274 C.2       19 UNK         0.5000 
    108 O         -7.4963  -23.0575  -55.0137 O.2       19 UNK        -0.5000 
    109 N         -5.7099  -22.0232  -55.9346 N.am      20 UNK        -0.5000 
    110 CA        -6.3998  -20.9551  -56.6550 C.3       20 UNK         0.1400 
    111 CB        -5.6758  -20.7479  -57.9974 C.3       20 UNK        -0.1800 
    112 C         -6.4737  -19.6383  -55.8581 C.2       20 UNK         0.5000 
    113 O         -6.7778  -18.6025  -56.4521 O.2       20 UNK        -0.5000 
    114 N         -6.1562  -19.6727  -54.5538 N.am      21 UNK        -0.5000 
    115 CA        -6.0569  -18.5200  -53.6454 C.3       21 UNK         0.1400 
    116 CB        -7.4491  -17.9144  -53.3709 C.3       21 UNK        -0.1800 
    117 C         -5.0267  -17.4860  -54.1485 C.2       21 UNK         0.5000 
    118 O         -5.3184  -16.2910  -54.2236 O.2       21 UNK        -0.5000 
    119 N         -3.8583  -18.0032  -54.5466 N.am      22 UNK        -0.5000 
    120 CA        -2.7548  -17.3043  -55.2280 C.3       22 UNK         0.1400 
    121 C         -3.0690  -16.8235  -56.6798 C.2       22 UNK         0.5000 
    122 N         -4.2235  -17.1236  -57.2642 N.am      22 UNK        -0.7600 
    123 O         -2.2279  -16.1905  -57.3124 O.2       22 UNK        -0.5000 
    124 C124       -2.1098  -16.1770  -54.3732 C.3       23 UNK        -0.0398 
    125 S125       -1.5322  -16.7621  -52.7452 S.3       23 UNK        -0.2404 
    126 C126        0.2313  -17.0473  -53.0856 C.3       23 UNK        -0.0205 
    127 H127        1.8759  -10.6445  -51.8543 H         1 UNK         0.0600 
    128 H128        0.1453  -10.6984  -51.5045 H         1 UNK         0.0600 
    129 H129        0.8598  -11.8806  -52.6043 H         1 UNK         0.0600 
    130 H130       -0.2002  -11.4594  -49.4230 H         1 UNK         0.3000 
    131 H131        1.6864  -12.9364  -47.9574 H         1 UNK         0.0600 
    132 H132       -0.8500  -14.6028  -48.1634 H         1 UNK         0.0800 
    133 H133        0.2401  -14.7273  -49.4775 H         1 UNK         0.0800 
    134 H134        2.9097  -15.2121  -49.1716 H         1 UNK         0.0800 
    135 H135        3.3507  -16.5352  -48.1292 H         1 UNK         0.0800 
    136 H136        1.3701  -15.5896  -51.1049 H         1 UNK         0.1150 
    137 H137        0.6731  -19.6278  -52.3279 H         1 UNK         0.1150 
    138 H138        2.5577  -18.8316  -48.5578 H         1 UNK         0.1150 
    139 H139        2.1956  -21.3390  -51.1359 H         1 UNK         0.0800 
    140 H140        2.5527  -21.1024  -49.4460 H         1 UNK         0.0800 
    141 H141       -0.6995  -20.3813  -47.9766 H         1 UNK         0.0800 
    142 H142        0.9726  -20.7761  -47.7180 H         1 UNK         0.0800 
    143 H143        0.1746  -23.2803  -47.5600 H         1 UNK         0.0600 
    144 H144        0.4506  -21.3376  -45.5228 H         1 UNK         0.3000 
    145 H145        0.2758  -23.7173  -42.8099 H         1 UNK         0.0600 
    146 H146        2.4447  -22.6221  -42.3833 H         1 UNK         0.0600 
    147 H147        2.5823  -23.6761  -43.7819 H         1 UNK         0.0600 
    148 H148        2.4626  -21.9348  -44.0055 H         1 UNK         0.0600 
    149 H149        0.5710  -20.9020  -42.7445 H         1 UNK         0.3000 
    150 H150       -2.9285  -20.0873  -42.4944 H         1 UNK         0.0600 
    151 H151       -2.0661  -20.7264  -40.2280 H         1 UNK         0.0600 
    152 H152       -2.0321  -18.9866  -40.4726 H         1 UNK         0.0600 
    153 H153       -0.5410  -19.9194  -40.5787 H         1 UNK         0.0600 
    154 H154       -0.6739  -18.3887  -42.5361 H         1 UNK         0.3000 
    155 H155       -0.5385  -17.8529  -46.0972 H         1 UNK         0.0600 
    156 H156       -2.1686  -16.2914  -45.1094 H         1 UNK         0.0600 
    157 H157       -0.5731  -15.5531  -45.0814 H         1 UNK         0.0600 
    158 H158       -1.2598  -16.2136  -43.6054 H         1 UNK         0.0600 
    159 H159        1.1985  -16.9091  -44.0948 H         1 UNK         0.3000 
    160 H160        3.5676  -19.5925  -44.1174 H         1 UNK         0.0600 
    161 H161        3.5893  -16.7122  -45.1679 H         1 UNK         0.0600 
    162 H162        4.1540  -18.1386  -46.0192 H         1 UNK         0.0600 
    163 H163        5.0053  -17.5881  -44.5835 H         1 UNK         0.0600 
    164 H164        3.3101  -17.1100  -42.6710 H         1 UNK         0.3000 
    165 H165        1.6923  -18.4939  -39.8022 H         1 UNK         0.0600 
    166 H166        3.7076  -17.5531  -38.7105 H         1 UNK         0.0600 
    167 H167        4.1153  -19.0464  -39.5402 H         1 UNK         0.0600 
    168 H168        4.5592  -17.5007  -40.2543 H         1 UNK         0.0600 
    169 H169        2.6851  -15.8773  -40.4061 H         1 UNK         0.3000 
    170 H170       -0.2574  -14.6156  -41.9535 H         1 UNK         0.0600 
    171 H171       -0.7671  -14.5573  -39.5045 H         1 UNK         0.0600 
    172 H172        0.8961  -14.0924  -39.1632 H         1 UNK         0.0600 
    173 H173       -0.1577  -13.0137  -40.0791 H         1 UNK         0.0600 
    174 H174        2.0116  -13.1871  -41.2574 H         1 UNK         0.3000 
    175 H175        4.0428  -13.0580  -42.5616 H         1 UNK         0.0600 
    176 H176        3.6106  -14.0449  -45.4407 H         1 UNK         0.0600 
    177 H177        4.9680  -13.0703  -44.8814 H         1 UNK         0.0600 
    178 H178        4.7581  -14.7066  -44.2805 H         1 UNK         0.0600 
    179 H179        2.2795  -12.0856  -44.7486 H         1 UNK         0.3000 
    180 H180        0.8254   -9.5412  -42.7855 H         1 UNK         0.0600 
    181 H181        2.5061   -9.4252  -45.3531 H         1 UNK         0.0600 
    182 H182        2.7604   -8.4338  -43.9211 H         1 UNK         0.0600 
    183 H183        1.2867   -8.2512  -44.8602 H         1 UNK         0.0600 
    184 H184        0.3395  -10.6328  -45.4186 H         1 UNK         0.3000 
    185 H185       -1.6050  -13.4100  -44.3824 H         1 UNK         0.0600 
    186 H186       -3.3062  -11.6463  -44.4745 H         1 UNK         0.0600 
    187 H187       -2.5205  -10.8846  -45.8465 H         1 UNK         0.0600 
    188 H188       -3.2386  -12.4867  -46.0155 H         1 UNK         0.0600 
    189 H189       -0.3169  -13.9177  -46.0763 H         1 UNK         0.3000 
    190 H190       -2.3051  -21.3508  -45.8216 H         1 UNK         0.3000 
    191 H191       -4.5583  -22.2250  -47.3056 H         1 UNK         0.0600 
    192 H192       -4.6400  -20.2891  -45.7874 H         1 UNK         0.0600 
    193 H193       -5.8379  -21.4753  -45.2940 H         1 UNK         0.0600 
    194 H194       -4.3352  -21.3206  -44.3911 H         1 UNK         0.0600 
    195 H195       -2.9401  -23.6490  -44.4369 H         1 UNK         0.3000 
    196 H196       -4.8124  -25.8003  -44.1093 H         1 UNK         0.0600 
    197 H197       -3.0724  -26.6818  -42.5445 H         1 UNK         0.0600 
    198 H198       -3.4167  -24.9842  -42.2478 H         1 UNK         0.0600 
    199 H199       -1.9436  -25.4478  -43.0940 H         1 UNK         0.0600 
    200 H200       -1.5165  -25.6577  -45.5850 H         1 UNK         0.3000 
    201 H201       -1.5439  -28.4897  -46.1572 H         1 UNK         0.0600 
    202 H202        0.4968  -27.2652  -45.4361 H         1 UNK         0.0600 
    203 H203        0.4689  -26.3156  -46.9214 H         1 UNK         0.0600 
    204 H204        0.7419  -28.0519  -46.9883 H         1 UNK         0.0600 
    205 H205       -1.9866  -25.5512  -48.1736 H         1 UNK         0.3000 
    206 H206       -2.1964  -27.2640  -50.6283 H         1 UNK         0.0600 
    207 H207        0.0360  -26.1519  -50.4167 H         1 UNK         0.0600 
    208 H208       -0.8748  -25.5022  -51.7673 H         1 UNK         0.0600 
    209 H209       -0.7532  -24.5844  -50.2696 H         1 UNK         0.0600 
    210 H210       -4.0653  -25.4124  -48.6893 H         1 UNK         0.3000 
    211 H211       -5.8891  -24.1411  -48.8631 H         1 UNK         0.0600 
    212 H212       -6.2235  -25.3929  -51.6365 H         1 UNK         0.0600 
    213 H213       -7.4808  -24.5989  -50.6985 H         1 UNK         0.0600 
    214 H214       -6.7715  -26.0955  -50.1176 H         1 UNK         0.0600 
    215 H215       -3.4979  -22.8570  -49.3649 H         1 UNK         0.3000 
    216 H216       -2.5576  -20.9562  -50.0102 H         1 UNK         0.0600 
    217 H217       -3.9552  -18.9808  -50.6032 H         1 UNK         0.0600 
    218 H218       -4.5415  -19.8058  -49.1677 H         1 UNK         0.0600 
    219 H219       -5.3794  -20.0101  -50.7013 H         1 UNK         0.0600 
    220 H220       -2.0821  -22.9208  -51.6046 H         1 UNK         0.3000 
    221 H221       -1.3472  -23.6423  -53.5574 H         1 UNK         0.0600 
    222 H222       -1.3486  -20.7089  -54.4520 H         1 UNK         0.0600 
    223 H223       -0.0450  -21.5238  -53.5878 H         1 UNK         0.0600 
    224 H224       -0.4683  -22.0257  -55.2145 H         1 UNK         0.0600 
    225 H225       -3.9807  -23.9383  -53.1207 H         1 UNK         0.3000 
    226 H226       -5.9077  -24.5827  -53.8644 H         1 UNK         0.0600 
    227 H227       -4.5464  -26.0218  -55.3442 H         1 UNK         0.0600 
    228 H228       -6.0550  -25.5849  -56.1315 H         1 UNK         0.0600 
    229 H229       -4.5607  -24.7901  -56.6060 H         1 UNK         0.0600 
    230 H230       -4.6981  -22.0695  -56.0429 H         1 UNK         0.3000 
    231 H231       -7.4267  -21.2580  -56.8688 H         1 UNK         0.0600 
    232 H232       -4.6534  -20.3965  -57.8510 H         1 UNK         0.0600 
    233 H233       -6.1911  -20.0136  -58.6179 H         1 UNK         0.0600 
    234 H234       -5.6320  -21.6755  -58.5685 H         1 UNK         0.0600 
    235 H235       -5.8724  -20.5612  -54.1636 H         1 UNK         0.3000 
    236 H236       -5.6754  -18.8976  -52.6986 H         1 UNK         0.0600 
    237 H237       -8.1400  -18.6708  -52.9989 H         1 UNK         0.0600 
    238 H238       -7.3894  -17.1301  -52.6155 H         1 UNK         0.0600 
    239 H239       -7.8859  -17.4721  -54.2666 H         1 UNK         0.0600 
    240 H240       -3.7036  -18.9879  -54.3576 H         1 UNK         0.3000 
    241 H241       -1.9916  -18.0712  -55.3644 H         1 UNK         0.0600 
    242 H242       -4.3891  -16.8088  -58.2068 H         1 UNK         0.3800 
    243 H243       -4.9588  -17.6117  -56.7685 H         1 UNK         0.3800 
    244 H244       -1.2658  -15.7272  -54.8986 H         1 UNK         0.0800 
    245 H245       -2.8216  -15.3668  -54.2115 H         1 UNK         0.0800 
    246 H246        0.3355  -17.7685  -53.8978 H         1 UNK         0.0800 
    247 H247        0.6966  -16.1207  -53.4255 H         1 UNK         0.0800 
@<TRIPOS>BOND
     1    1    2 1    
     2    1  127 1    
     3    1  128 1    
     4    1  129 1    
     5    2    3 2    
     6    2    4 am   BACKBONE|DICT|INTERRES
     7    4    5 1    
     8    4  130 1    
     9    5    6 1    
    10    5   65 1    
    11    5  131 1    
    12    6    7 1    
    13    6  132 1    
    14    6  133 1    
    15    7    8 1    
    16    8    9 1    
    17    8  134 1    
    18    8  135 1    
    19    9   10 ar   
    20    9   14 ar   
    21   10   11 ar   
    22   10  136 1    
    23   11   12 ar   
    24   11  126 1    
    25   12   13 ar   
    26   12  137 1    
    27   13   14 ar   
    28   13   15 1    
    29   14  138 1    
    30   15   16 1    
    31   15  139 1    
    32   15  140 1    
    33   16   17 1    
    34   17   18 1    
    35   17  141 1    
    36   17  142 1    
    37   18   19 1    
    38   18   67 1    
    39   18  143 1    
    40   19   20 am   BACKBONE|DICT|INTERRES
    41   19  144 1    
    42   20   21 2    
    43   20   22 1    
    44   22   23 1    
    45   22   24 1    
    46   22  145 1    
    47   23  146 1    
    48   23  147 1    
    49   23  148 1    
    50   24   25 am   BACKBONE|DICT|INTERRES
    51   24  149 1    
    52   25   26 2    
    53   25   27 1    
    54   27   28 1    
    55   27   29 1    
    56   27  150 1    
    57   28  151 1    
    58   28  152 1    
    59   28  153 1    
    60   29   30 am   BACKBONE|DICT|INTERRES
    61   29  154 1    
    62   30   31 2    
    63   30   32 1    
    64   32   33 1    
    65   32   34 1    
    66   32  155 1    
    67   33  156 1    
    68   33  157 1    
    69   33  158 1    
    70   34   35 am   BACKBONE|DICT|INTERRES
    71   34  159 1    
    72   35   36 2    
    73   35   37 1    
    74   37   38 1    
    75   37   39 1    
    76   37  160 1    
    77   38  161 1    
    78   38  162 1    
    79   38  163 1    
    80   39   40 am   BACKBONE|DICT|INTERRES
    81   39  164 1    
    82   40   41 2    
    83   40   42 1    
    84   42   43 1    
    85   42   44 1    
    86   42  165 1    
    87   43  166 1    
    88   43  167 1    
    89   43  168 1    
    90   44   45 am   BACKBONE|DICT|INTERRES
    91   44  169 1    
    92   45   46 2    
    93   45   47 1    
    94   47   48 1    
    95   47   49 1    
    96   47  170 1    
    97   48  171 1    
    98   48  172 1    
    99   48  173 1    
   100   49   50 am   BACKBONE|DICT|INTERRES
   101   49  174 1    
   102   50   51 2    
   103   50   52 1    
   104   52   53 1    
   105   52   54 1    
   106   52  175 1    
   107   53  176 1    
   108   53  177 1    
   109   53  178 1    
   110   54   55 am   BACKBONE|DICT|INTERRES
   111   54  179 1    
   112   55   56 2    
   113   55   57 1    
   114   57   58 1    
   115   57   59 1    
   116   57  180 1    
   117   58  181 1    
   118   58  182 1    
   119   58  183 1    
   120   59   60 am   BACKBONE|DICT|INTERRES
   121   59  184 1    
   122   60   61 2    
   123   60   62 1    
   124   62   63 1    
   125   62   64 1    
   126   62  185 1    
   127   63  186 1    
   128   63  187 1    
   129   63  188 1    
   130   64   65 am   BACKBONE|DICT|INTERRES
   131   64  189 1    
   132   65   66 2    
   133   67   68 2    
   134   67   69 am   BACKBONE|DICT|INTERRES
   135   69   70 1    
   136   69  190 1    
   137   70   71 1    
   138   70   72 1    
   139   70  191 1    
   140   71  192 1    
   141   71  193 1    
   142   71  194 1    
   143   72   73 2    
   144   72   74 am   BACKBONE|DICT|INTERRES
   145   74   75 1    
   146   74  195 1    
   147   75   76 1    
   148   75   77 1    
   149   75  196 1    
   150   76  197 1    
   151   76  198 1    
   152   76  199 1    
   153   77   78 2    
   154   77   79 am   BACKBONE|DICT|INTERRES
   155   79   80 1    
   156   79  200 1    
   157   80   81 1    
   158   80   82 1    
   159   80  201 1    
   160   81  202 1    
   161   81  203 1    
   162   81  204 1    
   163   82   83 2    
   164   82   84 am   BACKBONE|DICT|INTERRES
   165   84   85 1    
   166   84  205 1    
   167   85   86 1    
   168   85   87 1    
   169   85  206 1    
   170   86  207 1    
   171   86  208 1    
   172   86  209 1    
   173   87   88 2    
   174   87   89 am   BACKBONE|DICT|INTERRES
   175   89   90 1    
   176   89  210 1    
   177   90   91 1    
   178   90   92 1    
   179   90  211 1    
   180   91  212 1    
   181   91  213 1    
   182   91  214 1    
   183   92   93 2    
   184   92   94 am   BACKBONE|DICT|INTERRES
   185   94   95 1    
   186   94  215 1    
   187   95   96 1    
   188   95   97 1    
   189   95  216 1    
   190   96  217 1    
   191   96  218 1    
   192   96  219 1    
   193   97   98 2    
   194   97   99 am   BACKBONE|DICT|INTERRES
   195   99  100 1    
   196   99  220 1    
   197  100  101 1    
   198  100  102 1    
   199  100  221 1    
   200  101  222 1    
   201  101  223 1    
   202  101  224 1    
   203  102  103 2    
   204  102  104 am   BACKBONE|DICT|INTERRES
   205  104  105 1    
   206  104  225 1    
   207  105  106 1    
   208  105  107 1    
   209  105  226 1    
   210  106  227 1    
   211  106  228 1    
   212  106  229 1    
   213  107  108 2    
   214  107  109 am   BACKBONE|DICT|INTERRES
   215  109  110 1    
   216  109  230 1    
   217  110  111 1    
   218  110  112 1    
   219  110  231 1    
   220  111  232 1    
   221  111  233 1    
   222  111  234 1    
   223  112  113 2    
   224  112  114 am   BACKBONE|DICT|INTERRES
   225  114  115 1    
   226  114  235 1    
   227  115  116 1    
   228  115  117 1    
   229  115  236 1    
   230  116  237 1    
   231  116  238 1    
   232  116  239 1    
   233  117  118 2    
   234  117  119 am   BACKBONE|DICT|INTERRES
   235  119  120 1    
   236  119  240 1    
   237  120  121 1    
   238  120  124 1    
   239  120  241 1    
   240  121  122 am   BACKBONE|DICT|INTERRES
   241  121  123 2    
   242  122  242 1    
   243  122  243 1    
   244  124  125 1    
   245  124  244 1    
   246  124  245 1    
   247  125  126 1    
   248  126  246 1    
   249  126  247 1    
@<TRIPOS>SUBSTRUCTURE
     1 UNK         1 GROUP             0       ****    0 ROOT    
