@<TRIPOS>MOLECULE
3R540
247   249    1
SMALL
USER_CHARGES


@<TRIPOS>ATOM
      1 CA         -1.3933   -9.8375  -45.0006 C.3       0 UNK        -0.1800 
      2 C          -0.1042  -10.0468  -45.7830 C.2       0 UNK         0.5000 
      3 O           0.3966   -9.1082  -46.4034 O.2       0 UNK        -0.5000 
      4 N           0.4258  -11.2752  -45.7633 N.am      1 UNK        -0.5000 
      5 CA          1.6809  -11.6655  -46.4132 C.3       1 UNK         0.1400 
      6 C6          1.8690  -13.2018  -46.4278 C.3       23 UNK        -0.0398 
      7 S7          0.4955  -14.0969  -47.2252 S.3       23 UNK        -0.2404 
      8 C8          1.0941  -14.2571  -48.9351 C.3       23 UNK        -0.0205 
      9 C9          0.3883  -15.3951  -49.6562 C.ar      23 UNK        -0.0193 
     10 C10        -0.9595  -15.2837  -50.0069 C.ar      23 UNK        -0.1150 
     11 C11        -1.6244  -16.3295  -50.6551 C.ar      23 UNK        -0.0193 
     12 C12        -0.9097  -17.4963  -50.9650 C.ar      23 UNK        -0.1150 
     13 C13         0.4415  -17.6204  -50.6217 C.ar      23 UNK        -0.0193 
     14 C14         1.0822  -16.5655  -49.9684 C.ar      23 UNK        -0.1150 
     15 C15         1.2266  -18.8834  -50.9585 C.3       23 UNK        -0.0205 
     16 S16         0.4511  -20.4126  -50.3433 S.3       23 UNK        -0.2404 
     17 C17         0.2304  -20.0524  -48.5635 C.3       23 UNK        -0.0398 
     18 CA         -0.3198  -21.2556  -47.7563 C.3       11 UNK         0.1400 
     19 N          -0.3828  -20.9757  -46.3198 N.am      11 UNK        -0.5000 
     20 C          -0.6356  -21.8986  -45.3786 C.2       10 UNK         0.5000 
     21 O          -0.8049  -23.0949  -45.6182 O.2       10 UNK        -0.5000 
     22 CA         -0.7701  -21.3961  -43.9306 C.3       10 UNK         0.1400 
     23 CB          0.6122  -21.1216  -43.3199 C.3       10 UNK        -0.1800 
     24 N          -1.5971  -20.1962  -43.8069 N.am      10 UNK        -0.5000 
     25 C          -2.8778  -20.0756  -44.1783 C.2       9 UNK         0.5000 
     26 O          -3.5235  -20.9892  -44.6900 O.2       9 UNK        -0.5000 
     27 CA         -3.5530  -18.7014  -43.9856 C.3       9 UNK         0.1400 
     28 CB         -4.1872  -18.5812  -42.5871 C.3       9 UNK        -0.1800 
     29 N          -2.6852  -17.5562  -44.2970 N.am      9 UNK        -0.5000 
     30 C          -1.5925  -17.1328  -43.6480 C.2       8 UNK         0.5000 
     31 O          -1.1793  -17.6148  -42.5917 O.2       8 UNK        -0.5000 
     32 CA         -0.7814  -16.0284  -44.3421 C.3       8 UNK         0.1400 
     33 CB         -0.8074  -14.7254  -43.5281 C.3       8 UNK        -0.1800 
     34 N           0.6031  -16.4510  -44.5547 N.am      8 UNK        -0.5000 
     35 C           0.9791  -17.4754  -45.3352 C.2       7 UNK         0.5000 
     36 O           0.1869  -18.1989  -45.9402 O.2       7 UNK        -0.5000 
     37 CA          2.4832  -17.7603  -45.4534 C.3       7 UNK         0.1400 
     38 CB          3.1518  -16.7685  -46.4151 C.3       7 UNK        -0.1800 
     39 N           3.1413  -17.6916  -44.1507 N.am      7 UNK        -0.5000 
     40 C           3.8425  -18.6883  -43.5920 C.2       6 UNK         0.5000 
     41 O           4.0556  -19.7691  -44.1425 O.2       6 UNK        -0.5000 
     42 CA          4.4028  -18.4501  -42.1738 C.3       6 UNK         0.1400 
     43 CB          5.8878  -18.0646  -42.2402 C.3       6 UNK        -0.1800 
     44 N           3.6708  -17.4180  -41.4385 N.am      6 UNK        -0.5000 
     45 C           2.4157  -17.5596  -40.9891 C.2       5 UNK         0.5000 
     46 O           1.8066  -18.6286  -41.0223 O.2       5 UNK        -0.5000 
     47 CA          1.7080  -16.3097  -40.4235 C.3       5 UNK         0.1400 
     48 CB          1.4941  -16.4518  -38.9083 C.3       5 UNK        -0.1800 
     49 N           2.3778  -15.0286  -40.6805 N.am      5 UNK        -0.5000 
     50 C           2.6437  -14.4897  -41.8780 C.2       4 UNK         0.5000 
     51 O           2.4126  -15.0611  -42.9470 O.2       4 UNK        -0.5000 
     52 CA          3.2802  -13.0840  -41.8965 C.3       4 UNK         0.1400 
     53 CB          3.8373  -12.6160  -40.5330 C.3       4 UNK        -0.1800 
     54 N           4.3000  -12.9696  -42.9407 N.am      4 UNK        -0.5000 
     55 C           5.4250  -13.6928  -43.0584 C.2       3 UNK         0.5000 
     56 O           5.7804  -14.5331  -42.2307 O.2       3 UNK        -0.5000 
     57 CA          6.2933  -13.4684  -44.3161 C.3       3 UNK         0.1400 
     58 CB          6.4109  -14.7682  -45.1290 C.3       3 UNK        -0.1800 
     59 N           5.7780  -12.4173  -45.1970 N.am      3 UNK        -0.5000 
     60 C           5.9735  -11.1019  -45.0306 C.2       2 UNK         0.5000 
     61 O           6.6824  -10.6216  -44.1460 O.2       2 UNK        -0.5000 
     62 CA          5.2172  -10.1656  -45.9969 C.3       2 UNK         0.1400 
     63 CB          6.1059   -9.7979  -47.1948 C.3       2 UNK        -0.1800 
     64 N           3.9514  -10.7249  -46.4908 N.am      2 UNK        -0.5000 
     65 C           2.8938  -11.0122  -45.7187 C.2       1 UNK         0.5000 
     66 O           2.8818  -10.8468  -44.4966 O.2       1 UNK        -0.5000 
     67 C          -1.6903  -21.7264  -48.2803 C.2       11 UNK         0.5000 
     68 O          -1.7546  -22.7467  -48.9626 O.2       11 UNK        -0.5000 
     69 N          -2.7608  -21.0050  -47.9159 N.am      12 UNK        -0.5000 
     70 CA         -4.1325  -21.3126  -48.3191 C.3       12 UNK         0.1400 
     71 CB         -5.0799  -20.1982  -47.8532 C.3       12 UNK        -0.1800 
     72 C          -4.6064  -22.6896  -47.8236 C.2       12 UNK         0.5000 
     73 O          -5.2079  -23.4319  -48.5996 O.2       12 UNK        -0.5000 
     74 N          -4.2886  -23.0215  -46.5655 N.am      13 UNK        -0.5000 
     75 CA         -4.5568  -24.3212  -45.9529 C.3       13 UNK         0.1400 
     76 CB         -4.2058  -24.2671  -44.4582 C.3       13 UNK        -0.1800 
     77 C          -3.8089  -25.4693  -46.6539 C.2       13 UNK         0.5000 
     78 O          -4.4316  -26.4749  -46.9988 O.2       13 UNK        -0.5000 
     79 N          -2.5011  -25.2838  -46.8885 N.am      14 UNK        -0.5000 
     80 CA         -1.6374  -26.2432  -47.5830 C.3       14 UNK         0.1400 
     81 CB         -0.1784  -25.7711  -47.4946 C.3       14 UNK        -0.1800 
     82 C          -2.0428  -26.4729  -49.0517 C.2       14 UNK         0.5000 
     83 O          -1.9581  -27.5994  -49.5409 O.2       14 UNK        -0.5000 
     84 N          -2.5040  -25.4059  -49.7137 N.am      15 UNK        -0.5000 
     85 CA         -2.9609  -25.3898  -51.1015 C.3       15 UNK         0.1400 
     86 CB         -2.7093  -23.9887  -51.6736 C.3       15 UNK        -0.1800 
     87 C          -4.4324  -25.8135  -51.2879 C.2       15 UNK         0.5000 
     88 O          -4.9609  -25.6305  -52.3857 O.2       15 UNK        -0.5000 
     89 N          -5.0612  -26.3655  -50.2383 N.am      16 UNK        -0.5000 
     90 CA         -6.4243  -26.9048  -50.1995 C.3       16 UNK         0.1400 
     91 CB         -6.5545  -28.1306  -51.1283 C.3       16 UNK        -0.1800 
     92 C          -7.4850  -25.8228  -50.4772 C.2       16 UNK         0.5000 
     93 O          -8.1799  -25.8717  -51.4930 O.2       16 UNK        -0.5000 
     94 N          -7.5562  -24.8445  -49.5647 N.am      17 UNK        -0.5000 
     95 CA         -8.3933  -23.6403  -49.6175 C.3       17 UNK         0.1400 
     96 CB         -9.8965  -23.9907  -49.6147 C.3       17 UNK        -0.1800 
     97 C          -7.9767  -22.7104  -50.7743 C.2       17 UNK         0.5000 
     98 O          -8.8268  -22.1874  -51.4960 O.2       17 UNK        -0.5000 
     99 N          -6.6536  -22.5487  -50.9230 N.am      18 UNK        -0.5000 
    100 CA        -5.9390  -21.7256  -51.9052 C.3       18 UNK         0.1400 
    101 CB        -6.3132  -20.2387  -51.7524 C.3       18 UNK        -0.1800 
    102 C         -6.0537  -22.1953  -53.3697 C.2       18 UNK         0.5000 
    103 O         -5.5207  -21.5172  -54.2492 O.2       18 UNK        -0.5000 
    104 N         -6.7035  -23.3400  -53.6214 N.am      19 UNK        -0.5000 
    105 CA        -6.9830  -23.8861  -54.9519 C.3       19 UNK         0.1400 
    106 CB        -7.8237  -25.1627  -54.8039 C.3       19 UNK        -0.1800 
    107 C         -5.7246  -24.1644  -55.7944 C.2       19 UNK         0.5000 
    108 O         -5.7391  -23.9301  -57.0034 O.2       19 UNK        -0.5000 
    109 N         -4.6569  -24.6313  -55.1371 N.am      20 UNK        -0.5000 
    110 CA        -3.3545  -24.9014  -55.7476 C.3       20 UNK         0.1400 
    111 CB        -2.7550  -26.1517  -55.0818 C.3       20 UNK        -0.1800 
    112 C         -2.3826  -23.7031  -55.6656 C.2       20 UNK         0.5000 
    113 O         -1.2124  -23.8671  -56.0153 O.2       20 UNK        -0.5000 
    114 N         -2.8486  -22.5376  -55.1948 N.am      21 UNK        -0.5000 
    115 CA        -2.0389  -21.3398  -54.9838 C.3       21 UNK         0.1400 
    116 CB        -1.5888  -21.2699  -53.5084 C.3       21 UNK        -0.1800 
    117 C         -2.7967  -20.0953  -55.4783 C.2       21 UNK         0.5000 
    118 O         -3.0878  -20.0015  -56.6717 O.2       21 UNK        -0.5000 
    119 N         -3.0585  -19.1481  -54.5710 N.am      22 UNK        -0.5000 
    120 CA        -3.6264  -17.8182  -54.8381 C.3       22 UNK         0.1400 
    121 C         -5.1319  -17.7691  -55.2399 C.2       22 UNK         0.5000 
    122 N         -5.8827  -18.8618  -55.2050 N.am      22 UNK        -0.7600 
    123 O         -5.6281  -16.7095  -55.6138 O.2       22 UNK        -0.5000 
    124 C124       -3.2902  -16.8327  -53.6863 C.3       23 UNK        -0.0398 
    125 S125       -3.8784  -17.3936  -52.0500 S.3       23 UNK        -0.2404 
    126 C126       -3.1162  -16.1535  -50.9500 C.3       23 UNK        -0.0205 
    127 H127       -1.2483   -9.0733  -44.2369 H         1 UNK         0.0600 
    128 H128       -2.1887   -9.5073  -45.6689 H         1 UNK         0.0600 
    129 H129       -1.7216  -10.7530  -44.5074 H         1 UNK         0.0600 
    130 H130       -0.0344  -12.0033  -45.2383 H         1 UNK         0.3000 
    131 H131        1.6449  -11.3119  -47.4459 H         1 UNK         0.0600 
    132 H132        1.9536  -13.5824  -45.4076 H         1 UNK         0.0800 
    133 H133        2.8025  -13.4720  -46.9237 H         1 UNK         0.0800 
    134 H134        0.9241  -13.3204  -49.4677 H         1 UNK         0.0800 
    135 H135        2.1719  -14.4254  -48.9382 H         1 UNK         0.0800 
    136 H136       -1.4981  -14.3811  -49.7531 H         1 UNK         0.1150 
    137 H137       -1.3958  -18.3251  -51.4572 H         1 UNK         0.1150 
    138 H138        2.1261  -16.6552  -49.7038 H         1 UNK         0.1150 
    139 H139        1.3277  -18.9539  -52.0421 H         1 UNK         0.0800 
    140 H140        2.2403  -18.8278  -50.5589 H         1 UNK         0.0800 
    141 H141       -0.4301  -19.1902  -48.4565 H         1 UNK         0.0800 
    142 H142        1.1958  -19.7471  -48.1578 H         1 UNK         0.0800 
    143 H143        0.3780  -22.0856  -47.8883 H         1 UNK         0.0600 
    144 H144       -0.2646  -20.0030  -46.0448 H         1 UNK         0.3000 
    145 H145       -1.2501  -22.1866  -43.3503 H         1 UNK         0.0600 
    146 H146        0.5322  -20.8653  -42.2633 H         1 UNK         0.0600 
    147 H147        1.2565  -21.9986  -43.3940 H         1 UNK         0.0600 
    148 H148        1.1189  -20.2978  -43.8236 H         1 UNK         0.0600 
    149 H149       -1.1668  -19.3859  -43.3715 H         1 UNK         0.3000 
    150 H150       -4.3657  -18.6544  -44.7121 H         1 UNK         0.0600 
    151 H151       -4.9260  -19.3679  -42.4299 H         1 UNK         0.0600 
    152 H152       -4.6984  -17.6262  -42.4664 H         1 UNK         0.0600 
    153 H153       -3.4478  -18.6701  -41.7910 H         1 UNK         0.0600 
    154 H154       -2.9005  -17.1023  -45.1737 H         1 UNK         0.3000 
    155 H155       -1.2178  -15.8251  -45.3221 H         1 UNK         0.0600 
    156 H156       -0.2219  -13.9446  -44.0127 H         1 UNK         0.0600 
    157 H157       -0.4079  -14.8680  -42.5242 H         1 UNK         0.0600 
    158 H158       -1.8269  -14.3524  -43.4244 H         1 UNK         0.0600 
    159 H159        1.3077  -15.9205  -44.0489 H         1 UNK         0.3000 
    160 H160        2.5807  -18.7600  -45.8819 H         1 UNK         0.0600 
    161 H161        3.1461  -15.7572  -46.0107 H         1 UNK         0.0600 
    162 H162        2.6348  -16.7441  -47.3742 H         1 UNK         0.0600 
    163 H163        4.1876  -17.0473  -46.6083 H         1 UNK         0.0600 
    164 H164        2.9991  -16.8408  -43.6166 H         1 UNK         0.3000 
    165 H165        4.3185  -19.3890  -41.6224 H         1 UNK         0.0600 
    166 H166        6.0384  -17.1472  -42.8088 H         1 UNK         0.0600 
    167 H167        6.3041  -17.9154  -41.2438 H         1 UNK         0.0600 
    168 H168        6.4726  -18.8482  -42.7235 H         1 UNK         0.0600 
    169 H169        4.1066  -16.5081  -41.3775 H         1 UNK         0.3000 
    170 H170        0.7275  -16.2669  -40.9010 H         1 UNK         0.0600 
    171 H171        0.9589  -17.3724  -38.6716 H         1 UNK         0.0600 
    172 H172        2.4425  -16.4756  -38.3701 H         1 UNK         0.0600 
    173 H173        0.9024  -15.6258  -38.5132 H         1 UNK         0.0600 
    174 H174        2.6308  -14.4960  -39.8609 H         1 UNK         0.3000 
    175 H175        2.4804  -12.3984  -42.1789 H         1 UNK         0.0600 
    176 H176        4.2998  -11.6327  -40.6206 H         1 UNK         0.0600 
    177 H177        3.0449  -12.5263  -39.7892 H         1 UNK         0.0600 
    178 H178        4.5906  -13.2996  -40.1394 H         1 UNK         0.0600 
    179 H179        4.0826  -12.2960  -43.6653 H         1 UNK         0.3000 
    180 H180        7.2924  -13.1891  -43.9755 H         1 UNK         0.0600 
    181 H181        5.4356  -15.1226  -45.4613 H         1 UNK         0.0600 
    182 H182        6.8641  -15.5633  -44.5361 H         1 UNK         0.0600 
    183 H183        7.0369  -14.6285  -46.0105 H         1 UNK         0.0600 
    184 H184        5.1956  -12.7184  -45.9633 H         1 UNK         0.3000 
    185 H185        4.9862   -9.2494  -45.4493 H         1 UNK         0.0600 
    186 H186        5.6164   -9.0690  -47.8409 H         1 UNK         0.0600 
    187 H187        7.0459   -9.3550  -46.8625 H         1 UNK         0.0600 
    188 H188        6.3509  -10.6726  -47.7986 H         1 UNK         0.0600 
    189 H189        3.8946  -10.8856  -47.4866 H         1 UNK         0.3000 
    190 H190       -2.6281  -20.2088  -47.3114 H         1 UNK         0.3000 
    191 H191       -4.1507  -21.3330  -49.4097 H         1 UNK         0.0600 
    192 H192       -4.7932  -19.2350  -48.2759 H         1 UNK         0.0600 
    193 H193       -6.1034  -20.4002  -48.1720 H         1 UNK         0.0600 
    194 H194       -5.0889  -20.1012  -46.7675 H         1 UNK         0.0600 
    195 H195       -3.8322  -22.3281  -45.9775 H         1 UNK         0.3000 
    196 H196       -5.6272  -24.5173  -46.0432 H         1 UNK         0.0600 
    197 H197       -4.4009  -25.2251  -43.9748 H         1 UNK         0.0600 
    198 H198       -4.8019  -23.5143  -43.9422 H         1 UNK         0.0600 
    199 H199       -3.1545  -24.0245  -44.2989 H         1 UNK         0.0600 
    200 H200       -2.0591  -24.4279  -46.5679 H         1 UNK         0.3000 
    201 H201       -1.7180  -27.2007  -47.0644 H         1 UNK         0.0600 
    202 H202        0.1463  -25.6875  -46.4573 H         1 UNK         0.0600 
    203 H203       -0.0424  -24.7971  -47.9663 H         1 UNK         0.0600 
    204 H204        0.4922  -26.4742  -47.9901 H         1 UNK         0.0600 
    205 H205       -2.4739  -24.5021  -49.2485 H         1 UNK         0.3000 
    206 H206       -2.3581  -26.0974  -51.6730 H         1 UNK         0.0600 
    207 H207       -1.6484  -23.7421  -51.6379 H         1 UNK         0.0600 
    208 H208       -3.0269  -23.9097  -52.7117 H         1 UNK         0.0600 
    209 H209       -3.2438  -23.2306  -51.1045 H         1 UNK         0.0600 
    210 H210       -4.5486  -26.4223  -49.3677 H         1 UNK         0.3000 
    211 H211       -6.5894  -27.2516  -49.1782 H         1 UNK         0.0600 
    212 H212       -6.4201  -27.8667  -52.1779 H         1 UNK         0.0600 
    213 H213       -7.5404  -28.5867  -51.0321 H         1 UNK         0.0600 
    214 H214       -5.8173  -28.8935  -50.8783 H         1 UNK         0.0600 
    215 H215       -6.8621  -24.8434  -48.8269 H         1 UNK         0.3000 
    216 H216       -8.1870  -23.0887  -48.6991 H         1 UNK         0.0600 
    217 H217      -10.1455  -24.6521  -48.7850 H         1 UNK         0.0600 
    218 H218      -10.2055  -24.4795  -50.5389 H         1 UNK         0.0600 
    219 H219      -10.5036  -23.0913  -49.5059 H         1 UNK         0.0600 
    220 H220       -6.0646  -23.0376  -50.2535 H         1 UNK         0.3000 
    221 H221       -4.8826  -21.8108  -51.6588 H         1 UNK         0.0600 
    222 H222       -7.3533  -20.0483  -52.0169 H         1 UNK         0.0600 
    223 H223       -6.1546  -19.8911  -50.7321 H         1 UNK         0.0600 
    224 H224       -5.7009  -19.6158  -52.4027 H         1 UNK         0.0600 
    225 H225       -7.0666  -23.8661  -52.8384 H         1 UNK         0.3000 
    226 H226       -7.5788  -23.1451  -55.4883 H         1 UNK         0.0600 
    227 H227       -8.7607  -24.9600  -54.2847 H         1 UNK         0.0600 
    228 H228       -8.0748  -25.5833  -55.7783 H         1 UNK         0.0600 
    229 H229       -7.2899  -25.9296  -54.2405 H         1 UNK         0.0600 
    230 H230       -4.7525  -24.8371  -54.1454 H         1 UNK         0.3000 
    231 H231       -3.4889  -25.1275  -56.8073 H         1 UNK         0.0600 
    232 H232       -3.4458  -26.9938  -55.1275 H         1 UNK         0.0600 
    233 H233       -2.5141  -25.9729  -54.0353 H         1 UNK         0.0600 
    234 H234       -1.8357  -26.4609  -55.5806 H         1 UNK         0.0600 
    235 H235       -3.8376  -22.4410  -54.9903 H         1 UNK         0.3000 
    236 H236       -1.1385  -21.3872  -55.5995 H         1 UNK         0.0600 
    237 H237       -0.9673  -22.1283  -53.2551 H         1 UNK         0.0600 
    238 H238       -0.9836  -20.3828  -53.3160 H         1 UNK         0.0600 
    239 H239       -2.4357  -21.2571  -52.8214 H         1 UNK         0.0600 
    240 H240       -2.8221  -19.3259  -53.6065 H         1 UNK         0.3000 
    241 H241       -3.1040  -17.4426  -55.7201 H         1 UNK         0.0600 
    242 H242       -5.5115  -19.7581  -54.9021 H         1 UNK         0.3800 
    243 H243       -6.8484  -18.7986  -55.4820 H         1 UNK         0.3800 
    244 H244       -2.2087  -16.7003  -53.6318 H         1 UNK         0.0800 
    245 H245       -3.6974  -15.8408  -53.8895 H         1 UNK         0.0800 
    246 H246       -3.2914  -15.1615  -51.3694 H         1 UNK         0.0800 
    247 H247       -3.6495  -16.1816  -49.9990 H         1 UNK         0.0800 
@<TRIPOS>BOND
     1    1    2 1    
     2    1  127 1    
     3    1  128 1    
     4    1  129 1    
     5    2    3 2    
     6    2    4 am   BACKBONE|DICT|INTERRES
     7    4    5 1    
     8    4  130 1    
     9    5    6 1    
    10    5   65 1    
    11    5  131 1    
    12    6    7 1    
    13    6  132 1    
    14    6  133 1    
    15    7    8 1    
    16    8    9 1    
    17    8  134 1    
    18    8  135 1    
    19    9   10 ar   
    20    9   14 ar   
    21   10   11 ar   
    22   10  136 1    
    23   11   12 ar   
    24   11  126 1    
    25   12   13 ar   
    26   12  137 1    
    27   13   14 ar   
    28   13   15 1    
    29   14  138 1    
    30   15   16 1    
    31   15  139 1    
    32   15  140 1    
    33   16   17 1    
    34   17   18 1    
    35   17  141 1    
    36   17  142 1    
    37   18   19 1    
    38   18   67 1    
    39   18  143 1    
    40   19   20 am   BACKBONE|DICT|INTERRES
    41   19  144 1    
    42   20   21 2    
    43   20   22 1    
    44   22   23 1    
    45   22   24 1    
    46   22  145 1    
    47   23  146 1    
    48   23  147 1    
    49   23  148 1    
    50   24   25 am   BACKBONE|DICT|INTERRES
    51   24  149 1    
    52   25   26 2    
    53   25   27 1    
    54   27   28 1    
    55   27   29 1    
    56   27  150 1    
    57   28  151 1    
    58   28  152 1    
    59   28  153 1    
    60   29   30 am   BACKBONE|DICT|INTERRES
    61   29  154 1    
    62   30   31 2    
    63   30   32 1    
    64   32   33 1    
    65   32   34 1    
    66   32  155 1    
    67   33  156 1    
    68   33  157 1    
    69   33  158 1    
    70   34   35 am   BACKBONE|DICT|INTERRES
    71   34  159 1    
    72   35   36 2    
    73   35   37 1    
    74   37   38 1    
    75   37   39 1    
    76   37  160 1    
    77   38  161 1    
    78   38  162 1    
    79   38  163 1    
    80   39   40 am   BACKBONE|DICT|INTERRES
    81   39  164 1    
    82   40   41 2    
    83   40   42 1    
    84   42   43 1    
    85   42   44 1    
    86   42  165 1    
    87   43  166 1    
    88   43  167 1    
    89   43  168 1    
    90   44   45 am   BACKBONE|DICT|INTERRES
    91   44  169 1    
    92   45   46 2    
    93   45   47 1    
    94   47   48 1    
    95   47   49 1    
    96   47  170 1    
    97   48  171 1    
    98   48  172 1    
    99   48  173 1    
   100   49   50 am   BACKBONE|DICT|INTERRES
   101   49  174 1    
   102   50   51 2    
   103   50   52 1    
   104   52   53 1    
   105   52   54 1    
   106   52  175 1    
   107   53  176 1    
   108   53  177 1    
   109   53  178 1    
   110   54   55 am   BACKBONE|DICT|INTERRES
   111   54  179 1    
   112   55   56 2    
   113   55   57 1    
   114   57   58 1    
   115   57   59 1    
   116   57  180 1    
   117   58  181 1    
   118   58  182 1    
   119   58  183 1    
   120   59   60 am   BACKBONE|DICT|INTERRES
   121   59  184 1    
   122   60   61 2    
   123   60   62 1    
   124   62   63 1    
   125   62   64 1    
   126   62  185 1    
   127   63  186 1    
   128   63  187 1    
   129   63  188 1    
   130   64   65 am   BACKBONE|DICT|INTERRES
   131   64  189 1    
   132   65   66 2    
   133   67   68 2    
   134   67   69 am   BACKBONE|DICT|INTERRES
   135   69   70 1    
   136   69  190 1    
   137   70   71 1    
   138   70   72 1    
   139   70  191 1    
   140   71  192 1    
   141   71  193 1    
   142   71  194 1    
   143   72   73 2    
   144   72   74 am   BACKBONE|DICT|INTERRES
   145   74   75 1    
   146   74  195 1    
   147   75   76 1    
   148   75   77 1    
   149   75  196 1    
   150   76  197 1    
   151   76  198 1    
   152   76  199 1    
   153   77   78 2    
   154   77   79 am   BACKBONE|DICT|INTERRES
   155   79   80 1    
   156   79  200 1    
   157   80   81 1    
   158   80   82 1    
   159   80  201 1    
   160   81  202 1    
   161   81  203 1    
   162   81  204 1    
   163   82   83 2    
   164   82   84 am   BACKBONE|DICT|INTERRES
   165   84   85 1    
   166   84  205 1    
   167   85   86 1    
   168   85   87 1    
   169   85  206 1    
   170   86  207 1    
   171   86  208 1    
   172   86  209 1    
   173   87   88 2    
   174   87   89 am   BACKBONE|DICT|INTERRES
   175   89   90 1    
   176   89  210 1    
   177   90   91 1    
   178   90   92 1    
   179   90  211 1    
   180   91  212 1    
   181   91  213 1    
   182   91  214 1    
   183   92   93 2    
   184   92   94 am   BACKBONE|DICT|INTERRES
   185   94   95 1    
   186   94  215 1    
   187   95   96 1    
   188   95   97 1    
   189   95  216 1    
   190   96  217 1    
   191   96  218 1    
   192   96  219 1    
   193   97   98 2    
   194   97   99 am   BACKBONE|DICT|INTERRES
   195   99  100 1    
   196   99  220 1    
   197  100  101 1    
   198  100  102 1    
   199  100  221 1    
   200  101  222 1    
   201  101  223 1    
   202  101  224 1    
   203  102  103 2    
   204  102  104 am   BACKBONE|DICT|INTERRES
   205  104  105 1    
   206  104  225 1    
   207  105  106 1    
   208  105  107 1    
   209  105  226 1    
   210  106  227 1    
   211  106  228 1    
   212  106  229 1    
   213  107  108 2    
   214  107  109 am   BACKBONE|DICT|INTERRES
   215  109  110 1    
   216  109  230 1    
   217  110  111 1    
   218  110  112 1    
   219  110  231 1    
   220  111  232 1    
   221  111  233 1    
   222  111  234 1    
   223  112  113 2    
   224  112  114 am   BACKBONE|DICT|INTERRES
   225  114  115 1    
   226  114  235 1    
   227  115  116 1    
   228  115  117 1    
   229  115  236 1    
   230  116  237 1    
   231  116  238 1    
   232  116  239 1    
   233  117  118 2    
   234  117  119 am   BACKBONE|DICT|INTERRES
   235  119  120 1    
   236  119  240 1    
   237  120  121 1    
   238  120  124 1    
   239  120  241 1    
   240  121  122 am   BACKBONE|DICT|INTERRES
   241  121  123 2    
   242  122  242 1    
   243  122  243 1    
   244  124  125 1    
   245  124  244 1    
   246  124  245 1    
   247  125  126 1    
   248  126  246 1    
   249  126  247 1    
@<TRIPOS>SUBSTRUCTURE
     1 UNK         1 GROUP             0       ****    0 ROOT    
