@<TRIPOS>MOLECULE
3R540
247   249    1
SMALL
USER_CHARGES


@<TRIPOS>ATOM
      1 CA          7.7625  -14.8305  -44.2347 C.3       0 UNK        -0.1800 
      2 C           6.2579  -14.8288  -44.0050 C.2       0 UNK         0.5000 
      3 O           5.8127  -14.8164  -42.8576 O.2       0 UNK        -0.5000 
      4 N           5.4754  -14.8435  -45.0911 N.am      1 UNK        -0.5000 
      5 CA          4.0082  -14.8216  -45.0713 C.3       1 UNK         0.1400 
      6 C6          3.4029  -15.2670  -46.4266 C.3       23 UNK        -0.0398 
      7 S7          4.0163  -14.2961  -47.8513 S.3       23 UNK        -0.2404 
      8 C8          2.9051  -14.8470  -49.1902 C.3       23 UNK        -0.0205 
      9 C9          3.0703  -16.2952  -49.6580 C.ar      23 UNK        -0.0193 
     10 C10         2.0851  -16.8279  -50.4947 C.ar      23 UNK        -0.1150 
     11 C11         2.1647  -18.1448  -50.9532 C.ar      23 UNK        -0.0193 
     12 C12         3.2436  -18.9415  -50.5625 C.ar      23 UNK        -0.1150 
     13 C13         4.2521  -18.4243  -49.7453 C.ar      23 UNK        -0.0193 
     14 C14         4.1669  -17.0975  -49.3096 C.ar      23 UNK        -0.1150 
     15 C15         5.4375  -19.3056  -49.3602 C.3       23 UNK        -0.0205 
     16 S16         5.8063  -19.3346  -47.5705 S.3       23 UNK        -0.2404 
     17 C17         4.1915  -19.7476  -46.8292 C.3       23 UNK        -0.0398 
     18 CA          3.9896  -21.2420  -46.4770 C.3       11 UNK         0.1400 
     19 N           2.8512  -21.4048  -45.5677 N.am      11 UNK        -0.5000 
     20 C           2.4704  -22.5367  -44.9610 C.2       10 UNK         0.5000 
     21 O           3.0715  -23.6059  -45.0608 O.2       10 UNK        -0.5000 
     22 CA          1.1732  -22.4706  -44.1303 C.3       10 UNK         0.1400 
     23 CB          1.4435  -21.8954  -42.7321 C.3       10 UNK        -0.1800 
     24 N           0.1180  -21.6944  -44.7857 N.am      10 UNK        -0.5000 
     25 C          -0.4753  -22.0504  -45.9345 C.2       9 UNK         0.5000 
     26 O          -0.2203  -23.0915  -46.5382 O.2       9 UNK        -0.5000 
     27 CA         -1.4839  -21.0580  -46.5387 C.3       9 UNK         0.1400 
     28 CB         -2.8395  -21.1600  -45.8229 C.3       9 UNK        -0.1800 
     29 N          -1.0064  -19.6749  -46.5077 N.am      9 UNK        -0.5000 
     30 C           0.1070  -19.2417  -47.1175 C.2       8 UNK         0.5000 
     31 O           0.8320  -19.9584  -47.8054 O.2       8 UNK        -0.5000 
     32 CA          0.5272  -17.7861  -46.8451 C.3       8 UNK         0.1400 
     33 CB         -0.3042  -16.8028  -47.6817 C.3       8 UNK        -0.1800 
     34 N           0.4263  -17.4347  -45.4270 N.am      8 UNK        -0.5000 
     35 C           1.1078  -18.0298  -44.4374 C.2       7 UNK         0.5000 
     36 O           1.9627  -18.8911  -44.6251 O.2       7 UNK        -0.5000 
     37 CA          0.7426  -17.6461  -42.9939 C.3       7 UNK         0.1400 
     38 CB          1.4685  -16.3728  -42.5510 C.3       7 UNK        -0.1800 
     39 N          -0.6959  -17.4666  -42.8293 N.am      7 UNK        -0.5000 
     40 C          -1.5760  -18.4748  -42.7930 C.2       6 UNK         0.5000 
     41 O          -1.2601  -19.6628  -42.8684 O.2       6 UNK        -0.5000 
     42 CA         -3.0601  -18.0785  -42.6900 C.3       6 UNK         0.1400 
     43 CB         -3.4554  -17.8299  -41.2268 C.3       6 UNK        -0.1800 
     44 N          -3.3852  -16.8944  -43.4901 N.am      6 UNK        -0.5000 
     45 C          -3.3347  -16.8645  -44.8285 C.2       5 UNK         0.5000 
     46 O          -3.0004  -17.8268  -45.5172 O.2       5 UNK        -0.5000 
     47 CA         -3.6771  -15.5284  -45.5107 C.3       5 UNK         0.1400 
     48 CB         -5.1992  -15.3456  -45.6069 C.3       5 UNK        -0.1800 
     49 N          -3.0834  -14.3531  -44.8647 N.am      5 UNK        -0.5000 
     50 C          -1.7688  -14.1482  -44.7101 C.2       4 UNK         0.5000 
     51 O          -0.9081  -14.9867  -44.9814 O.2       4 UNK        -0.5000 
     52 CA         -1.3361  -12.7826  -44.1560 C.3       4 UNK         0.1400 
     53 CB         -0.8285  -12.9121  -42.7120 C.3       4 UNK        -0.1800 
     54 N          -0.2765  -12.2303  -44.9987 N.am      4 UNK        -0.5000 
     55 C          -0.4962  -11.5541  -46.1366 C.2       3 UNK         0.5000 
     56 O          -1.6273  -11.2671  -46.5333 O.2       3 UNK        -0.5000 
     57 CA          0.7257  -11.1487  -46.9965 C.3       3 UNK         0.1400 
     58 CB          0.5477   -9.7677  -47.6614 C.3       3 UNK        -0.1800 
     59 N           2.0166  -11.2340  -46.3051 N.am      3 UNK        -0.5000 
     60 C           2.4337  -10.5349  -45.2376 C.2       2 UNK         0.5000 
     61 O           1.7936   -9.6138  -44.7283 O.2       2 UNK        -0.5000 
     62 CA          3.7888  -10.9667  -44.6242 C.3       2 UNK         0.1400 
     63 CB          3.8558  -10.6992  -43.1063 C.3       2 UNK        -0.1800 
     64 N           4.1553  -12.3643  -44.9061 N.am      2 UNK        -0.5000 
     65 C           3.4314  -13.4608  -44.6246 C.2       1 UNK         0.5000 
     66 O           2.3298  -13.4233  -44.0789 O.2       1 UNK        -0.5000 
     67 C           3.8417  -22.1172  -47.7406 C.2       11 UNK         0.5000 
     68 O           4.7850  -22.8148  -48.1162 O.2       11 UNK        -0.5000 
     69 N           2.6509  -22.0868  -48.3536 N.am      12 UNK        -0.5000 
     70 CA          2.2929  -22.8849  -49.5265 C.3       12 UNK         0.1400 
     71 CB          1.0161  -22.2959  -50.1439 C.3       12 UNK        -0.1800 
     72 C           2.0816  -24.3805  -49.2216 C.2       12 UNK         0.5000 
     73 O           2.1379  -25.1900  -50.1479 O.2       12 UNK        -0.5000 
     74 N           1.8100  -24.7079  -47.9489 N.am      13 UNK        -0.5000 
     75 CA          1.3381  -26.0003  -47.4393 C.3       13 UNK         0.1400 
     76 CB          2.4111  -27.0964  -47.6051 C.3       13 UNK        -0.1800 
     77 C          -0.0281  -26.3685  -48.0567 C.2       13 UNK         0.5000 
     78 O          -0.2134  -27.4760  -48.5657 O.2       13 UNK        -0.5000 
     79 N          -0.9416  -25.3933  -48.0321 N.am      14 UNK        -0.5000 
     80 CA         -2.2512  -25.4159  -48.6722 C.3       14 UNK         0.1400 
     81 CB         -2.1829  -24.5270  -49.9287 C.3       14 UNK        -0.1800 
     82 C          -3.3361  -24.9447  -47.6861 C.2       14 UNK         0.5000 
     83 O          -3.0888  -24.8455  -46.4817 O.2       14 UNK        -0.5000 
     84 N          -4.5302  -24.6783  -48.2190 N.am      15 UNK        -0.5000 
     85 CA         -5.6928  -24.1431  -47.5232 C.3       15 UNK         0.1400 
     86 CB         -6.4681  -25.2885  -46.8466 C.3       15 UNK        -0.1800 
     87 C          -6.5612  -23.4027  -48.5525 C.2       15 UNK         0.5000 
     88 O          -6.3161  -23.5301  -49.7550 O.2       15 UNK        -0.5000 
     89 N          -7.5561  -22.6518  -48.0593 N.am      16 UNK        -0.5000 
     90 CA         -8.5106  -21.8639  -48.8432 C.3       16 UNK         0.1400 
     91 CB         -9.4490  -21.1155  -47.8824 C.3       16 UNK        -0.1800 
     92 C          -9.3003  -22.7142  -49.8582 C.2       16 UNK         0.5000 
     93 O         -10.2094  -23.4483  -49.4640 O.2       16 UNK        -0.5000 
     94 N          -8.9237  -22.6086  -51.1356 N.am      17 UNK        -0.5000 
     95 CA         -9.4903  -23.3463  -52.2601 C.3       17 UNK         0.1400 
     96 CB         -8.9965  -24.8115  -52.2385 C.3       17 UNK        -0.1800 
     97 C          -9.1542  -22.5891  -53.5584 C.2       17 UNK         0.5000 
     98 O          -9.2487  -21.3590  -53.5847 O.2       17 UNK        -0.5000 
     99 N          -8.7652  -23.3177  -54.6139 N.am      18 UNK        -0.5000 
    100 CA        -8.2230  -22.7618  -55.8539 C.3       18 UNK         0.1400 
    101 CB        -8.0966  -23.8808  -56.8988 C.3       18 UNK        -0.1800 
    102 C         -6.8578  -22.1002  -55.5913 C.2       18 UNK         0.5000 
    103 O         -6.0413  -22.6794  -54.8725 O.2       18 UNK        -0.5000 
    104 N         -6.6572  -20.9055  -56.1659 N.am      19 UNK        -0.5000 
    105 CA        -5.5511  -19.9719  -55.9026 C.3       19 UNK         0.1400 
    106 CB        -4.1752  -20.5931  -56.2266 C.3       19 UNK        -0.1800 
    107 C         -5.6211  -19.3422  -54.4919 C.2       19 UNK         0.5000 
    108 O         -4.5900  -18.9700  -53.9272 O.2       19 UNK        -0.5000 
    109 N         -6.8493  -19.2111  -53.9650 N.am      20 UNK        -0.5000 
    110 CA        -7.2051  -18.6687  -52.6522 C.3       20 UNK         0.1400 
    111 CB        -6.9035  -17.1539  -52.5852 C.3       20 UNK        -0.1800 
    112 C         -6.5769  -19.4982  -51.5148 C.2       20 UNK         0.5000 
    113 O         -6.6681  -20.7265  -51.5510 O.2       20 UNK        -0.5000 
    114 N         -5.9526  -18.8326  -50.5332 N.am      21 UNK        -0.5000 
    115 CA        -5.2625  -19.4404  -49.3898 C.3       21 UNK         0.1400 
    116 CB        -4.7702  -18.3194  -48.4638 C.3       21 UNK        -0.1800 
    117 C         -4.0930  -20.3638  -49.7841 C.2       21 UNK         0.5000 
    118 O         -3.8018  -21.3166  -49.0634 O.2       21 UNK        -0.5000 
    119 N         -3.4703  -20.0702  -50.9295 N.am      22 UNK        -0.5000 
    120 CA        -2.4215  -20.8798  -51.5628 C.3       22 UNK         0.1400 
    121 C         -2.9841  -21.9649  -52.5301 C.2       22 UNK         0.5000 
    122 N         -4.2922  -22.1700  -52.6168 N.am      22 UNK        -0.7600 
    123 O         -2.2183  -22.6347  -53.2176 O.2       22 UNK        -0.5000 
    124 C124       -1.3747  -19.9746  -52.2610 C.3       23 UNK        -0.0398 
    125 S125       -0.5008  -18.9042  -51.0676 S.3       23 UNK        -0.2404 
    126 C126        1.1051  -18.6960  -51.8963 C.3       23 UNK        -0.0205 
    127 H127        8.0108  -14.8486  -45.2962 H         1 UNK         0.0600 
    128 H128        8.2126  -15.7055  -43.7657 H         1 UNK         0.0600 
    129 H129        8.2100  -13.9388  -43.7958 H         1 UNK         0.0600 
    130 H130        5.8958  -14.8548  -46.0102 H         1 UNK         0.3000 
    131 H131        3.6881  -15.5513  -44.3269 H         1 UNK         0.0600 
    132 H132        3.6433  -16.3171  -46.5962 H         1 UNK         0.0800 
    133 H133        2.3127  -15.2152  -46.3958 H         1 UNK         0.0800 
    134 H134        1.8746  -14.6830  -48.8723 H         1 UNK         0.0800 
    135 H135        3.0672  -14.1950  -50.0495 H         1 UNK         0.0800 
    136 H136        1.2458  -16.2151  -50.7930 H         1 UNK         0.1150 
    137 H137        3.3072  -19.9629  -50.9102 H         1 UNK         0.1150 
    138 H138        4.9605  -16.7052  -48.6914 H         1 UNK         0.1150 
    139 H139        5.2781  -20.3313  -49.6958 H         1 UNK         0.0800 
    140 H140        6.3208  -18.9483  -49.8906 H         1 UNK         0.0800 
    141 H141        4.1460  -19.1577  -45.9141 H         1 UNK         0.0800 
    142 H142        3.3756  -19.3782  -47.4488 H         1 UNK         0.0800 
    143 H143        4.8743  -21.5874  -45.9384 H         1 UNK         0.0600 
    144 H144        2.3219  -20.5588  -45.3704 H         1 UNK         0.3000 
    145 H145        0.8062  -23.4920  -44.0090 H         1 UNK         0.0600 
    146 H146        0.5401  -21.9022  -42.1219 H         1 UNK         0.0600 
    147 H147        2.1960  -22.4850  -42.2070 H         1 UNK         0.0600 
    148 H148        1.8061  -20.8688  -42.7796 H         1 UNK         0.0600 
    149 H149       -0.1707  -20.8361  -44.3307 H         1 UNK         0.3000 
    150 H150       -1.6244  -21.3336  -47.5853 H         1 UNK         0.0600 
    151 H151       -3.2110  -22.1847  -45.8370 H         1 UNK         0.0600 
    152 H152       -3.5910  -20.5404  -46.3092 H         1 UNK         0.0600 
    153 H153       -2.7727  -20.8483  -44.7809 H         1 UNK         0.0600 
    154 H154       -1.5767  -19.0077  -45.9948 H         1 UNK         0.3000 
    155 H155        1.5721  -17.6820  -47.1425 H         1 UNK         0.0600 
    156 H156        0.0239  -15.7752  -47.5271 H         1 UNK         0.0600 
    157 H157       -1.3637  -16.8566  -47.4342 H         1 UNK         0.0600 
    158 H158       -0.2082  -17.0191  -48.7450 H         1 UNK         0.0600 
    159 H159       -0.2195  -16.6835  -45.1938 H         1 UNK         0.3000 
    160 H160        1.0647  -18.4585  -42.3389 H         1 UNK         0.0600 
    161 H161        1.2295  -15.5389  -43.2080 H         1 UNK         0.0600 
    162 H162        2.5490  -16.5157  -42.5647 H         1 UNK         0.0600 
    163 H163        1.1929  -16.0902  -41.5350 H         1 UNK         0.0600 
    164 H164       -1.0410  -16.5184  -42.8192 H         1 UNK         0.3000 
    165 H165       -3.6526  -18.9153  -43.0663 H         1 UNK         0.0600 
    166 H166       -2.9147  -16.9842  -40.8000 H         1 UNK         0.0600 
    167 H167       -4.5226  -17.6271  -41.1359 H         1 UNK         0.0600 
    168 H168       -3.2380  -18.7035  -40.6107 H         1 UNK         0.0600 
    169 H169       -3.6604  -16.0601  -42.9932 H         1 UNK         0.3000 
    170 H170       -3.2814  -15.5747  -46.5273 H         1 UNK         0.0600 
    171 H171       -5.6677  -16.2068  -46.0850 H         1 UNK         0.0600 
    172 H172       -5.6551  -15.2294  -44.6229 H         1 UNK         0.0600 
    173 H173       -5.4542  -14.4681  -46.2012 H         1 UNK         0.0600 
    174 H174       -3.7235  -13.6155  -44.6076 H         1 UNK         0.3000 
    175 H175       -2.1913  -12.1034  -44.1537 H         1 UNK         0.0600 
    176 H176       -0.5260  -11.9432  -42.3145 H         1 UNK         0.0600 
    177 H177       -1.6073  -13.3050  -42.0576 H         1 UNK         0.0600 
    178 H178        0.0285  -13.5812  -42.6408 H         1 UNK         0.0600 
    179 H179        0.6711  -12.4988  -44.7523 H         1 UNK         0.3000 
    180 H180        0.7749  -11.8885  -47.7967 H         1 UNK         0.0600 
    181 H181        1.4133   -9.5086  -48.2711 H         1 UNK         0.0600 
    182 H182       -0.3228   -9.7577  -48.3182 H         1 UNK         0.0600 
    183 H183        0.4069   -8.9771  -46.9241 H         1 UNK         0.0600 
    184 H184        2.6304  -11.9659  -46.6339 H         1 UNK         0.3000 
    185 H185        4.5477  -10.3476  -45.1042 H         1 UNK         0.0600 
    186 H186        4.8183  -11.0032  -42.6948 H         1 UNK         0.0600 
    187 H187        3.7318   -9.6381  -42.8873 H         1 UNK         0.0600 
    188 H188        3.0760  -11.2383  -42.5672 H         1 UNK         0.0600 
    189 H189        5.0387  -12.4990  -45.3778 H         1 UNK         0.3000 
    190 H190        1.9406  -21.4384  -48.0175 H         1 UNK         0.3000 
    191 H191        3.0990  -22.8041  -50.2584 H         1 UNK         0.0600 
    192 H192        0.7180  -22.8404  -51.0408 H         1 UNK         0.0600 
    193 H193        1.1672  -21.2565  -50.4276 H         1 UNK         0.0600 
    194 H194        0.1811  -22.3291  -49.4429 H         1 UNK         0.0600 
    195 H195        1.7473  -23.9441  -47.2881 H         1 UNK         0.3000 
    196 H196        1.1685  -25.8634  -46.3703 H         1 UNK         0.0600 
    197 H197        2.1006  -28.0193  -47.1143 H         1 UNK         0.0600 
    198 H198        3.3561  -26.7912  -47.1559 H         1 UNK         0.0600 
    199 H199        2.5980  -27.3325  -48.6528 H         1 UNK         0.0600 
    200 H200       -0.7256  -24.5419  -47.5145 H         1 UNK         0.3000 
    201 H201       -2.5087  -26.4339  -48.9705 H         1 UNK         0.0600 
    202 H202       -1.3564  -24.8189  -50.5772 H         1 UNK         0.0600 
    203 H203       -2.0404  -23.4805  -49.6596 H         1 UNK         0.0600 
    204 H204       -3.0941  -24.5938  -50.5240 H         1 UNK         0.0600 
    205 H205       -4.6500  -24.7005  -49.2250 H         1 UNK         0.3000 
    206 H206       -5.3643  -23.4206  -46.7732 H         1 UNK         0.0600 
    207 H207       -5.8454  -25.8140  -46.1224 H         1 UNK         0.0600 
    208 H208       -7.3396  -24.9133  -46.3092 H         1 UNK         0.0600 
    209 H209       -6.8205  -26.0183  -47.5766 H         1 UNK         0.0600 
    210 H210       -7.6955  -22.6376  -47.0599 H         1 UNK         0.3000 
    211 H211       -7.9489  -21.1105  -49.3909 H         1 UNK         0.0600 
    212 H212      -10.0056  -21.8025  -47.2437 H         1 UNK         0.0600 
    213 H213      -10.1762  -20.5186  -48.4345 H         1 UNK         0.0600 
    214 H214       -8.8930  -20.4337  -47.2386 H         1 UNK         0.0600 
    215 H215       -8.1531  -21.9865  -51.3732 H         1 UNK         0.3000 
    216 H216      -10.5780  -23.3415  -52.1680 H         1 UNK         0.0600 
    217 H217       -9.4565  -25.4015  -53.0319 H         1 UNK         0.0600 
    218 H218       -9.2504  -25.3025  -51.2992 H         1 UNK         0.0600 
    219 H219       -7.9132  -24.8699  -52.3551 H         1 UNK         0.0600 
    220 H220       -8.6790  -24.3166  -54.4989 H         1 UNK         0.3000 
    221 H221       -8.9231  -22.0122  -56.2288 H         1 UNK         0.0600 
    222 H222       -7.4158  -24.6661  -56.5677 H         1 UNK         0.0600 
    223 H223       -9.0638  -24.3393  -57.1055 H         1 UNK         0.0600 
    224 H224       -7.7133  -23.4908  -57.8426 H         1 UNK         0.0600 
    225 H225       -7.3854  -20.5415  -56.7653 H         1 UNK         0.3000 
    226 H226       -5.6953  -19.1432  -56.5971 H         1 UNK         0.0600 
    227 H227       -4.1675  -21.0415  -57.2199 H         1 UNK         0.0600 
    228 H228       -3.3926  -19.8341  -56.2071 H         1 UNK         0.0600 
    229 H229       -3.8930  -21.3620  -55.5076 H         1 UNK         0.0600 
    230 H230       -7.6202  -19.6206  -54.4738 H         1 UNK         0.3000 
    231 H231       -8.2841  -18.7950  -52.5536 H         1 UNK         0.0600 
    232 H232       -7.2944  -16.7120  -51.6679 H         1 UNK         0.0600 
    233 H233       -7.3764  -16.6280  -53.4147 H         1 UNK         0.0600 
    234 H234       -5.8345  -16.9430  -52.6304 H         1 UNK         0.0600 
    235 H235       -5.9205  -17.8251  -50.5883 H         1 UNK         0.3000 
    236 H236       -5.9835  -20.0447  -48.8383 H         1 UNK         0.0600 
    237 H237       -5.5971  -17.7022  -48.1131 H         1 UNK         0.0600 
    238 H238       -4.2811  -18.7344  -47.5843 H         1 UNK         0.0600 
    239 H239       -4.0487  -17.6700  -48.9612 H         1 UNK         0.0600 
    240 H240       -3.8102  -19.2940  -51.4793 H         1 UNK         0.3000 
    241 H241       -1.8952  -21.4331  -50.7842 H         1 UNK         0.0600 
    242 H242       -4.9484  -21.6363  -52.0589 H         1 UNK         0.3800 
    243 H243       -4.6613  -22.7996  -53.3173 H         1 UNK         0.3800 
    244 H244       -0.6361  -20.5854  -52.7821 H         1 UNK         0.0800 
    245 H245       -1.8488  -19.3499  -53.0200 H         1 UNK         0.0800 
    246 H246        0.9857  -18.0205  -52.7443 H         1 UNK         0.0800 
    247 H247        1.4337  -19.6512  -52.3079 H         1 UNK         0.0800 
@<TRIPOS>BOND
     1    1    2 1    
     2    1  127 1    
     3    1  128 1    
     4    1  129 1    
     5    2    3 2    
     6    2    4 am   BACKBONE|DICT|INTERRES
     7    4    5 1    
     8    4  130 1    
     9    5    6 1    
    10    5   65 1    
    11    5  131 1    
    12    6    7 1    
    13    6  132 1    
    14    6  133 1    
    15    7    8 1    
    16    8    9 1    
    17    8  134 1    
    18    8  135 1    
    19    9   10 ar   
    20    9   14 ar   
    21   10   11 ar   
    22   10  136 1    
    23   11   12 ar   
    24   11  126 1    
    25   12   13 ar   
    26   12  137 1    
    27   13   14 ar   
    28   13   15 1    
    29   14  138 1    
    30   15   16 1    
    31   15  139 1    
    32   15  140 1    
    33   16   17 1    
    34   17   18 1    
    35   17  141 1    
    36   17  142 1    
    37   18   19 1    
    38   18   67 1    
    39   18  143 1    
    40   19   20 am   BACKBONE|DICT|INTERRES
    41   19  144 1    
    42   20   21 2    
    43   20   22 1    
    44   22   23 1    
    45   22   24 1    
    46   22  145 1    
    47   23  146 1    
    48   23  147 1    
    49   23  148 1    
    50   24   25 am   BACKBONE|DICT|INTERRES
    51   24  149 1    
    52   25   26 2    
    53   25   27 1    
    54   27   28 1    
    55   27   29 1    
    56   27  150 1    
    57   28  151 1    
    58   28  152 1    
    59   28  153 1    
    60   29   30 am   BACKBONE|DICT|INTERRES
    61   29  154 1    
    62   30   31 2    
    63   30   32 1    
    64   32   33 1    
    65   32   34 1    
    66   32  155 1    
    67   33  156 1    
    68   33  157 1    
    69   33  158 1    
    70   34   35 am   BACKBONE|DICT|INTERRES
    71   34  159 1    
    72   35   36 2    
    73   35   37 1    
    74   37   38 1    
    75   37   39 1    
    76   37  160 1    
    77   38  161 1    
    78   38  162 1    
    79   38  163 1    
    80   39   40 am   BACKBONE|DICT|INTERRES
    81   39  164 1    
    82   40   41 2    
    83   40   42 1    
    84   42   43 1    
    85   42   44 1    
    86   42  165 1    
    87   43  166 1    
    88   43  167 1    
    89   43  168 1    
    90   44   45 am   BACKBONE|DICT|INTERRES
    91   44  169 1    
    92   45   46 2    
    93   45   47 1    
    94   47   48 1    
    95   47   49 1    
    96   47  170 1    
    97   48  171 1    
    98   48  172 1    
    99   48  173 1    
   100   49   50 am   BACKBONE|DICT|INTERRES
   101   49  174 1    
   102   50   51 2    
   103   50   52 1    
   104   52   53 1    
   105   52   54 1    
   106   52  175 1    
   107   53  176 1    
   108   53  177 1    
   109   53  178 1    
   110   54   55 am   BACKBONE|DICT|INTERRES
   111   54  179 1    
   112   55   56 2    
   113   55   57 1    
   114   57   58 1    
   115   57   59 1    
   116   57  180 1    
   117   58  181 1    
   118   58  182 1    
   119   58  183 1    
   120   59   60 am   BACKBONE|DICT|INTERRES
   121   59  184 1    
   122   60   61 2    
   123   60   62 1    
   124   62   63 1    
   125   62   64 1    
   126   62  185 1    
   127   63  186 1    
   128   63  187 1    
   129   63  188 1    
   130   64   65 am   BACKBONE|DICT|INTERRES
   131   64  189 1    
   132   65   66 2    
   133   67   68 2    
   134   67   69 am   BACKBONE|DICT|INTERRES
   135   69   70 1    
   136   69  190 1    
   137   70   71 1    
   138   70   72 1    
   139   70  191 1    
   140   71  192 1    
   141   71  193 1    
   142   71  194 1    
   143   72   73 2    
   144   72   74 am   BACKBONE|DICT|INTERRES
   145   74   75 1    
   146   74  195 1    
   147   75   76 1    
   148   75   77 1    
   149   75  196 1    
   150   76  197 1    
   151   76  198 1    
   152   76  199 1    
   153   77   78 2    
   154   77   79 am   BACKBONE|DICT|INTERRES
   155   79   80 1    
   156   79  200 1    
   157   80   81 1    
   158   80   82 1    
   159   80  201 1    
   160   81  202 1    
   161   81  203 1    
   162   81  204 1    
   163   82   83 2    
   164   82   84 am   BACKBONE|DICT|INTERRES
   165   84   85 1    
   166   84  205 1    
   167   85   86 1    
   168   85   87 1    
   169   85  206 1    
   170   86  207 1    
   171   86  208 1    
   172   86  209 1    
   173   87   88 2    
   174   87   89 am   BACKBONE|DICT|INTERRES
   175   89   90 1    
   176   89  210 1    
   177   90   91 1    
   178   90   92 1    
   179   90  211 1    
   180   91  212 1    
   181   91  213 1    
   182   91  214 1    
   183   92   93 2    
   184   92   94 am   BACKBONE|DICT|INTERRES
   185   94   95 1    
   186   94  215 1    
   187   95   96 1    
   188   95   97 1    
   189   95  216 1    
   190   96  217 1    
   191   96  218 1    
   192   96  219 1    
   193   97   98 2    
   194   97   99 am   BACKBONE|DICT|INTERRES
   195   99  100 1    
   196   99  220 1    
   197  100  101 1    
   198  100  102 1    
   199  100  221 1    
   200  101  222 1    
   201  101  223 1    
   202  101  224 1    
   203  102  103 2    
   204  102  104 am   BACKBONE|DICT|INTERRES
   205  104  105 1    
   206  104  225 1    
   207  105  106 1    
   208  105  107 1    
   209  105  226 1    
   210  106  227 1    
   211  106  228 1    
   212  106  229 1    
   213  107  108 2    
   214  107  109 am   BACKBONE|DICT|INTERRES
   215  109  110 1    
   216  109  230 1    
   217  110  111 1    
   218  110  112 1    
   219  110  231 1    
   220  111  232 1    
   221  111  233 1    
   222  111  234 1    
   223  112  113 2    
   224  112  114 am   BACKBONE|DICT|INTERRES
   225  114  115 1    
   226  114  235 1    
   227  115  116 1    
   228  115  117 1    
   229  115  236 1    
   230  116  237 1    
   231  116  238 1    
   232  116  239 1    
   233  117  118 2    
   234  117  119 am   BACKBONE|DICT|INTERRES
   235  119  120 1    
   236  119  240 1    
   237  120  121 1    
   238  120  124 1    
   239  120  241 1    
   240  121  122 am   BACKBONE|DICT|INTERRES
   241  121  123 2    
   242  122  242 1    
   243  122  243 1    
   244  124  125 1    
   245  124  244 1    
   246  124  245 1    
   247  125  126 1    
   248  126  246 1    
   249  126  247 1    
@<TRIPOS>SUBSTRUCTURE
     1 UNK         1 GROUP             0       ****    0 ROOT    
