@<TRIPOS>MOLECULE
3R540
247   249    1
SMALL
USER_CHARGES


@<TRIPOS>ATOM
      1 CA         -2.9784  -12.2124  -43.5675 C.3       0 UNK        -0.1800 
      2 C          -2.9751  -11.4229  -44.8693 C.2       0 UNK         0.5000 
      3 O          -3.0812  -10.1966  -44.8404 O.2       0 UNK        -0.5000 
      4 N          -2.8349  -12.1154  -46.0067 N.am      1 UNK        -0.5000 
      5 CA         -2.6216  -11.5065  -47.3247 C.3       1 UNK         0.1400 
      6 C6         -2.9599  -12.4523  -48.5035 C.3       23 UNK        -0.0398 
      7 S7         -4.6143  -13.2155  -48.4689 S.3       23 UNK        -0.2404 
      8 C8         -4.5636  -14.0853  -50.0785 C.3       23 UNK        -0.0205 
      9 C9         -5.2547  -15.4472  -50.0999 C.ar      23 UNK        -0.0193 
     10 C10        -5.8995  -15.8673  -51.2679 C.ar      23 UNK        -0.1150 
     11 C11        -6.4557  -17.1466  -51.3578 C.ar      23 UNK        -0.0193 
     12 C12        -6.3991  -17.9989  -50.2522 C.ar      23 UNK        -0.1150 
     13 C13        -5.7785  -17.5889  -49.0705 C.ar      23 UNK        -0.0193 
     14 C14        -5.1968  -16.3192  -49.0065 C.ar      23 UNK        -0.1150 
     15 C15        -5.7479  -18.5136  -47.8636 C.3       23 UNK        -0.0205 
     16 S16        -4.0892  -19.2040  -47.5931 S.3       23 UNK        -0.2404 
     17 C17        -4.3930  -20.3151  -46.1759 C.3       23 UNK        -0.0398 
     18 CA         -3.5107  -21.5751  -46.2919 C.3       11 UNK         0.1400 
     19 N          -2.0882  -21.2543  -46.1910 N.am      11 UNK        -0.5000 
     20 C          -1.1321  -21.8632  -46.8978 C.2       10 UNK         0.5000 
     21 O          -1.3552  -22.7488  -47.7219 O.2       10 UNK        -0.5000 
     22 CA          0.3157  -21.4193  -46.6249 C.3       10 UNK         0.1400 
     23 CB          0.7122  -20.2953  -47.5911 C.3       10 UNK        -0.1800 
     24 N           0.5235  -20.9798  -45.2414 N.am      10 UNK        -0.5000 
     25 C           0.4826  -21.8112  -44.1895 C.2       9 UNK         0.5000 
     26 O           0.2506  -23.0165  -44.2897 O.2       9 UNK        -0.5000 
     27 CA          0.6868  -21.2075  -42.7861 C.3       9 UNK         0.1400 
     28 CB          2.1740  -21.2385  -42.4050 C.3       9 UNK        -0.1800 
     29 N           0.1630  -19.8498  -42.6025 N.am      9 UNK        -0.5000 
     30 C          -1.0971  -19.4562  -42.8341 C.2       8 UNK         0.5000 
     31 O          -1.9539  -20.1893  -43.3357 O.2       8 UNK        -0.5000 
     32 CA         -1.4738  -18.0066  -42.4761 C.3       8 UNK         0.1400 
     33 CB         -0.2925  -17.1165  -42.0380 C.3       8 UNK        -0.1800 
     34 N          -2.1121  -17.4304  -43.6501 N.am      8 UNK        -0.5000 
     35 C          -3.2621  -16.7486  -43.6742 C.2       7 UNK         0.5000 
     36 O          -3.8654  -16.3925  -42.6610 O.2       7 UNK        -0.5000 
     37 CA         -3.8673  -16.4753  -45.0685 C.3       7 UNK         0.1400 
     38 CB         -4.6926  -15.1770  -45.1444 C.3       7 UNK        -0.1800 
     39 N          -2.8934  -16.5989  -46.1626 N.am      7 UNK        -0.5000 
     40 C          -1.8543  -15.8020  -46.4414 C.2       6 UNK         0.5000 
     41 O          -1.6600  -14.6992  -45.9288 O.2       6 UNK        -0.5000 
     42 CA         -0.8329  -16.3659  -47.4461 C.3       6 UNK         0.1400 
     43 CB         -0.8570  -15.6210  -48.7856 C.3       6 UNK        -0.1800 
     44 N           0.5213  -16.3221  -46.8982 N.am      6 UNK        -0.5000 
     45 C           0.9573  -17.0945  -45.8942 C.2       5 UNK         0.5000 
     46 O           0.2623  -17.9650  -45.3649 O.2       5 UNK        -0.5000 
     47 CA          2.4210  -16.9054  -45.4513 C.3       5 UNK         0.1400 
     48 CB          2.9794  -18.1702  -44.7655 C.3       5 UNK        -0.1800 
     49 N           3.2474  -16.5479  -46.6077 N.am      5 UNK        -0.5000 
     50 C           4.3767  -15.8278  -46.6360 C.2       4 UNK         0.5000 
     51 O           4.9148  -15.5393  -47.7042 O.2       4 UNK        -0.5000 
     52 CA          4.9942  -15.3012  -45.3264 C.3       4 UNK         0.1400 
     53 CB          6.5281  -15.1837  -45.4042 C.3       4 UNK        -0.1800 
     54 N           4.4259  -13.9892  -45.0483 N.am      4 UNK        -0.5000 
     55 C           4.1062  -13.5281  -43.8336 C.2       3 UNK         0.5000 
     56 O           4.2699  -14.1675  -42.7939 O.2       3 UNK        -0.5000 
     57 CA          3.5005  -12.1119  -43.7610 C.3       3 UNK         0.1400 
     58 CB          4.5803  -11.0873  -43.3796 C.3       3 UNK        -0.1800 
     59 N           2.8513  -11.6782  -45.0026 N.am      3 UNK        -0.5000 
     60 C           1.7206  -12.2042  -45.4881 C.2       2 UNK         0.5000 
     61 O           1.1181  -13.1419  -44.9601 O.2       2 UNK        -0.5000 
     62 CA          1.1929  -11.5981  -46.7945 C.3       2 UNK         0.1400 
     63 CB          1.8742  -12.2416  -48.0146 C.3       2 UNK        -0.1800 
     64 N          -0.2418  -11.8340  -46.8549 N.am      2 UNK        -0.5000 
     65 C          -1.1510  -11.0566  -47.4569 C.2       1 UNK         0.5000 
     66 O          -0.8743  -10.0376  -48.0908 O.2       1 UNK        -0.5000 
     67 C          -3.8975  -22.6580  -45.2693 C.2       11 UNK         0.5000 
     68 O          -4.7543  -23.4875  -45.5720 O.2       11 UNK        -0.5000 
     69 N          -3.2551  -22.6518  -44.0934 N.am      12 UNK        -0.5000 
     70 CA         -3.5000  -23.6087  -43.0178 C.3       12 UNK         0.1400 
     71 CB         -2.9379  -23.0530  -41.7004 C.3       12 UNK        -0.1800 
     72 C          -2.9303  -25.0088  -43.3110 C.2       12 UNK         0.5000 
     73 O          -3.6634  -25.9910  -43.1902 O.2       12 UNK        -0.5000 
     74 N          -1.6389  -25.0847  -43.6639 N.am      13 UNK        -0.5000 
     75 CA         -0.9127  -26.3481  -43.8108 C.3       13 UNK         0.1400 
     76 CB          0.5177  -26.1876  -43.2702 C.3       13 UNK        -0.1800 
     77 C          -0.8894  -26.8369  -45.2659 C.2       13 UNK         0.5000 
     78 O          -1.1558  -28.0135  -45.5121 O.2       13 UNK        -0.5000 
     79 N          -0.5770  -25.9324  -46.2043 N.am      14 UNK        -0.5000 
     80 CA         -0.4477  -26.2400  -47.6346 C.3       14 UNK         0.1400 
     81 CB          0.6981  -25.4061  -48.2310 C.3       14 UNK        -0.1800 
     82 C          -1.7665  -26.0747  -48.4191 C.2       14 UNK         0.5000 
     83 O          -1.7669  -26.2272  -49.6418 O.2       14 UNK        -0.5000 
     84 N          -2.8672  -25.7786  -47.7102 N.am      15 UNK        -0.5000 
     85 CA         -4.2481  -25.7005  -48.2042 C.3       15 UNK         0.1400 
     86 CB         -4.7428  -27.1009  -48.6231 C.3       15 UNK        -0.1800 
     87 C          -4.4673  -24.6458  -49.3103 C.2       15 UNK         0.5000 
     88 O          -5.3766  -24.7986  -50.1281 O.2       15 UNK        -0.5000 
     89 N          -3.6182  -23.6081  -49.3321 N.am      16 UNK        -0.5000 
     90 CA         -3.5386  -22.4885  -50.2755 C.3       16 UNK         0.1400 
     91 CB         -4.8584  -21.6938  -50.3393 C.3       16 UNK        -0.1800 
     92 C          -3.0655  -22.8964  -51.6810 C.2       16 UNK         0.5000 
     93 O          -2.1733  -22.2481  -52.2278 O.2       16 UNK        -0.5000 
     94 N          -3.6658  -23.9545  -52.2363 N.am      17 UNK        -0.5000 
     95 CA         -3.4733  -24.4384  -53.6002 C.3       17 UNK         0.1400 
     96 CB         -4.4983  -25.5453  -53.8890 C.3       17 UNK        -0.1800 
     97 C          -2.0476  -24.9300  -53.8999 C.2       17 UNK         0.5000 
     98 O          -1.5213  -24.6141  -54.9672 O.2       17 UNK        -0.5000 
     99 N          -1.4401  -25.6787  -52.9666 N.am      18 UNK        -0.5000 
    100 CA        -0.0970  -26.2432  -53.1446 C.3       18 UNK         0.1400 
    101 CB         0.1217  -27.4005  -52.1590 C.3       18 UNK        -0.1800 
    102 C          1.0127  -25.1862  -53.0009 C.2       18 UNK         0.5000 
    103 O          2.0584  -25.3108  -53.6393 O.2       18 UNK        -0.5000 
    104 N          0.7567  -24.1593  -52.1808 N.am      19 UNK        -0.5000 
    105 CA         1.6446  -23.0135  -51.9845 C.3       19 UNK         0.1400 
    106 CB         1.3787  -22.4249  -50.5924 C.3       19 UNK        -0.1800 
    107 C          1.4680  -21.9245  -53.0600 C.2       19 UNK         0.5000 
    108 O          2.3489  -21.0757  -53.2003 O.2       19 UNK        -0.5000 
    109 N          0.3275  -21.9506  -53.7668 N.am      20 UNK        -0.5000 
    110 CA        -0.1749  -20.9294  -54.6910 C.3       20 UNK         0.1400 
    111 CB         0.7257  -20.8081  -55.9375 C.3       20 UNK        -0.1800 
    112 C         -0.4214  -19.5833  -53.9757 C.2       20 UNK         0.5000 
    113 O         -0.0934  -18.5212  -54.5094 O.2       20 UNK        -0.5000 
    114 N         -1.0028  -19.6593  -52.7681 N.am      21 UNK        -0.5000 
    115 CA        -1.2455  -18.5314  -51.8606 C.3       21 UNK         0.1400 
    116 CB        -1.8020  -19.0630  -50.5319 C.3       21 UNK        -0.1800 
    117 C         -2.1805  -17.4510  -52.4363 C.2       21 UNK         0.5000 
    118 O         -2.0712  -16.2872  -52.0499 O.2       21 UNK        -0.5000 
    119 N         -3.0550  -17.8519  -53.3669 N.am      22 UNK        -0.5000 
    120 CA        -3.9345  -16.9561  -54.1297 C.3       22 UNK         0.1400 
    121 C         -3.2099  -16.1281  -55.2338 C.2       22 UNK         0.5000 
    122 N         -1.9436  -16.3808  -55.5481 N.am      22 UNK        -0.7600 
    123 O         -3.8112  -15.2305  -55.8174 O.2       22 UNK        -0.5000 
    124 C124       -5.1662  -17.6943  -54.7187 C.3       23 UNK        -0.0398 
    125 S125       -6.0486  -18.7868  -53.5479 S.3       23 UNK        -0.2404 
    126 C126       -7.1173  -17.6211  -52.6428 C.3       23 UNK        -0.0205 
    127 H127       -4.0014  -12.4096  -43.2473 H         1 UNK         0.0600 
    128 H128       -2.4763  -11.6484  -42.7814 H         1 UNK         0.0600 
    129 H129       -2.4578  -13.1645  -43.6760 H         1 UNK         0.0600 
    130 H130       -2.6899  -13.1211  -45.9613 H         1 UNK         0.3000 
    131 H131       -3.2568  -10.6222  -47.4100 H         1 UNK         0.0600 
    132 H132       -2.8599  -11.9132  -49.4477 H         1 UNK         0.0800 
    133 H133       -2.2402  -13.2657  -48.5423 H         1 UNK         0.0800 
    134 H134       -3.5295  -14.2454  -50.3857 H         1 UNK         0.0800 
    135 H135       -5.0034  -13.4263  -50.8286 H         1 UNK         0.0800 
    136 H136       -5.9441  -15.2055  -52.1211 H         1 UNK         0.1150 
    137 H137       -6.8348  -18.9862  -50.3176 H         1 UNK         0.1150 
    138 H138       -4.6882  -16.0161  -48.1057 H         1 UNK         0.1150 
    139 H139       -6.4600  -19.3299  -47.9947 H         1 UNK         0.0800 
    140 H140       -6.0684  -17.9635  -46.9783 H         1 UNK         0.0800 
    141 H141       -4.1932  -19.7816  -45.2452 H         1 UNK         0.0800 
    142 H142       -5.4490  -20.5908  -46.1592 H         1 UNK         0.0800 
    143 H143       -3.7143  -22.0020  -47.2725 H         1 UNK         0.0600 
    144 H144       -1.8219  -20.5765  -45.4889 H         1 UNK         0.3000 
    145 H145        0.9690  -22.2739  -46.8111 H         1 UNK         0.0600 
    146 H146        0.6631  -20.6352  -48.6229 H         1 UNK         0.0600 
    147 H147        1.7295  -19.9496  -47.4104 H         1 UNK         0.0600 
    148 H148        0.0400  -19.4433  -47.5105 H         1 UNK         0.0600 
    149 H149        0.6385  -19.9841  -45.0871 H         1 UNK         0.3000 
    150 H150        0.1549  -21.8482  -42.0820 H         1 UNK         0.0600 
    151 H151        2.7761  -20.6181  -43.0685 H         1 UNK         0.0600 
    152 H152        2.5686  -22.2539  -42.4628 H         1 UNK         0.0600 
    153 H153        2.3294  -20.8903  -41.3837 H         1 UNK         0.0600 
    154 H154        0.8040  -19.1752  -42.2128 H         1 UNK         0.3000 
    155 H155       -2.1871  -18.0684  -41.6520 H         1 UNK         0.0600 
    156 H156       -0.6339  -16.1049  -41.8176 H         1 UNK         0.0600 
    157 H157        0.4728  -17.0398  -42.8100 H         1 UNK         0.0600 
    158 H158        0.1777  -17.4977  -41.1309 H         1 UNK         0.0600 
    159 H159       -1.6668  -17.6737  -44.5267 H         1 UNK         0.3000 
    160 H160       -4.5737  -17.2910  -45.2182 H         1 UNK         0.0600 
    161 H161       -4.0774  -14.2977  -44.9900 H         1 UNK         0.0600 
    162 H162       -5.4728  -15.1623  -44.3829 H         1 UNK         0.0600 
    163 H163       -5.1898  -15.0747  -46.1071 H         1 UNK         0.0600 
    164 H164       -2.9749  -17.4631  -46.6847 H         1 UNK         0.3000 
    165 H165       -1.0870  -17.4083  -47.6459 H         1 UNK         0.0600 
    166 H166       -0.2486  -16.1366  -49.5289 H         1 UNK         0.0600 
    167 H167       -1.8701  -15.5657  -49.1851 H         1 UNK         0.0600 
    168 H168       -0.4681  -14.6075  -48.6902 H         1 UNK         0.0600 
    169 H169        1.1243  -15.5912  -47.2435 H         1 UNK         0.3000 
    170 H170        2.4138  -16.0818  -44.7352 H         1 UNK         0.0600 
    171 H171        4.0294  -18.0746  -44.4955 H         1 UNK         0.0600 
    172 H172        2.8908  -19.0458  -45.4091 H         1 UNK         0.0600 
    173 H173        2.4337  -18.3799  -43.8460 H         1 UNK         0.0600 
    174 H174        2.8862  -16.8814  -47.4901 H         1 UNK         0.3000 
    175 H175        4.7669  -15.9908  -44.5152 H         1 UNK         0.0600 
    176 H176        6.9800  -16.1433  -45.6578 H         1 UNK         0.0600 
    177 H177        6.8433  -14.4601  -46.1570 H         1 UNK         0.0600 
    178 H178        6.9462  -14.8704  -44.4474 H         1 UNK         0.0600 
    179 H179        4.2411  -13.4076  -45.8532 H         1 UNK         0.3000 
    180 H180        2.7463  -12.1215  -42.9711 H         1 UNK         0.0600 
    181 H181        5.3565  -11.0177  -44.1428 H         1 UNK         0.0600 
    182 H182        5.0660  -11.3616  -42.4421 H         1 UNK         0.0600 
    183 H183        4.1521  -10.0942  -43.2428 H         1 UNK         0.0600 
    184 H184        3.2922  -10.9152  -45.4964 H         1 UNK         0.3000 
    185 H185        1.3879  -10.5236  -46.7846 H         1 UNK         0.0600 
    186 H186        2.9511  -12.0706  -47.9991 H         1 UNK         0.0600 
    187 H187        1.7125  -13.3197  -48.0435 H         1 UNK         0.0600 
    188 H188        1.4935  -11.8220  -48.9459 H         1 UNK         0.0600 
    189 H189       -0.5522  -12.6299  -46.3060 H         1 UNK         0.3000 
    190 H190       -2.6077  -21.8956  -43.8922 H         1 UNK         0.3000 
    191 H191       -4.5808  -23.7101  -42.8962 H         1 UNK         0.0600 
    192 H192       -3.3787  -22.0852  -41.4604 H         1 UNK         0.0600 
    193 H193       -3.1551  -23.7253  -40.8695 H         1 UNK         0.0600 
    194 H194       -1.8571  -22.9258  -41.7442 H         1 UNK         0.0600 
    195 H195       -1.0939  -24.2349  -43.7848 H         1 UNK         0.3000 
    196 H196       -1.3962  -27.1215  -43.2096 H         1 UNK         0.0600 
    197 H197        1.0522  -27.1379  -43.3002 H         1 UNK         0.0600 
    198 H198        0.5115  -25.8511  -42.2334 H         1 UNK         0.0600 
    199 H199        1.0981  -25.4706  -43.8510 H         1 UNK         0.0600 
    200 H200       -0.3825  -24.9814  -45.9220 H         1 UNK         0.3000 
    201 H201       -0.1642  -27.2880  -47.7514 H         1 UNK         0.0600 
    202 H202        0.8157  -25.5926  -49.2987 H         1 UNK         0.0600 
    203 H203        1.6474  -25.6534  -47.7560 H         1 UNK         0.0600 
    204 H204        0.5349  -24.3398  -48.1018 H         1 UNK         0.0600 
    205 H205       -2.7505  -25.6442  -46.7165 H         1 UNK         0.3000 
    206 H206       -4.8590  -25.3823  -47.3600 H         1 UNK         0.0600 
    207 H207       -4.5885  -27.8282  -47.8259 H         1 UNK         0.0600 
    208 H208       -5.8101  -27.0906  -48.8470 H         1 UNK         0.0600 
    209 H209       -4.2258  -27.4630  -49.5124 H         1 UNK         0.0600 
    210 H210       -2.8658  -23.6123  -48.6487 H         1 UNK         0.3000 
    211 H211       -2.7764  -21.8235  -49.8685 H         1 UNK         0.0600 
    212 H212       -5.6659  -22.2718  -50.7885 H         1 UNK         0.0600 
    213 H213       -4.7436  -20.7901  -50.9386 H         1 UNK         0.0600 
    214 H214       -5.1835  -21.3865  -49.3463 H         1 UNK         0.0600 
    215 H215       -4.3796  -24.4177  -51.6800 H         1 UNK         0.3000 
    216 H216       -3.6789  -23.6032  -54.2731 H         1 UNK         0.0600 
    217 H217       -4.3943  -25.9203  -54.9080 H         1 UNK         0.0600 
    218 H218       -4.3774  -26.3920  -53.2119 H         1 UNK         0.0600 
    219 H219       -5.5181  -25.1751  -53.7821 H         1 UNK         0.0600 
    220 H220       -1.9148  -25.8799  -52.0955 H         1 UNK         0.3000 
    221 H221       -0.0313  -26.6545  -54.1544 H         1 UNK         0.0600 
    222 H222        0.1716  -27.0522  -51.1285 H         1 UNK         0.0600 
    223 H223       -0.6775  -28.1385  -52.2278 H         1 UNK         0.0600 
    224 H224        1.0596  -27.9154  -52.3705 H         1 UNK         0.0600 
    225 H225       -0.1313  -24.1384  -51.7007 H         1 UNK         0.3000 
    226 H226        2.6837  -23.3475  -52.0206 H         1 UNK         0.0600 
    227 H227        1.9818  -21.5316  -50.4246 H         1 UNK         0.0600 
    228 H228        0.3309  -22.1481  -50.4664 H         1 UNK         0.0600 
    229 H229        1.6382  -23.1362  -49.8102 H         1 UNK         0.0600 
    230 H230       -0.3397  -22.6741  -53.5343 H         1 UNK         0.3000 
    231 H231       -1.1526  -21.2794  -55.0254 H         1 UNK         0.0600 
    232 H232        1.7064  -20.3983  -55.6949 H         1 UNK         0.0600 
    233 H233        0.2737  -20.1505  -56.6808 H         1 UNK         0.0600 
    234 H234        0.8745  -21.7786  -56.4107 H         1 UNK         0.0600 
    235 H235       -1.2929  -20.5777  -52.4421 H         1 UNK         0.3000 
    236 H236       -0.2817  -18.0582  -51.6631 H         1 UNK         0.0600 
    237 H237       -2.7825  -19.5173  -50.6670 H         1 UNK         0.0600 
    238 H238       -1.1410  -19.8072  -50.0888 H         1 UNK         0.0600 
    239 H239       -1.9207  -18.2568  -49.8082 H         1 UNK         0.0600 
    240 H240       -3.0857  -18.8294  -53.6129 H         1 UNK         0.3000 
    241 H241       -4.3118  -16.2132  -53.4293 H         1 UNK         0.0600 
    242 H242       -1.4157  -17.1095  -55.0793 H         1 UNK         0.3800 
    243 H243       -1.4957  -15.8297  -56.2628 H         1 UNK         0.3800 
    244 H244       -4.8538  -18.3178  -55.5582 H         1 UNK         0.0800 
    245 H245       -5.8778  -16.9778  -55.1322 H         1 UNK         0.0800 
    246 H246       -7.3888  -16.7779  -53.2794 H         1 UNK         0.0800 
    247 H247       -8.0523  -18.1258  -52.3954 H         1 UNK         0.0800 
@<TRIPOS>BOND
     1    1    2 1    
     2    1  127 1    
     3    1  128 1    
     4    1  129 1    
     5    2    3 2    
     6    2    4 am   BACKBONE|DICT|INTERRES
     7    4    5 1    
     8    4  130 1    
     9    5    6 1    
    10    5   65 1    
    11    5  131 1    
    12    6    7 1    
    13    6  132 1    
    14    6  133 1    
    15    7    8 1    
    16    8    9 1    
    17    8  134 1    
    18    8  135 1    
    19    9   10 ar   
    20    9   14 ar   
    21   10   11 ar   
    22   10  136 1    
    23   11   12 ar   
    24   11  126 1    
    25   12   13 ar   
    26   12  137 1    
    27   13   14 ar   
    28   13   15 1    
    29   14  138 1    
    30   15   16 1    
    31   15  139 1    
    32   15  140 1    
    33   16   17 1    
    34   17   18 1    
    35   17  141 1    
    36   17  142 1    
    37   18   19 1    
    38   18   67 1    
    39   18  143 1    
    40   19   20 am   BACKBONE|DICT|INTERRES
    41   19  144 1    
    42   20   21 2    
    43   20   22 1    
    44   22   23 1    
    45   22   24 1    
    46   22  145 1    
    47   23  146 1    
    48   23  147 1    
    49   23  148 1    
    50   24   25 am   BACKBONE|DICT|INTERRES
    51   24  149 1    
    52   25   26 2    
    53   25   27 1    
    54   27   28 1    
    55   27   29 1    
    56   27  150 1    
    57   28  151 1    
    58   28  152 1    
    59   28  153 1    
    60   29   30 am   BACKBONE|DICT|INTERRES
    61   29  154 1    
    62   30   31 2    
    63   30   32 1    
    64   32   33 1    
    65   32   34 1    
    66   32  155 1    
    67   33  156 1    
    68   33  157 1    
    69   33  158 1    
    70   34   35 am   BACKBONE|DICT|INTERRES
    71   34  159 1    
    72   35   36 2    
    73   35   37 1    
    74   37   38 1    
    75   37   39 1    
    76   37  160 1    
    77   38  161 1    
    78   38  162 1    
    79   38  163 1    
    80   39   40 am   BACKBONE|DICT|INTERRES
    81   39  164 1    
    82   40   41 2    
    83   40   42 1    
    84   42   43 1    
    85   42   44 1    
    86   42  165 1    
    87   43  166 1    
    88   43  167 1    
    89   43  168 1    
    90   44   45 am   BACKBONE|DICT|INTERRES
    91   44  169 1    
    92   45   46 2    
    93   45   47 1    
    94   47   48 1    
    95   47   49 1    
    96   47  170 1    
    97   48  171 1    
    98   48  172 1    
    99   48  173 1    
   100   49   50 am   BACKBONE|DICT|INTERRES
   101   49  174 1    
   102   50   51 2    
   103   50   52 1    
   104   52   53 1    
   105   52   54 1    
   106   52  175 1    
   107   53  176 1    
   108   53  177 1    
   109   53  178 1    
   110   54   55 am   BACKBONE|DICT|INTERRES
   111   54  179 1    
   112   55   56 2    
   113   55   57 1    
   114   57   58 1    
   115   57   59 1    
   116   57  180 1    
   117   58  181 1    
   118   58  182 1    
   119   58  183 1    
   120   59   60 am   BACKBONE|DICT|INTERRES
   121   59  184 1    
   122   60   61 2    
   123   60   62 1    
   124   62   63 1    
   125   62   64 1    
   126   62  185 1    
   127   63  186 1    
   128   63  187 1    
   129   63  188 1    
   130   64   65 am   BACKBONE|DICT|INTERRES
   131   64  189 1    
   132   65   66 2    
   133   67   68 2    
   134   67   69 am   BACKBONE|DICT|INTERRES
   135   69   70 1    
   136   69  190 1    
   137   70   71 1    
   138   70   72 1    
   139   70  191 1    
   140   71  192 1    
   141   71  193 1    
   142   71  194 1    
   143   72   73 2    
   144   72   74 am   BACKBONE|DICT|INTERRES
   145   74   75 1    
   146   74  195 1    
   147   75   76 1    
   148   75   77 1    
   149   75  196 1    
   150   76  197 1    
   151   76  198 1    
   152   76  199 1    
   153   77   78 2    
   154   77   79 am   BACKBONE|DICT|INTERRES
   155   79   80 1    
   156   79  200 1    
   157   80   81 1    
   158   80   82 1    
   159   80  201 1    
   160   81  202 1    
   161   81  203 1    
   162   81  204 1    
   163   82   83 2    
   164   82   84 am   BACKBONE|DICT|INTERRES
   165   84   85 1    
   166   84  205 1    
   167   85   86 1    
   168   85   87 1    
   169   85  206 1    
   170   86  207 1    
   171   86  208 1    
   172   86  209 1    
   173   87   88 2    
   174   87   89 am   BACKBONE|DICT|INTERRES
   175   89   90 1    
   176   89  210 1    
   177   90   91 1    
   178   90   92 1    
   179   90  211 1    
   180   91  212 1    
   181   91  213 1    
   182   91  214 1    
   183   92   93 2    
   184   92   94 am   BACKBONE|DICT|INTERRES
   185   94   95 1    
   186   94  215 1    
   187   95   96 1    
   188   95   97 1    
   189   95  216 1    
   190   96  217 1    
   191   96  218 1    
   192   96  219 1    
   193   97   98 2    
   194   97   99 am   BACKBONE|DICT|INTERRES
   195   99  100 1    
   196   99  220 1    
   197  100  101 1    
   198  100  102 1    
   199  100  221 1    
   200  101  222 1    
   201  101  223 1    
   202  101  224 1    
   203  102  103 2    
   204  102  104 am   BACKBONE|DICT|INTERRES
   205  104  105 1    
   206  104  225 1    
   207  105  106 1    
   208  105  107 1    
   209  105  226 1    
   210  106  227 1    
   211  106  228 1    
   212  106  229 1    
   213  107  108 2    
   214  107  109 am   BACKBONE|DICT|INTERRES
   215  109  110 1    
   216  109  230 1    
   217  110  111 1    
   218  110  112 1    
   219  110  231 1    
   220  111  232 1    
   221  111  233 1    
   222  111  234 1    
   223  112  113 2    
   224  112  114 am   BACKBONE|DICT|INTERRES
   225  114  115 1    
   226  114  235 1    
   227  115  116 1    
   228  115  117 1    
   229  115  236 1    
   230  116  237 1    
   231  116  238 1    
   232  116  239 1    
   233  117  118 2    
   234  117  119 am   BACKBONE|DICT|INTERRES
   235  119  120 1    
   236  119  240 1    
   237  120  121 1    
   238  120  124 1    
   239  120  241 1    
   240  121  122 am   BACKBONE|DICT|INTERRES
   241  121  123 2    
   242  122  242 1    
   243  122  243 1    
   244  124  125 1    
   245  124  244 1    
   246  124  245 1    
   247  125  126 1    
   248  126  246 1    
   249  126  247 1    
@<TRIPOS>SUBSTRUCTURE
     1 UNK         1 GROUP             0       ****    0 ROOT    
