@<TRIPOS>MOLECULE
3R540
247   249    1
SMALL
USER_CHARGES


@<TRIPOS>ATOM
      1 CA          8.4768  -10.7143  -49.3484 C.3       0 UNK        -0.1800 
      2 C           7.2535  -11.0321  -48.5008 C.2       0 UNK         0.5000 
      3 O           6.5702  -10.1159  -48.0425 O.2       0 UNK        -0.5000 
      4 N           6.9810  -12.3250  -48.2772 N.am      1 UNK        -0.5000 
      5 CA          5.8631  -12.8916  -47.5057 C.3       1 UNK         0.1400 
      6 C6          4.4697  -12.4201  -48.0070 C.3       23 UNK        -0.0398 
      7 S7          3.1819  -13.6979  -47.8342 S.3       23 UNK        -0.2404 
      8 C8          3.3658  -14.5560  -49.4276 C.3       23 UNK        -0.0205 
      9 C9          2.3194  -15.6440  -49.6031 C.ar      23 UNK        -0.0193 
     10 C10         1.1272  -15.3665  -50.2765 C.ar      23 UNK        -0.1150 
     11 C11         0.1654  -16.3628  -50.4627 C.ar      23 UNK        -0.0193 
     12 C12         0.4105  -17.6444  -49.9613 C.ar      23 UNK        -0.1150 
     13 C13         1.5972  -17.9424  -49.2804 C.ar      23 UNK        -0.0193 
     14 C14         2.5462  -16.9300  -49.1050 C.ar      23 UNK        -0.1150 
     15 C15         1.8571  -19.3231  -48.6765 C.3       23 UNK        -0.0205 
     16 S16         1.3648  -20.7281  -49.7285 S.3       23 UNK        -0.2404 
     17 C17        -0.3843  -20.9698  -49.2649 C.3       23 UNK        -0.0398 
     18 CA         -0.5826  -22.1756  -48.3183 C.3       11 UNK         0.1400 
     19 N          -0.1498  -21.8892  -46.9458 N.am      11 UNK        -0.5000 
     20 C          -0.0425  -22.8045  -45.9724 C.2       10 UNK         0.5000 
     21 O          -0.2434  -24.0070  -46.1386 O.2       10 UNK        -0.5000 
     22 CA          0.2861  -22.2783  -44.5650 C.3       10 UNK         0.1400 
     23 CB          1.7943  -22.0334  -44.4107 C.3       10 UNK        -0.1800 
     24 N          -0.4569  -21.0551  -44.2532 N.am      10 UNK        -0.5000 
     25 C          -1.7781  -21.0289  -44.0165 C.2       9 UNK         0.5000 
     26 O          -2.4819  -22.0383  -44.0098 O.2       9 UNK        -0.5000 
     27 CA         -2.4426  -19.6551  -43.7879 C.3       9 UNK         0.1400 
     28 CB         -2.4248  -19.2954  -42.2951 C.3       9 UNK        -0.1800 
     29 N          -1.8371  -18.5640  -44.5506 N.am      9 UNK        -0.5000 
     30 C          -1.6883  -18.5343  -45.8817 C.2       8 UNK         0.5000 
     31 O          -2.1116  -19.4094  -46.6360 O.2       8 UNK        -0.5000 
     32 CA         -0.8586  -17.3758  -46.4631 C.3       8 UNK         0.1400 
     33 CB         -1.7605  -16.2078  -46.8823 C.3       8 UNK        -0.1800 
     34 N           0.2006  -16.8918  -45.5723 N.am      8 UNK        -0.5000 
     35 C           1.1939  -17.6384  -45.0648 C.2       7 UNK         0.5000 
     36 O           1.3150  -18.8461  -45.2653 O.2       7 UNK        -0.5000 
     37 CA          2.1771  -16.9294  -44.1222 C.3       7 UNK         0.1400 
     38 CB          3.1608  -16.0466  -44.9081 C.3       7 UNK        -0.1800 
     39 N           1.4444  -16.1438  -43.1275 N.am      7 UNK        -0.5000 
     40 C           0.8778  -16.6791  -42.0347 C.2       6 UNK         0.5000 
     41 O           1.0694  -17.8398  -41.6721 O.2       6 UNK        -0.5000 
     42 CA         -0.0989  -15.8016  -41.2269 C.3       6 UNK         0.1400 
     43 CB          0.5474  -15.2618  -39.9433 C.3       6 UNK        -0.1800 
     44 N          -0.6464  -14.6891  -42.0034 N.am      6 UNK        -0.5000 
     45 C          -1.6249  -14.8244  -42.9096 C.2       5 UNK         0.5000 
     46 O          -2.1686  -15.8981  -43.1670 O.2       5 UNK        -0.5000 
     47 CA         -2.0358  -13.5612  -43.6915 C.3       5 UNK         0.1400 
     48 CB         -3.1380  -12.7996  -42.9411 C.3       5 UNK        -0.1800 
     49 N          -0.9217  -12.6507  -43.9652 N.am      5 UNK        -0.5000 
     50 C           0.1815  -12.9705  -44.6548 C.2       4 UNK         0.5000 
     51 O           0.3716  -14.0831  -45.1443 O.2       4 UNK        -0.5000 
     52 CA          1.2785  -11.8965  -44.7877 C.3       4 UNK         0.1400 
     53 CB          0.7940  -10.4637  -44.4751 C.3       4 UNK        -0.1800 
     54 N           2.4612  -12.2144  -43.9809 N.am      4 UNK        -0.5000 
     55 C           2.5165  -12.4467  -42.6592 C.2       3 UNK         0.5000 
     56 O           1.5234  -12.5082  -41.9328 O.2       3 UNK        -0.5000 
     57 CA          3.9148  -12.6314  -42.0337 C.3       3 UNK         0.1400 
     58 CB          4.1111  -14.0563  -41.4943 C.3       3 UNK        -0.1800 
     59 N           5.0013  -12.3311  -42.9677 N.am      3 UNK        -0.5000 
     60 C           5.5126  -11.1155  -43.1892 C.2       2 UNK         0.5000 
     61 O           5.1028  -10.0923  -42.6402 O.2       2 UNK        -0.5000 
     62 CA          6.6774  -11.0231  -44.1926 C.3       2 UNK         0.1400 
     63 CB          7.9445  -11.7119  -43.6497 C.3       2 UNK        -0.1800 
     64 N           6.3576  -11.4915  -45.5463 N.am      2 UNK        -0.5000 
     65 C           6.0324  -12.7178  -45.9792 C.2       1 UNK         0.5000 
     66 O           5.8977  -13.6937  -45.2400 O.2       1 UNK        -0.5000 
     67 C          -2.0473  -22.6499  -48.3576 C.2       11 UNK         0.5000 
     68 O          -2.3597  -23.5653  -49.1194 O.2       11 UNK        -0.5000 
     69 N          -2.9057  -22.0466  -47.5243 N.am      12 UNK        -0.5000 
     70 CA         -4.3044  -22.4326  -47.3569 C.3       12 UNK         0.1400 
     71 CB         -5.0373  -21.3812  -46.5103 C.3       12 UNK        -0.1800 
     72 C          -4.4570  -23.8360  -46.7463 C.2       12 UNK         0.5000 
     73 O          -5.2442  -24.6318  -47.2577 O.2       12 UNK        -0.5000 
     74 N          -3.6776  -24.1268  -45.6941 N.am      13 UNK        -0.5000 
     75 CA         -3.6345  -25.4279  -45.0228 C.3       13 UNK         0.1400 
     76 CB         -2.8016  -25.3157  -43.7370 C.3       13 UNK        -0.1800 
     77 C          -3.0921  -26.5518  -45.9247 C.2       13 UNK         0.5000 
     78 O          -3.6331  -27.6580  -45.9092 O.2       13 UNK        -0.5000 
     79 N          -2.0513  -26.2427  -46.7100 N.am      14 UNK        -0.5000 
     80 CA         -1.4560  -27.1492  -47.6938 C.3       14 UNK         0.1400 
     81 CB         -0.0715  -26.6105  -48.0877 C.3       14 UNK        -0.1800 
     82 C          -2.3207  -27.3419  -48.9554 C.2       14 UNK         0.5000 
     83 O          -2.1144  -28.3192  -49.6757 O.2       14 UNK        -0.5000 
     84 N          -3.2371  -26.3957  -49.2132 N.am      15 UNK        -0.5000 
     85 CA         -4.0311  -26.2274  -50.4344 C.3       15 UNK         0.1400 
     86 CB         -5.0423  -27.3784  -50.6094 C.3       15 UNK        -0.1800 
     87 C          -3.1234  -26.0132  -51.6633 C.2       15 UNK         0.5000 
     88 O          -3.3101  -26.6474  -52.7029 O.2       15 UNK        -0.5000 
     89 N          -2.1327  -25.1235  -51.5064 N.am      16 UNK        -0.5000 
     90 CA         -1.0668  -24.8548  -52.4774 C.3       16 UNK         0.1400 
     91 CB         -0.0242  -23.9328  -51.8286 C.3       16 UNK        -0.1800 
     92 C          -1.5656  -24.2563  -53.8072 C.2       16 UNK         0.5000 
     93 O          -0.9375  -24.4722  -54.8439 O.2       16 UNK        -0.5000 
     94 N          -2.6964  -23.5433  -53.7507 N.am      17 UNK        -0.5000 
     95 CA         -3.4167  -22.9926  -54.9002 C.3       17 UNK         0.1400 
     96 CB         -3.6527  -21.4928  -54.6555 C.3       17 UNK        -0.1800 
     97 C          -4.7442  -23.7444  -55.1310 C.2       17 UNK         0.5000 
     98 O          -5.6694  -23.1795  -55.7162 O.2       17 UNK        -0.5000 
     99 N          -4.8363  -24.9885  -54.6358 N.am      18 UNK        -0.5000 
    100 CA        -6.0316  -25.8326  -54.5946 C.3       18 UNK         0.1400 
    101 CB        -6.4413  -26.2752  -56.0182 C.3       18 UNK        -0.1800 
    102 C         -7.1570  -25.1581  -53.7810 C.2       18 UNK         0.5000 
    103 O         -6.8813  -24.6109  -52.7099 O.2       18 UNK        -0.5000 
    104 N         -8.3908  -25.1880  -54.3007 N.am      19 UNK        -0.5000 
    105 CA        -9.5948  -24.6328  -53.6775 C.3       19 UNK         0.1400 
    106 CB       -10.8184  -25.0615  -54.5024 C.3       19 UNK        -0.1800 
    107 C         -9.5797  -23.1012  -53.4932 C.2       19 UNK         0.5000 
    108 O        -10.3475  -22.5931  -52.6751 O.2       19 UNK        -0.5000 
    109 N         -8.7175  -22.3901  -54.2365 N.am      20 UNK        -0.5000 
    110 CA        -8.5267  -20.9435  -54.1081 C.3       20 UNK         0.1400 
    111 CB        -7.7708  -20.4134  -55.3355 C.3       20 UNK        -0.1800 
    112 C         -7.7915  -20.5482  -52.8131 C.2       20 UNK         0.5000 
    113 O         -7.9642  -19.4208  -52.3472 O.2       20 UNK        -0.5000 
    114 N         -6.9772  -21.4680  -52.2655 N.am      21 UNK        -0.5000 
    115 CA        -6.2652  -21.3844  -50.9801 C.3       21 UNK         0.1400 
    116 CB        -7.2894  -21.4308  -49.8271 C.3       21 UNK        -0.1800 
    117 C         -5.2889  -20.1910  -50.8350 C.2       21 UNK         0.5000 
    118 O         -4.8594  -19.8898  -49.7223 O.2       21 UNK        -0.5000 
    119 N         -4.9613  -19.5297  -51.9529 N.am      22 UNK        -0.5000 
    120 CA        -4.2512  -18.2429  -52.0248 C.3       22 UNK         0.1400 
    121 C         -5.0798  -17.0367  -51.4747 C.2       22 UNK         0.5000 
    122 N         -6.4036  -17.1274  -51.4010 N.am      22 UNK        -0.7600 
    123 O         -4.5322  -15.9933  -51.1321 O.2       22 UNK        -0.5000 
    124 C124       -2.7959  -18.3238  -51.4758 C.3       23 UNK        -0.0398 
    125 S125       -1.6359  -17.2710  -52.4203 S.3       23 UNK        -0.2404 
    126 C126       -1.1422  -16.0289  -51.1756 C.3       23 UNK        -0.0205 
    127 H127        8.1840  -10.1431  -50.2293 H         1 UNK         0.0600 
    128 H128        8.9850  -11.6189  -49.6830 H         1 UNK         0.0600 
    129 H129        9.1860  -10.1181  -48.7742 H         1 UNK         0.0600 
    130 H130        7.6118  -13.0153  -48.6614 H         1 UNK         0.3000 
    131 H131        5.9388  -13.9639  -47.6943 H         1 UNK         0.0600 
    132 H132        4.1430  -11.5161  -47.4898 H         1 UNK         0.0800 
    133 H133        4.5214  -12.1409  -49.0602 H         1 UNK         0.0800 
    134 H134        3.2882  -13.8345  -50.2425 H         1 UNK         0.0800 
    135 H135        4.3650  -14.9890  -49.4943 H         1 UNK         0.0800 
    136 H136        0.9484  -14.3691  -50.6531 H         1 UNK         0.1150 
    137 H137       -0.3367  -18.4051  -50.1047 H         1 UNK         0.1150 
    138 H138        3.4634  -17.1377  -48.5718 H         1 UNK         0.1150 
    139 H139        2.9202  -19.4360  -48.4591 H         1 UNK         0.0800 
    140 H140        1.3460  -19.3992  -47.7202 H         1 UNK         0.0800 
    141 H141       -0.9358  -21.1053  -50.1969 H         1 UNK         0.0800 
    142 H142       -0.7927  -20.0694  -48.8079 H         1 UNK         0.0800 
    143 H143        0.0226  -23.0063  -48.6881 H         1 UNK         0.0600 
    144 H144       -0.0072  -20.9190  -46.7064 H         1 UNK         0.3000 
    145 H145       -0.0036  -23.0457  -43.8438 H         1 UNK         0.0600 
    146 H146        2.0330  -21.6441  -43.4208 H         1 UNK         0.0600 
    147 H147        2.1700  -21.3255  -45.1498 H         1 UNK         0.0600 
    148 H148        2.3515  -22.9622  -44.5390 H         1 UNK         0.0600 
    149 H149        0.0587  -20.1832  -44.3061 H         1 UNK         0.3000 
    150 H150       -3.4832  -19.7346  -44.1064 H         1 UNK         0.0600 
    151 H151       -2.8921  -20.0796  -41.6980 H         1 UNK         0.0600 
    152 H152       -2.9731  -18.3727  -42.1042 H         1 UNK         0.0600 
    153 H153       -1.4070  -19.1635  -41.9263 H         1 UNK         0.0600 
    154 H154       -1.5244  -17.7598  -44.0200 H         1 UNK         0.3000 
    155 H155       -0.3731  -17.7576  -47.3576 H         1 UNK         0.0600 
    156 H156       -2.5040  -16.5329  -47.6114 H         1 UNK         0.0600 
    157 H157       -1.1808  -15.4077  -47.3437 H         1 UNK         0.0600 
    158 H158       -2.2958  -15.7910  -46.0300 H         1 UNK         0.0600 
    159 H159        0.2017  -15.8926  -45.3779 H         1 UNK         0.3000 
    160 H160        2.7628  -17.7001  -43.6163 H         1 UNK         0.0600 
    161 H161        2.6862  -15.1490  -45.2988 H         1 UNK         0.0600 
    162 H162        3.5796  -16.5868  -45.7583 H         1 UNK         0.0600 
    163 H163        4.0009  -15.7358  -44.2901 H         1 UNK         0.0600 
    164 H164        1.1872  -15.2035  -43.3957 H         1 UNK         0.3000 
    165 H165       -0.9238  -16.4509  -40.9247 H         1 UNK         0.0600 
    166 H166       -0.2017  -14.8150  -39.2895 H         1 UNK         0.0600 
    167 H167        1.0358  -16.0581  -39.3801 H         1 UNK         0.0600 
    168 H168        1.2933  -14.4993  -40.1554 H         1 UNK         0.0600 
    169 H169       -0.2019  -13.7850  -41.8840 H         1 UNK         0.3000 
    170 H170       -2.4404  -13.8834  -44.6522 H         1 UNK         0.0600 
    171 H171       -2.7832  -12.4194  -41.9823 H         1 UNK         0.0600 
    172 H172       -3.5014  -11.9537  -43.5250 H         1 UNK         0.0600 
    173 H173       -3.9934  -13.4467  -42.7419 H         1 UNK         0.0600 
    174 H174       -0.9837  -11.7264  -43.5640 H         1 UNK         0.3000 
    175 H175        1.5966  -11.9161  -45.8308 H         1 UNK         0.0600 
    176 H176        0.5128  -10.3394  -43.4288 H         1 UNK         0.0600 
    177 H177        1.5771   -9.7365  -44.6903 H         1 UNK         0.0600 
    178 H178       -0.0674  -10.1959  -45.0883 H         1 UNK         0.0600 
    179 H179        3.3368  -12.2329  -44.4821 H         1 UNK         0.3000 
    180 H180        3.9808  -11.9458  -41.1862 H         1 UNK         0.0600 
    181 H181        5.1290  -14.2059  -41.1340 H         1 UNK         0.0600 
    182 H182        3.9106  -14.8111  -42.2516 H         1 UNK         0.0600 
    183 H183        3.4481  -14.2497  -40.6533 H         1 UNK         0.0600 
    184 H184        5.3653  -13.1005  -43.5245 H         1 UNK         0.3000 
    185 H185        6.9104   -9.9625  -44.3000 H         1 UNK         0.0600 
    186 H186        8.7922  -11.5547  -44.3166 H         1 UNK         0.0600 
    187 H187        8.2192  -11.3078  -42.6746 H         1 UNK         0.0600 
    188 H188        7.8098  -12.7872  -43.5296 H         1 UNK         0.0600 
    189 H189        6.4235  -10.7787  -46.2691 H         1 UNK         0.3000 
    190 H190       -2.5870  -21.2396  -46.9954 H         1 UNK         0.3000 
    191 H191       -4.7572  -22.4526  -48.3491 H         1 UNK         0.0600 
    192 H192       -4.9564  -20.3897  -46.9565 H         1 UNK         0.0600 
    193 H193       -4.6377  -21.3264  -45.4986 H         1 UNK         0.0600 
    194 H194       -6.0987  -21.6173  -46.4291 H         1 UNK         0.0600 
    195 H195       -3.0937  -23.3960  -45.2982 H         1 UNK         0.3000 
    196 H196       -4.6563  -25.6925  -44.7428 H         1 UNK         0.0600 
    197 H197       -3.2343  -24.5881  -43.0502 H         1 UNK         0.0600 
    198 H198       -1.7765  -25.0086  -43.9469 H         1 UNK         0.0600 
    199 H199       -2.7588  -26.2714  -43.2131 H         1 UNK         0.0600 
    200 H200       -1.6125  -25.3317  -46.6094 H         1 UNK         0.3000 
    201 H201       -1.3238  -28.1284  -47.2291 H         1 UNK         0.0600 
    202 H202        0.5811  -26.5261  -47.2186 H         1 UNK         0.0600 
    203 H203       -0.1423  -25.6252  -48.5504 H         1 UNK         0.0600 
    204 H204        0.4207  -27.2736  -48.8003 H         1 UNK         0.0600 
    205 H205       -3.2934  -25.6241  -48.5613 H         1 UNK         0.3000 
    206 H206       -4.6006  -25.3053  -50.3066 H         1 UNK         0.0600 
    207 H207       -4.5488  -28.3302  -50.8069 H         1 UNK         0.0600 
    208 H208       -5.6586  -27.4975  -49.7183 H         1 UNK         0.0600 
    209 H209       -5.7149  -27.1792  -51.4443 H         1 UNK         0.0600 
    210 H210       -2.0841  -24.6215  -50.6224 H         1 UNK         0.3000 
    211 H211       -0.5846  -25.8070  -52.7079 H         1 UNK         0.0600 
    212 H212       -0.4513  -22.9619  -51.5799 H         1 UNK         0.0600 
    213 H213        0.8165  -23.7577  -52.5011 H         1 UNK         0.0600 
    214 H214        0.3773  -24.3693  -50.9139 H         1 UNK         0.0600 
    215 H215       -3.1416  -23.4397  -52.8506 H         1 UNK         0.3000 
    216 H216       -2.8265  -23.1001  -55.8122 H         1 UNK         0.0600 
    217 H217       -4.0911  -21.0138  -55.5319 H         1 UNK         0.0600 
    218 H218       -2.7202  -20.9730  -54.4343 H         1 UNK         0.0600 
    219 H219       -4.3324  -21.3375  -53.8202 H         1 UNK         0.0600 
    220 H220       -4.0384  -25.3693  -54.1395 H         1 UNK         0.3000 
    221 H221       -5.7546  -26.7293  -54.0391 H         1 UNK         0.0600 
    222 H222       -6.7944  -25.4411  -56.6255 H         1 UNK         0.0600 
    223 H223       -5.5979  -26.7270  -56.5405 H         1 UNK         0.0600 
    224 H224       -7.2319  -27.0259  -55.9877 H         1 UNK         0.0600 
    225 H225       -8.5198  -25.6380  -55.1954 H         1 UNK         0.3000 
    226 H226       -9.6833  -25.0731  -52.6822 H         1 UNK         0.0600 
    227 H227      -10.8949  -26.1474  -54.5614 H         1 UNK         0.0600 
    228 H228      -11.7426  -24.6973  -54.0515 H         1 UNK         0.0600 
    229 H229      -10.7736  -24.6708  -55.5198 H         1 UNK         0.0600 
    230 H230       -8.1110  -22.8764  -54.8831 H         1 UNK         0.3000 
    231 H231       -9.5101  -20.4688  -54.0869 H         1 UNK         0.0600 
    232 H232       -7.6922  -19.3259  -55.3036 H         1 UNK         0.0600 
    233 H233       -8.2848  -20.6743  -56.2607 H         1 UNK         0.0600 
    234 H234       -6.7575  -20.8107  -55.3902 H         1 UNK         0.0600 
    235 H235       -6.9251  -22.3717  -52.7210 H         1 UNK         0.3000 
    236 H236       -5.6504  -22.2833  -50.9145 H         1 UNK         0.0600 
    237 H237       -7.9340  -20.5514  -49.8251 H         1 UNK         0.0600 
    238 H238       -7.9265  -22.3121  -49.9045 H         1 UNK         0.0600 
    239 H239       -6.8018  -21.4719  -48.8547 H         1 UNK         0.0600 
    240 H240       -5.3861  -19.8389  -52.8137 H         1 UNK         0.3000 
    241 H241       -4.1837  -18.0505  -53.0961 H         1 UNK         0.0600 
    242 H242       -6.8940  -17.9671  -51.6973 H         1 UNK         0.3800 
    243 H243       -6.9308  -16.3425  -51.0535 H         1 UNK         0.3800 
    244 H244       -2.7637  -18.0939  -50.4094 H         1 UNK         0.0800 
    245 H245       -2.4211  -19.3441  -51.5656 H         1 UNK         0.0800 
    246 H246       -1.9292  -15.8965  -50.4327 H         1 UNK         0.0800 
    247 H247       -1.0511  -15.0708  -51.6895 H         1 UNK         0.0800 
@<TRIPOS>BOND
     1    1    2 1    
     2    1  127 1    
     3    1  128 1    
     4    1  129 1    
     5    2    3 2    
     6    2    4 am   BACKBONE|DICT|INTERRES
     7    4    5 1    
     8    4  130 1    
     9    5    6 1    
    10    5   65 1    
    11    5  131 1    
    12    6    7 1    
    13    6  132 1    
    14    6  133 1    
    15    7    8 1    
    16    8    9 1    
    17    8  134 1    
    18    8  135 1    
    19    9   10 ar   
    20    9   14 ar   
    21   10   11 ar   
    22   10  136 1    
    23   11   12 ar   
    24   11  126 1    
    25   12   13 ar   
    26   12  137 1    
    27   13   14 ar   
    28   13   15 1    
    29   14  138 1    
    30   15   16 1    
    31   15  139 1    
    32   15  140 1    
    33   16   17 1    
    34   17   18 1    
    35   17  141 1    
    36   17  142 1    
    37   18   19 1    
    38   18   67 1    
    39   18  143 1    
    40   19   20 am   BACKBONE|DICT|INTERRES
    41   19  144 1    
    42   20   21 2    
    43   20   22 1    
    44   22   23 1    
    45   22   24 1    
    46   22  145 1    
    47   23  146 1    
    48   23  147 1    
    49   23  148 1    
    50   24   25 am   BACKBONE|DICT|INTERRES
    51   24  149 1    
    52   25   26 2    
    53   25   27 1    
    54   27   28 1    
    55   27   29 1    
    56   27  150 1    
    57   28  151 1    
    58   28  152 1    
    59   28  153 1    
    60   29   30 am   BACKBONE|DICT|INTERRES
    61   29  154 1    
    62   30   31 2    
    63   30   32 1    
    64   32   33 1    
    65   32   34 1    
    66   32  155 1    
    67   33  156 1    
    68   33  157 1    
    69   33  158 1    
    70   34   35 am   BACKBONE|DICT|INTERRES
    71   34  159 1    
    72   35   36 2    
    73   35   37 1    
    74   37   38 1    
    75   37   39 1    
    76   37  160 1    
    77   38  161 1    
    78   38  162 1    
    79   38  163 1    
    80   39   40 am   BACKBONE|DICT|INTERRES
    81   39  164 1    
    82   40   41 2    
    83   40   42 1    
    84   42   43 1    
    85   42   44 1    
    86   42  165 1    
    87   43  166 1    
    88   43  167 1    
    89   43  168 1    
    90   44   45 am   BACKBONE|DICT|INTERRES
    91   44  169 1    
    92   45   46 2    
    93   45   47 1    
    94   47   48 1    
    95   47   49 1    
    96   47  170 1    
    97   48  171 1    
    98   48  172 1    
    99   48  173 1    
   100   49   50 am   BACKBONE|DICT|INTERRES
   101   49  174 1    
   102   50   51 2    
   103   50   52 1    
   104   52   53 1    
   105   52   54 1    
   106   52  175 1    
   107   53  176 1    
   108   53  177 1    
   109   53  178 1    
   110   54   55 am   BACKBONE|DICT|INTERRES
   111   54  179 1    
   112   55   56 2    
   113   55   57 1    
   114   57   58 1    
   115   57   59 1    
   116   57  180 1    
   117   58  181 1    
   118   58  182 1    
   119   58  183 1    
   120   59   60 am   BACKBONE|DICT|INTERRES
   121   59  184 1    
   122   60   61 2    
   123   60   62 1    
   124   62   63 1    
   125   62   64 1    
   126   62  185 1    
   127   63  186 1    
   128   63  187 1    
   129   63  188 1    
   130   64   65 am   BACKBONE|DICT|INTERRES
   131   64  189 1    
   132   65   66 2    
   133   67   68 2    
   134   67   69 am   BACKBONE|DICT|INTERRES
   135   69   70 1    
   136   69  190 1    
   137   70   71 1    
   138   70   72 1    
   139   70  191 1    
   140   71  192 1    
   141   71  193 1    
   142   71  194 1    
   143   72   73 2    
   144   72   74 am   BACKBONE|DICT|INTERRES
   145   74   75 1    
   146   74  195 1    
   147   75   76 1    
   148   75   77 1    
   149   75  196 1    
   150   76  197 1    
   151   76  198 1    
   152   76  199 1    
   153   77   78 2    
   154   77   79 am   BACKBONE|DICT|INTERRES
   155   79   80 1    
   156   79  200 1    
   157   80   81 1    
   158   80   82 1    
   159   80  201 1    
   160   81  202 1    
   161   81  203 1    
   162   81  204 1    
   163   82   83 2    
   164   82   84 am   BACKBONE|DICT|INTERRES
   165   84   85 1    
   166   84  205 1    
   167   85   86 1    
   168   85   87 1    
   169   85  206 1    
   170   86  207 1    
   171   86  208 1    
   172   86  209 1    
   173   87   88 2    
   174   87   89 am   BACKBONE|DICT|INTERRES
   175   89   90 1    
   176   89  210 1    
   177   90   91 1    
   178   90   92 1    
   179   90  211 1    
   180   91  212 1    
   181   91  213 1    
   182   91  214 1    
   183   92   93 2    
   184   92   94 am   BACKBONE|DICT|INTERRES
   185   94   95 1    
   186   94  215 1    
   187   95   96 1    
   188   95   97 1    
   189   95  216 1    
   190   96  217 1    
   191   96  218 1    
   192   96  219 1    
   193   97   98 2    
   194   97   99 am   BACKBONE|DICT|INTERRES
   195   99  100 1    
   196   99  220 1    
   197  100  101 1    
   198  100  102 1    
   199  100  221 1    
   200  101  222 1    
   201  101  223 1    
   202  101  224 1    
   203  102  103 2    
   204  102  104 am   BACKBONE|DICT|INTERRES
   205  104  105 1    
   206  104  225 1    
   207  105  106 1    
   208  105  107 1    
   209  105  226 1    
   210  106  227 1    
   211  106  228 1    
   212  106  229 1    
   213  107  108 2    
   214  107  109 am   BACKBONE|DICT|INTERRES
   215  109  110 1    
   216  109  230 1    
   217  110  111 1    
   218  110  112 1    
   219  110  231 1    
   220  111  232 1    
   221  111  233 1    
   222  111  234 1    
   223  112  113 2    
   224  112  114 am   BACKBONE|DICT|INTERRES
   225  114  115 1    
   226  114  235 1    
   227  115  116 1    
   228  115  117 1    
   229  115  236 1    
   230  116  237 1    
   231  116  238 1    
   232  116  239 1    
   233  117  118 2    
   234  117  119 am   BACKBONE|DICT|INTERRES
   235  119  120 1    
   236  119  240 1    
   237  120  121 1    
   238  120  124 1    
   239  120  241 1    
   240  121  122 am   BACKBONE|DICT|INTERRES
   241  121  123 2    
   242  122  242 1    
   243  122  243 1    
   244  124  125 1    
   245  124  244 1    
   246  124  245 1    
   247  125  126 1    
   248  126  246 1    
   249  126  247 1    
@<TRIPOS>SUBSTRUCTURE
     1 UNK         1 GROUP             0       ****    0 ROOT    
