@<TRIPOS>MOLECULE
3R540
247   249    1
SMALL
USER_CHARGES


@<TRIPOS>ATOM
      1 CA          6.4492  -14.8980  -42.9278 C.3       0 UNK        -0.1800 
      2 C           5.2245  -14.2688  -43.5739 C.2       0 UNK         0.5000 
      3 O           4.1173  -14.4115  -43.0569 O.2       0 UNK        -0.5000 
      4 N           5.4147  -13.5781  -44.7033 N.am      1 UNK        -0.5000 
      5 CA          4.3809  -12.8204  -45.4188 C.3       1 UNK         0.1400 
      6 C6          4.4757  -13.0036  -46.9550 C.3       23 UNK        -0.0398 
      7 S7          4.0290  -14.7027  -47.4415 S.3       23 UNK        -0.2404 
      8 C8          3.7764  -14.5167  -49.2333 C.3       23 UNK        -0.0205 
      9 C9          3.0113  -15.6964  -49.8190 C.ar      23 UNK        -0.0193 
     10 C10         1.7276  -15.5110  -50.3460 C.ar      23 UNK        -0.1150 
     11 C11         1.0236  -16.5864  -50.8955 C.ar      23 UNK        -0.0193 
     12 C12         1.6199  -17.8479  -50.9282 C.ar      23 UNK        -0.1150 
     13 C13         2.8905  -18.0560  -50.3865 C.ar      23 UNK        -0.0193 
     14 C14         3.5854  -16.9730  -49.8394 C.ar      23 UNK        -0.1150 
     15 C15         3.5044  -19.4507  -50.4025 C.3       23 UNK        -0.0205 
     16 S16         2.9982  -20.4544  -48.9644 S.3       23 UNK        -0.2404 
     17 C17         1.1957  -20.5571  -49.2189 C.3       23 UNK        -0.0398 
     18 CA          0.4937  -21.6511  -48.3851 C.3       11 UNK         0.1400 
     19 N           0.5371  -21.3960  -46.9421 N.am      11 UNK        -0.5000 
     20 C           0.0824  -22.2418  -46.0053 C.2       10 UNK         0.5000 
     21 O          -0.3582  -23.3651  -46.2548 O.2       10 UNK        -0.5000 
     22 CA          0.0627  -21.7289  -44.5530 C.3       10 UNK         0.1400 
     23 CB          1.4560  -21.8191  -43.9129 C.3       10 UNK        -0.1800 
     24 N          -0.4486  -20.3606  -44.4474 N.am      10 UNK        -0.5000 
     25 C          -1.7046  -19.9992  -44.7489 C.2       9 UNK         0.5000 
     26 O          -2.5761  -20.7942  -45.1001 O.2       9 UNK        -0.5000 
     27 CA         -2.0349  -18.4955  -44.6966 C.3       9 UNK         0.1400 
     28 CB         -2.3141  -18.0399  -43.2569 C.3       9 UNK        -0.1800 
     29 N          -0.9805  -17.6667  -45.2785 N.am      9 UNK        -0.5000 
     30 C          -0.5949  -17.7131  -46.5621 C.2       8 UNK         0.5000 
     31 O          -1.1300  -18.4169  -47.4165 O.2       8 UNK        -0.5000 
     32 CA          0.6328  -16.8710  -46.9415 C.3       8 UNK         0.1400 
     33 CB          0.2181  -15.4159  -47.2013 C.3       8 UNK        -0.1800 
     34 N           1.6743  -16.9337  -45.9136 N.am      8 UNK        -0.5000 
     35 C           2.3290  -18.0579  -45.5858 C.2       7 UNK         0.5000 
     36 O           2.1269  -19.1440  -46.1232 O.2       7 UNK        -0.5000 
     37 CA          3.3230  -17.9814  -44.4162 C.3       7 UNK         0.1400 
     38 CB          4.6997  -17.5027  -44.8915 C.3       7 UNK        -0.1800 
     39 N           2.8259  -17.1433  -43.3225 N.am      7 UNK        -0.5000 
     40 C           1.8022  -17.5096  -42.5365 C.2       6 UNK         0.5000 
     41 O           1.2157  -18.5874  -42.6428 O.2       6 UNK        -0.5000 
     42 CA          1.3262  -16.4977  -41.4795 C.3       6 UNK         0.1400 
     43 CB          2.1733  -16.6102  -40.2037 C.3       6 UNK        -0.1800 
     44 N           1.3426  -15.1115  -41.9424 N.am      6 UNK        -0.5000 
     45 C           0.6608  -14.6215  -42.9830 C.2       5 UNK         0.5000 
     46 O          -0.0737  -15.3067  -43.6974 O.2       5 UNK        -0.5000 
     47 CA          0.8278  -13.1106  -43.2469 C.3       5 UNK         0.1400 
     48 CB          0.1691  -12.6556  -44.5601 C.3       5 UNK        -0.1800 
     49 N           0.3055  -12.2955  -42.1491 N.am      5 UNK        -0.5000 
     50 C           0.9330  -12.0748  -40.9880 C.2       4 UNK         0.5000 
     51 O           2.0170  -12.5815  -40.6907 O.2       4 UNK        -0.5000 
     52 CA          0.2888  -11.0409  -40.0515 C.3       4 UNK         0.1400 
     53 CB          0.6029  -11.3178  -38.5709 C.3       4 UNK        -0.1800 
     54 N           0.8427   -9.7449  -40.4229 N.am      4 UNK        -0.5000 
     55 C           0.2766   -8.8811  -41.2752 C.2       3 UNK         0.5000 
     56 O          -0.8909   -8.9560  -41.6597 O.2       3 UNK        -0.5000 
     57 CA          1.2083   -7.7922  -41.8470 C.3       3 UNK         0.1400 
     58 CB          1.2937   -6.5897  -40.8949 C.3       3 UNK        -0.1800 
     59 N           2.5593   -8.3041  -42.1130 N.am      3 UNK        -0.5000 
     60 C           2.8400   -9.2703  -43.0011 C.2       2 UNK         0.5000 
     61 O           1.9990   -9.7323  -43.7750 O.2       2 UNK        -0.5000 
     62 CA          4.2816   -9.8254  -43.0014 C.3       2 UNK         0.1400 
     63 CB          4.8464   -9.9867  -41.5766 C.3       2 UNK        -0.1800 
     64 N           4.3382  -11.1315  -43.6569 N.am      2 UNK        -0.5000 
     65 C           4.4518  -11.3443  -44.9741 C.2       1 UNK         0.5000 
     66 O           4.6354  -10.4472  -45.7990 O.2       1 UNK        -0.5000 
     67 C          -0.9545  -21.8238  -48.8837 C.2       11 UNK         0.5000 
     68 O          -1.2246  -22.7717  -49.6176 O.2       11 UNK        -0.5000 
     69 N          -1.8624  -20.9293  -48.4651 N.am      12 UNK        -0.5000 
     70 CA         -3.2874  -20.9723  -48.7918 C.3       12 UNK         0.1400 
     71 CB         -3.9919  -19.7171  -48.2581 C.3       12 UNK        -0.1800 
     72 C          -3.9808  -22.2482  -48.2906 C.2       12 UNK         0.5000 
     73 O          -4.7254  -22.8597  -49.0537 O.2       12 UNK        -0.5000 
     74 N          -3.6867  -22.6520  -47.0471 N.am      13 UNK        -0.5000 
     75 CA         -4.1853  -23.8849  -46.4350 C.3       13 UNK         0.1400 
     76 CB         -3.7678  -23.9289  -44.9575 C.3       13 UNK        -0.1800 
     77 C          -3.7252  -25.1580  -47.1706 C.2       13 UNK         0.5000 
     78 O          -4.5071  -26.1019  -47.2885 O.2       13 UNK        -0.5000 
     79 N          -2.4822  -25.1547  -47.6717 N.am      14 UNK        -0.5000 
     80 CA         -1.9345  -26.2200  -48.5104 C.3       14 UNK         0.1400 
     81 CB         -0.4045  -26.0916  -48.5715 C.3       14 UNK        -0.1800 
     82 C          -2.5497  -26.2162  -49.9227 C.2       14 UNK         0.5000 
     83 O          -2.9513  -27.2708  -50.4159 O.2       14 UNK        -0.5000 
     84 N          -2.6288  -25.0282  -50.5390 N.am      15 UNK        -0.5000 
     85 CA         -3.1642  -24.8036  -51.8828 C.3       15 UNK         0.1400 
     86 CB         -2.9144  -23.3476  -52.2968 C.3       15 UNK        -0.1800 
     87 C          -4.6560  -25.1474  -52.0207 C.2       15 UNK         0.5000 
     88 O          -5.0564  -25.6438  -53.0733 O.2       15 UNK        -0.5000 
     89 N          -5.4357  -24.9265  -50.9518 N.am      16 UNK        -0.5000 
     90 CA         -6.8769  -25.1885  -50.8445 C.3       16 UNK         0.1400 
     91 CB         -7.3541  -24.7875  -49.4396 C.3       16 UNK        -0.1800 
     92 C          -7.3173  -26.6348  -51.1630 C.2       16 UNK         0.5000 
     93 O          -8.5016  -26.8668  -51.4087 O.2       16 UNK        -0.5000 
     94 N          -6.3701  -27.5822  -51.1581 N.am      17 UNK        -0.5000 
     95 CA         -6.5704  -28.9727  -51.5588 C.3       17 UNK         0.1400 
     96 CB         -5.3673  -29.7976  -51.0763 C.3       17 UNK        -0.1800 
     97 C          -6.7782  -29.1645  -53.0773 C.2       17 UNK         0.5000 
     98 O          -7.2852  -30.2165  -53.4706 O.2       17 UNK        -0.5000 
     99 N          -6.3799  -28.1837  -53.9022 N.am      18 UNK        -0.5000 
    100 CA        -6.4565  -28.2578  -55.3650 C.3       18 UNK         0.1400 
    101 CB        -5.0998  -28.7174  -55.9247 C.3       18 UNK        -0.1800 
    102 C         -6.8933  -26.9330  -56.0127 C.2       18 UNK         0.5000 
    103 O         -7.6632  -26.9591  -56.9742 O.2       18 UNK        -0.5000 
    104 N         -6.4008  -25.8063  -55.4895 N.am      19 UNK        -0.5000 
    105 CA        -6.7368  -24.4483  -55.9122 C.3       19 UNK         0.1400 
    106 CB        -5.4248  -23.6499  -56.0312 C.3       19 UNK        -0.1800 
    107 C         -7.6911  -23.8051  -54.8885 C.2       19 UNK         0.5000 
    108 O         -8.1474  -24.4752  -53.9603 O.2       19 UNK        -0.5000 
    109 N         -7.9795  -22.5095  -55.0655 N.am      20 UNK        -0.5000 
    110 CA        -8.7022  -21.7016  -54.0817 C.3       20 UNK         0.1400 
    111 CB        -9.2683  -20.4429  -54.7597 C.3       20 UNK        -0.1800 
    112 C         -7.7906  -21.3381  -52.8946 C.2       20 UNK         0.5000 
    113 O         -8.1297  -21.6338  -51.7489 O.2       20 UNK        -0.5000 
    114 N         -6.6413  -20.7279  -53.2076 N.am      21 UNK        -0.5000 
    115 CA        -5.5969  -20.2779  -52.2922 C.3       21 UNK         0.1400 
    116 CB        -6.1265  -19.1785  -51.3484 C.3       21 UNK        -0.1800 
    117 C         -4.4312  -19.7307  -53.1321 C.2       21 UNK         0.5000 
    118 O         -4.6418  -19.3557  -54.2893 O.2       21 UNK        -0.5000 
    119 N         -3.2411  -19.6573  -52.5219 N.am      22 UNK        -0.5000 
    120 CA        -1.9996  -19.1268  -53.1121 C.3       22 UNK         0.1400 
    121 C         -1.4747  -19.9411  -54.3395 C.2       22 UNK         0.5000 
    122 N         -0.5504  -19.3986  -55.1199 N.am      22 UNK        -0.7600 
    123 O         -1.8584  -21.0853  -54.5685 O.2       22 UNK        -0.5000 
    124 C124       -2.0924  -17.5876  -53.3506 C.3       23 UNK        -0.0398 
    125 S125       -0.4818  -16.7348  -53.2149 S.3       23 UNK        -0.2404 
    126 C126       -0.3926  -16.4117  -51.4240 C.3       23 UNK        -0.0205 
    127 H127        6.2000  -15.8741  -42.5119 H         1 UNK         0.0600 
    128 H128        6.8086  -14.2654  -42.1163 H         1 UNK         0.0600 
    129 H129        7.2578  -15.0314  -43.6469 H         1 UNK         0.0600 
    130 H130        6.3504  -13.4886  -45.0734 H         1 UNK         0.3000 
    131 H131        3.3915  -13.1736  -45.1233 H         1 UNK         0.0600 
    132 H132        3.7913  -12.3208  -47.4617 H         1 UNK         0.0800 
    133 H133        5.4775  -12.7720  -47.3198 H         1 UNK         0.0800 
    134 H134        4.7451  -14.4291  -49.7270 H         1 UNK         0.0800 
    135 H135        3.2421  -13.5862  -49.4305 H         1 UNK         0.0800 
    136 H136        1.2723  -14.5310  -50.3201 H         1 UNK         0.1150 
    137 H137        1.0801  -18.6745  -51.3662 H         1 UNK         0.1150 
    138 H138        4.5710  -17.1224  -49.4211 H         1 UNK         0.1150 
    139 H139        3.2304  -19.9694  -51.3225 H         1 UNK         0.0800 
    140 H140        4.5928  -19.3761  -50.4111 H         1 UNK         0.0800 
    141 H141        1.0298  -20.7388  -50.2824 H         1 UNK         0.0800 
    142 H142        0.7611  -19.5829  -48.9925 H         1 UNK         0.0800 
    143 H143        1.0104  -22.5966  -48.5636 H         1 UNK         0.0600 
    144 H144        0.9489  -20.5120  -46.6505 H         1 UNK         0.3000 
    145 H145       -0.6085  -22.3762  -43.9846 H         1 UNK         0.0600 
    146 H146        2.1826  -21.1941  -44.4312 H         1 UNK         0.0600 
    147 H147        1.4309  -21.5061  -42.8689 H         1 UNK         0.0600 
    148 H148        1.8293  -22.8435  -43.9374 H         1 UNK         0.0600 
    149 H149        0.2025  -19.6521  -44.1274 H         1 UNK         0.3000 
    150 H150       -2.9417  -18.3341  -45.2826 H         1 UNK         0.0600 
    151 H151       -3.1308  -18.6144  -42.8182 H         1 UNK         0.0600 
    152 H152       -2.6005  -16.9885  -43.2250 H         1 UNK         0.0600 
    153 H153       -1.4422  -18.1671  -42.6156 H         1 UNK         0.0600 
    154 H154       -0.5112  -17.0160  -44.6559 H         1 UNK         0.3000 
    155 H155        1.0538  -17.2772  -47.8634 H         1 UNK         0.0600 
    156 H156       -0.4408  -15.3556  -48.0683 H         1 UNK         0.0600 
    157 H157       -0.3246  -14.9953  -46.3558 H         1 UNK         0.0600 
    158 H158        1.0784  -14.7804  -47.4049 H         1 UNK         0.0600 
    159 H159        1.8630  -16.0885  -45.3971 H         1 UNK         0.3000 
    160 H160        3.4499  -18.9954  -44.0307 H         1 UNK         0.0600 
    161 H161        5.0715  -18.1326  -45.7007 H         1 UNK         0.0600 
    162 H162        5.4320  -17.5454  -44.0861 H         1 UNK         0.0600 
    163 H163        4.6626  -16.4828  -45.2672 H         1 UNK         0.0600 
    164 H164        3.2485  -16.2293  -43.1904 H         1 UNK         0.3000 
    165 H165        0.2934  -16.7468  -41.2280 H         1 UNK         0.0600 
    166 H166        1.7864  -15.9639  -39.4155 H         1 UNK         0.0600 
    167 H167        2.1687  -17.6310  -39.8192 H         1 UNK         0.0600 
    168 H168        3.2118  -16.3307  -40.3865 H         1 UNK         0.0600 
    169 H169        1.9194  -14.4602  -41.4190 H         1 UNK         0.3000 
    170 H170        1.8961  -12.9105  -43.3345 H         1 UNK         0.0600 
    171 H171        0.2639  -11.5789  -44.6996 H         1 UNK         0.0600 
    172 H172        0.6514  -13.1276  -45.4151 H         1 UNK         0.0600 
    173 H173       -0.8926  -12.9034  -44.5919 H         1 UNK         0.0600 
    174 H174       -0.5698  -11.8228  -42.3243 H         1 UNK         0.3000 
    175 H175       -0.7951  -11.0602  -40.1836 H         1 UNK         0.0600 
    176 H176        1.6740  -11.2878  -38.3667 H         1 UNK         0.0600 
    177 H177        0.1210  -10.5836  -37.9252 H         1 UNK         0.0600 
    178 H178        0.2387  -12.3020  -38.2741 H         1 UNK         0.0600 
    179 H179        1.8167   -9.6079  -40.1960 H         1 UNK         0.3000 
    180 H180        0.7824   -7.4514  -42.7931 H         1 UNK         0.0600 
    181 H181        1.7354   -6.8633  -39.9359 H         1 UNK         0.0600 
    182 H182        0.3026   -6.1803  -40.6950 H         1 UNK         0.0600 
    183 H183        1.8943   -5.7881  -41.3252 H         1 UNK         0.0600 
    184 H184        3.2998   -7.9510  -41.5243 H         1 UNK         0.3000 
    185 H185        4.9104   -9.1184  -43.5461 H         1 UNK         0.0600 
    186 H186        5.8345  -10.4472  -41.5974 H         1 UNK         0.0600 
    187 H187        4.9594   -9.0248  -41.0759 H         1 UNK         0.0600 
    188 H188        4.2029  -10.6130  -40.9568 H         1 UNK         0.0600 
    189 H189        4.1793  -11.9329  -43.0614 H         1 UNK         0.3000 
    190 H190       -1.5552  -20.1401  -47.8997 H         1 UNK         0.3000 
    191 H191       -3.3718  -20.9645  -49.8784 H         1 UNK         0.0600 
    192 H192       -3.8881  -19.6261  -47.1774 H         1 UNK         0.0600 
    193 H193       -5.0591  -19.7416  -48.4812 H         1 UNK         0.0600 
    194 H194       -3.5839  -18.8129  -48.7102 H         1 UNK         0.0600 
    195 H195       -3.0972  -22.0617  -46.4662 H         1 UNK         0.3000 
    196 H196       -5.2760  -23.8567  -46.4795 H         1 UNK         0.0600 
    197 H197       -2.6833  -23.9190  -44.8455 H         1 UNK         0.0600 
    198 H198       -4.1412  -24.8313  -44.4718 H         1 UNK         0.0600 
    199 H199       -4.1678  -23.0754  -44.4098 H         1 UNK         0.0600 
    200 H200       -1.8864  -24.3539  -47.4958 H         1 UNK         0.3000 
    201 H201       -2.1713  -27.1796  -48.0458 H         1 UNK         0.0600 
    202 H202        0.0348  -26.1557  -47.5758 H         1 UNK         0.0600 
    203 H203       -0.0927  -25.1440  -49.0110 H         1 UNK         0.0600 
    204 H204        0.0302  -26.8913  -49.1723 H         1 UNK         0.0600 
    205 H205       -2.2324  -24.2129  -50.0753 H         1 UNK         0.3000 
    206 H206       -2.6154  -25.4510  -52.5696 H         1 UNK         0.0600 
    207 H207       -1.8483  -23.1219  -52.3260 H         1 UNK         0.0600 
    208 H208       -3.3140  -23.1444  -53.2907 H         1 UNK         0.0600 
    209 H209       -3.3842  -22.6516  -51.6039 H         1 UNK         0.0600 
    210 H210       -5.0191  -24.4508  -50.1565 H         1 UNK         0.3000 
    211 H211       -7.3747  -24.5341  -51.5588 H         1 UNK         0.0600 
    212 H212       -6.8125  -25.3273  -48.6624 H         1 UNK         0.0600 
    213 H213       -8.4164  -24.9967  -49.3079 H         1 UNK         0.0600 
    214 H214       -7.2181  -23.7198  -49.2685 H         1 UNK         0.0600 
    215 H215       -5.4215  -27.3082  -50.9386 H         1 UNK         0.3000 
    216 H216       -7.4643  -29.3472  -51.0558 H         1 UNK         0.0600 
    217 H217       -5.4958  -30.8547  -51.3128 H         1 UNK         0.0600 
    218 H218       -5.2417  -29.7195  -49.9962 H         1 UNK         0.0600 
    219 H219       -4.4402  -29.4660  -51.5460 H         1 UNK         0.0600 
    220 H220       -5.9903  -27.3360  -53.5026 H         1 UNK         0.3000 
    221 H221       -7.2073  -28.9954  -55.6562 H         1 UNK         0.0600 
    222 H222       -4.2983  -28.0331  -55.6439 H         1 UNK         0.0600 
    223 H223       -4.8377  -29.7094  -55.5565 H         1 UNK         0.0600 
    224 H224       -5.1224  -28.7705  -57.0140 H         1 UNK         0.0600 
    225 H225       -5.8296  -25.8528  -54.6485 H         1 UNK         0.3000 
    226 H226       -7.2348  -24.4570  -56.8835 H         1 UNK         0.0600 
    227 H227       -4.7167  -24.1541  -56.6891 H         1 UNK         0.0600 
    228 H228       -5.5944  -22.6569  -56.4479 H         1 UNK         0.0600 
    229 H229       -4.9433  -23.5222  -55.0611 H         1 UNK         0.0600 
    230 H230       -7.5943  -22.0224  -55.8612 H         1 UNK         0.3000 
    231 H231       -9.5452  -22.2791  -53.6955 H         1 UNK         0.0600 
    232 H232       -9.8016  -19.8203  -54.0402 H         1 UNK         0.0600 
    233 H233       -9.9752  -20.7062  -55.5466 H         1 UNK         0.0600 
    234 H234       -8.4845  -19.8302  -55.2066 H         1 UNK         0.0600 
    235 H235       -6.4330  -20.5199  -54.1765 H         1 UNK         0.3000 
    236 H236       -5.2495  -21.1327  -51.7095 H         1 UNK         0.0600 
    237 H237       -5.3218  -18.7403  -50.7577 H         1 UNK         0.0600 
    238 H238       -6.8591  -19.5718  -50.6440 H         1 UNK         0.0600 
    239 H239       -6.5979  -18.3680  -51.9053 H         1 UNK         0.0600 
    240 H240       -3.1539  -20.0033  -51.5799 H         1 UNK         0.3000 
    241 H241       -1.2535  -19.2989  -52.3356 H         1 UNK         0.0600 
    242 H242       -0.1943  -19.9246  -55.9025 H         1 UNK         0.3800 
    243 H243       -0.1985  -18.4703  -54.9354 H         1 UNK         0.3800 
    244 H244       -2.5281  -17.3749  -54.3283 H         1 UNK         0.0800 
    245 H245       -2.7695  -17.1292  -52.6282 H         1 UNK         0.0800 
    246 H246       -1.0462  -17.0969  -50.8818 H         1 UNK         0.0800 
    247 H247       -0.7658  -15.4063  -51.2238 H         1 UNK         0.0800 
@<TRIPOS>BOND
     1    1    2 1    
     2    1  127 1    
     3    1  128 1    
     4    1  129 1    
     5    2    3 2    
     6    2    4 am   BACKBONE|DICT|INTERRES
     7    4    5 1    
     8    4  130 1    
     9    5    6 1    
    10    5   65 1    
    11    5  131 1    
    12    6    7 1    
    13    6  132 1    
    14    6  133 1    
    15    7    8 1    
    16    8    9 1    
    17    8  134 1    
    18    8  135 1    
    19    9   10 ar   
    20    9   14 ar   
    21   10   11 ar   
    22   10  136 1    
    23   11   12 ar   
    24   11  126 1    
    25   12   13 ar   
    26   12  137 1    
    27   13   14 ar   
    28   13   15 1    
    29   14  138 1    
    30   15   16 1    
    31   15  139 1    
    32   15  140 1    
    33   16   17 1    
    34   17   18 1    
    35   17  141 1    
    36   17  142 1    
    37   18   19 1    
    38   18   67 1    
    39   18  143 1    
    40   19   20 am   BACKBONE|DICT|INTERRES
    41   19  144 1    
    42   20   21 2    
    43   20   22 1    
    44   22   23 1    
    45   22   24 1    
    46   22  145 1    
    47   23  146 1    
    48   23  147 1    
    49   23  148 1    
    50   24   25 am   BACKBONE|DICT|INTERRES
    51   24  149 1    
    52   25   26 2    
    53   25   27 1    
    54   27   28 1    
    55   27   29 1    
    56   27  150 1    
    57   28  151 1    
    58   28  152 1    
    59   28  153 1    
    60   29   30 am   BACKBONE|DICT|INTERRES
    61   29  154 1    
    62   30   31 2    
    63   30   32 1    
    64   32   33 1    
    65   32   34 1    
    66   32  155 1    
    67   33  156 1    
    68   33  157 1    
    69   33  158 1    
    70   34   35 am   BACKBONE|DICT|INTERRES
    71   34  159 1    
    72   35   36 2    
    73   35   37 1    
    74   37   38 1    
    75   37   39 1    
    76   37  160 1    
    77   38  161 1    
    78   38  162 1    
    79   38  163 1    
    80   39   40 am   BACKBONE|DICT|INTERRES
    81   39  164 1    
    82   40   41 2    
    83   40   42 1    
    84   42   43 1    
    85   42   44 1    
    86   42  165 1    
    87   43  166 1    
    88   43  167 1    
    89   43  168 1    
    90   44   45 am   BACKBONE|DICT|INTERRES
    91   44  169 1    
    92   45   46 2    
    93   45   47 1    
    94   47   48 1    
    95   47   49 1    
    96   47  170 1    
    97   48  171 1    
    98   48  172 1    
    99   48  173 1    
   100   49   50 am   BACKBONE|DICT|INTERRES
   101   49  174 1    
   102   50   51 2    
   103   50   52 1    
   104   52   53 1    
   105   52   54 1    
   106   52  175 1    
   107   53  176 1    
   108   53  177 1    
   109   53  178 1    
   110   54   55 am   BACKBONE|DICT|INTERRES
   111   54  179 1    
   112   55   56 2    
   113   55   57 1    
   114   57   58 1    
   115   57   59 1    
   116   57  180 1    
   117   58  181 1    
   118   58  182 1    
   119   58  183 1    
   120   59   60 am   BACKBONE|DICT|INTERRES
   121   59  184 1    
   122   60   61 2    
   123   60   62 1    
   124   62   63 1    
   125   62   64 1    
   126   62  185 1    
   127   63  186 1    
   128   63  187 1    
   129   63  188 1    
   130   64   65 am   BACKBONE|DICT|INTERRES
   131   64  189 1    
   132   65   66 2    
   133   67   68 2    
   134   67   69 am   BACKBONE|DICT|INTERRES
   135   69   70 1    
   136   69  190 1    
   137   70   71 1    
   138   70   72 1    
   139   70  191 1    
   140   71  192 1    
   141   71  193 1    
   142   71  194 1    
   143   72   73 2    
   144   72   74 am   BACKBONE|DICT|INTERRES
   145   74   75 1    
   146   74  195 1    
   147   75   76 1    
   148   75   77 1    
   149   75  196 1    
   150   76  197 1    
   151   76  198 1    
   152   76  199 1    
   153   77   78 2    
   154   77   79 am   BACKBONE|DICT|INTERRES
   155   79   80 1    
   156   79  200 1    
   157   80   81 1    
   158   80   82 1    
   159   80  201 1    
   160   81  202 1    
   161   81  203 1    
   162   81  204 1    
   163   82   83 2    
   164   82   84 am   BACKBONE|DICT|INTERRES
   165   84   85 1    
   166   84  205 1    
   167   85   86 1    
   168   85   87 1    
   169   85  206 1    
   170   86  207 1    
   171   86  208 1    
   172   86  209 1    
   173   87   88 2    
   174   87   89 am   BACKBONE|DICT|INTERRES
   175   89   90 1    
   176   89  210 1    
   177   90   91 1    
   178   90   92 1    
   179   90  211 1    
   180   91  212 1    
   181   91  213 1    
   182   91  214 1    
   183   92   93 2    
   184   92   94 am   BACKBONE|DICT|INTERRES
   185   94   95 1    
   186   94  215 1    
   187   95   96 1    
   188   95   97 1    
   189   95  216 1    
   190   96  217 1    
   191   96  218 1    
   192   96  219 1    
   193   97   98 2    
   194   97   99 am   BACKBONE|DICT|INTERRES
   195   99  100 1    
   196   99  220 1    
   197  100  101 1    
   198  100  102 1    
   199  100  221 1    
   200  101  222 1    
   201  101  223 1    
   202  101  224 1    
   203  102  103 2    
   204  102  104 am   BACKBONE|DICT|INTERRES
   205  104  105 1    
   206  104  225 1    
   207  105  106 1    
   208  105  107 1    
   209  105  226 1    
   210  106  227 1    
   211  106  228 1    
   212  106  229 1    
   213  107  108 2    
   214  107  109 am   BACKBONE|DICT|INTERRES
   215  109  110 1    
   216  109  230 1    
   217  110  111 1    
   218  110  112 1    
   219  110  231 1    
   220  111  232 1    
   221  111  233 1    
   222  111  234 1    
   223  112  113 2    
   224  112  114 am   BACKBONE|DICT|INTERRES
   225  114  115 1    
   226  114  235 1    
   227  115  116 1    
   228  115  117 1    
   229  115  236 1    
   230  116  237 1    
   231  116  238 1    
   232  116  239 1    
   233  117  118 2    
   234  117  119 am   BACKBONE|DICT|INTERRES
   235  119  120 1    
   236  119  240 1    
   237  120  121 1    
   238  120  124 1    
   239  120  241 1    
   240  121  122 am   BACKBONE|DICT|INTERRES
   241  121  123 2    
   242  122  242 1    
   243  122  243 1    
   244  124  125 1    
   245  124  244 1    
   246  124  245 1    
   247  125  126 1    
   248  126  246 1    
   249  126  247 1    
@<TRIPOS>SUBSTRUCTURE
     1 UNK         1 GROUP             0       ****    0 ROOT    
