@<TRIPOS>MOLECULE
3R540
247   249    1
SMALL
USER_CHARGES


@<TRIPOS>ATOM
      1 CA          7.8539  -14.4303  -46.4249 C.3       0 UNK        -0.1800 
      2 C           6.3935  -14.8174  -46.2443 C.2       0 UNK         0.5000 
      3 O           5.6353  -14.0813  -45.6129 O.2       0 UNK        -0.5000 
      4 N           5.9855  -15.9613  -46.8105 N.am      1 UNK        -0.5000 
      5 CA          4.6207  -16.5002  -46.7236 C.3       1 UNK         0.1400 
      6 C6          4.5731  -18.0091  -47.0550 C.3       23 UNK        -0.0398 
      7 S7          5.0409  -18.4404  -48.7691 S.3       23 UNK        -0.2404 
      8 C8          3.8171  -19.7310  -49.1695 C.3       23 UNK        -0.0205 
      9 C9          2.5520  -19.1608  -49.7957 C.ar      23 UNK        -0.0193 
     10 C10         2.3264  -19.2899  -51.1680 C.ar      23 UNK        -0.1150 
     11 C11         1.1515  -18.8007  -51.7456 C.ar      23 UNK        -0.0193 
     12 C12         0.1947  -18.1770  -50.9382 C.ar      23 UNK        -0.1150 
     13 C13         0.4068  -18.0334  -49.5628 C.ar      23 UNK        -0.0193 
     14 C14         1.5924  -18.5253  -49.0058 C.ar      23 UNK        -0.1150 
     15 C15        -0.6308  -17.3006  -48.7123 C.3       23 UNK        -0.0205 
     16 S16        -0.7230  -17.8419  -46.9669 S.3       23 UNK        -0.2404 
     17 C17        -1.5452  -19.4592  -47.1132 C.3       23 UNK        -0.0398 
     18 CA         -0.5620  -20.6459  -47.2508 C.3       11 UNK         0.1400 
     19 N           0.4247  -20.7327  -46.1677 N.am      11 UNK        -0.5000 
     20 C           1.4696  -21.5743  -46.1720 C.2       10 UNK         0.5000 
     21 O           1.7571  -22.2966  -47.1249 O.2       10 UNK        -0.5000 
     22 CA          2.2950  -21.6822  -44.8799 C.3       10 UNK         0.1400 
     23 CB          3.4327  -20.6519  -44.8545 C.3       10 UNK        -0.1800 
     24 N           1.4533  -21.5302  -43.6947 N.am      10 UNK        -0.5000 
     25 C           0.6469  -22.4913  -43.2219 C.2       9 UNK         0.5000 
     26 O           0.5814  -23.6218  -43.7045 O.2       9 UNK        -0.5000 
     27 CA         -0.2635  -22.1210  -42.0346 C.3       9 UNK         0.1400 
     28 CB          0.4601  -22.3686  -40.7028 C.3       9 UNK        -0.1800 
     29 N          -0.7296  -20.7339  -42.0794 N.am      9 UNK        -0.5000 
     30 C          -1.5494  -20.2396  -43.0170 C.2       8 UNK         0.5000 
     31 O          -2.0396  -20.9191  -43.9185 O.2       8 UNK        -0.5000 
     32 CA         -1.8318  -18.7254  -42.9726 C.3       8 UNK         0.1400 
     33 CB         -3.0923  -18.4389  -42.1442 C.3       8 UNK        -0.1800 
     34 N          -0.7259  -17.9042  -42.4678 N.am      8 UNK        -0.5000 
     35 C           0.5152  -17.8725  -42.9777 C.2       7 UNK         0.5000 
     36 O           0.9115  -18.6586  -43.8389 O.2       7 UNK        -0.5000 
     37 CA          1.4598  -16.7825  -42.4375 C.3       7 UNK         0.1400 
     38 CB          2.5825  -16.4344  -43.4314 C.3       7 UNK        -0.1800 
     39 N           0.7093  -15.5674  -42.1267 N.am      7 UNK        -0.5000 
     40 C           0.8419  -14.8234  -41.0212 C.2       6 UNK         0.5000 
     41 O           1.6189  -15.1015  -40.1069 O.2       6 UNK        -0.5000 
     42 CA         -0.0241  -13.5493  -40.9035 C.3       6 UNK         0.1400 
     43 CB          0.8422  -12.2915  -41.0617 C.3       6 UNK        -0.1800 
     44 N          -1.1166  -13.4858  -41.8757 N.am      6 UNK        -0.5000 
     45 C          -2.2413  -14.2102  -41.8080 C.2       5 UNK         0.5000 
     46 O          -2.5043  -14.9736  -40.8785 O.2       5 UNK        -0.5000 
     47 CA         -3.2196  -14.0961  -42.9959 C.3       5 UNK         0.1400 
     48 CB         -4.3174  -13.0669  -42.6887 C.3       5 UNK        -0.1800 
     49 N          -2.5932  -13.7563  -44.2795 N.am      5 UNK        -0.5000 
     50 C          -1.6136  -14.4501  -44.8763 C.2       4 UNK         0.5000 
     51 O          -1.0774  -15.4315  -44.3688 O.2       4 UNK        -0.5000 
     52 CA         -1.1315  -13.9809  -46.2586 C.3       4 UNK         0.1400 
     53 CB         -2.0631  -12.9586  -46.9481 C.3       4 UNK        -0.1800 
     54 N           0.2464  -13.4885  -46.2125 N.am      4 UNK        -0.5000 
     55 C           0.7059  -12.4081  -45.5618 C.2       3 UNK         0.5000 
     56 O           0.0178  -11.7350  -44.7924 O.2       3 UNK        -0.5000 
     57 CA          2.1739  -11.9862  -45.8143 C.3       3 UNK         0.1400 
     58 CB          3.0045  -12.1087  -44.5279 C.3       3 UNK        -0.1800 
     59 N           2.8503  -12.7379  -46.8748 N.am      3 UNK        -0.5000 
     60 C           2.5415  -12.7280  -48.1809 C.2       2 UNK         0.5000 
     61 O           1.7065  -11.9677  -48.6714 O.2       2 UNK        -0.5000 
     62 CA          3.2511  -13.7575  -49.0919 C.3       2 UNK         0.1400 
     63 CB          4.1699  -13.0480  -50.0989 C.3       2 UNK        -0.1800 
     64 N           4.0382  -14.7652  -48.3748 N.am      2 UNK        -0.5000 
     65 C           3.5709  -15.6699  -47.5009 C.2       1 UNK         0.5000 
     66 O           2.3750  -15.8015  -47.2424 O.2       1 UNK        -0.5000 
     67 C          -1.3317  -21.9691  -47.4112 C.2       11 UNK         0.5000 
     68 O          -1.4287  -22.4732  -48.5273 O.2       11 UNK        -0.5000 
     69 N          -1.8031  -22.5357  -46.2907 N.am      12 UNK        -0.5000 
     70 CA         -2.4890  -23.8290  -46.2308 C.3       12 UNK         0.1400 
     71 CB         -2.9985  -24.0630  -44.8009 C.3       12 UNK        -0.1800 
     72 C          -1.6184  -25.0138  -46.6960 C.2       12 UNK         0.5000 
     73 O          -2.1502  -25.9767  -47.2498 O.2       12 UNK        -0.5000 
     74 N          -0.2997  -24.9222  -46.4740 N.am      13 UNK        -0.5000 
     75 CA          0.6855  -25.8768  -46.9787 C.3       13 UNK         0.1400 
     76 CB          1.9953  -25.7310  -46.1893 C.3       13 UNK        -0.1800 
     77 C           0.9323  -25.7143  -48.4910 C.2       13 UNK         0.5000 
     78 O           1.1056  -26.7184  -49.1829 O.2       13 UNK        -0.5000 
     79 N           0.9425  -24.4644  -48.9774 N.am      14 UNK        -0.5000 
     80 CA          1.1253  -24.1176  -50.3872 C.3       14 UNK         0.1400 
     81 CB          1.4105  -22.6142  -50.5242 C.3       14 UNK        -0.1800 
     82 C          -0.0654  -24.5391  -51.2677 C.2       14 UNK         0.5000 
     83 O           0.1546  -25.0812  -52.3522 O.2       14 UNK        -0.5000 
     84 N          -1.2947  -24.3205  -50.7845 N.am      15 UNK        -0.5000 
     85 CA         -2.5260  -24.7612  -51.4314 C.3       15 UNK         0.1400 
     86 CB         -2.9640  -23.7436  -52.4996 C.3       15 UNK        -0.1800 
     87 C          -3.6190  -24.9566  -50.3739 C.2       15 UNK         0.5000 
     88 O          -3.7607  -24.1276  -49.4761 O.2       15 UNK        -0.5000 
     89 N          -4.4114  -26.0256  -50.5197 N.am      16 UNK        -0.5000 
     90 CA         -5.4785  -26.4013  -49.5843 C.3       16 UNK         0.1400 
     91 CB         -5.9737  -27.8117  -49.9403 C.3       16 UNK        -0.1800 
     92 C          -6.6629  -25.4124  -49.5349 C.2       16 UNK         0.5000 
     93 O          -7.4137  -25.4203  -48.5587 O.2       16 UNK        -0.5000 
     94 N          -6.8080  -24.5869  -50.5783 N.am      17 UNK        -0.5000 
     95 CA         -7.8442  -23.5678  -50.7208 C.3       17 UNK         0.1400 
     96 CB         -8.8964  -24.0546  -51.7345 C.3       17 UNK        -0.1800 
     97 C          -7.2088  -22.2258  -51.1214 C.2       17 UNK         0.5000 
     98 O          -7.7175  -21.5478  -52.0153 O.2       17 UNK        -0.5000 
     99 N          -6.1001  -21.8561  -50.4616 N.am      18 UNK        -0.5000 
    100 CA        -5.2760  -20.6647  -50.7283 C.3       18 UNK         0.1400 
    101 CB        -4.0394  -20.6974  -49.8193 C.3       18 UNK        -0.1800 
    102 C         -5.9846  -19.2932  -50.6262 C.2       18 UNK         0.5000 
    103 O         -5.3813  -18.2756  -50.9665 O.2       18 UNK        -0.5000 
    104 N         -7.2472  -19.2737  -50.1800 N.am      19 UNK        -0.5000 
    105 CA        -8.1440  -18.1216  -50.2791 C.3       19 UNK         0.1400 
    106 CB        -9.3865  -18.3834  -49.4143 C.3       19 UNK        -0.1800 
    107 C         -8.5560  -17.8086  -51.7351 C.2       19 UNK         0.5000 
    108 O         -8.8630  -16.6540  -52.0348 O.2       19 UNK        -0.5000 
    109 N         -8.5550  -18.8303  -52.6033 N.am      20 UNK        -0.5000 
    110 CA        -8.8615  -18.7304  -54.0310 C.3       20 UNK         0.1400 
    111 CB       -10.1520  -19.5126  -54.3229 C.3       20 UNK        -0.1800 
    112 C         -7.7032  -19.2583  -54.8959 C.2       20 UNK         0.5000 
    113 O         -7.4164  -18.6759  -55.9430 O.2       20 UNK        -0.5000 
    114 N         -7.0589  -20.3459  -54.4530 N.am      21 UNK        -0.5000 
    115 CA        -5.8908  -20.9540  -55.0885 C.3       21 UNK         0.1400 
    116 CB        -5.7869  -22.4136  -54.6140 C.3       21 UNK        -0.1800 
    117 C         -4.5941  -20.1789  -54.7780 C.2       21 UNK         0.5000 
    118 O         -4.6005  -19.2429  -53.9772 O.2       21 UNK        -0.5000 
    119 N         -3.4929  -20.6028  -55.4100 N.am      22 UNK        -0.5000 
    120 CA        -2.1445  -20.0166  -55.2841 C.3       22 UNK         0.1400 
    121 C         -1.9638  -18.6406  -56.0022 C.2       22 UNK         0.5000 
    122 N         -2.9120  -18.1828  -56.8110 N.am      22 UNK        -0.7600 
    123 O         -0.9346  -17.9877  -55.8629 O.2       22 UNK        -0.5000 
    124 C124       -1.6112  -20.0298  -53.8157 C.3       23 UNK        -0.0398 
    125 S125        0.1512  -20.4961  -53.7060 S.3       23 UNK        -0.2404 
    126 C126        0.9426  -18.9210  -53.2470 C.3       23 UNK        -0.0205 
    127 H127        8.3993  -15.1690  -47.0128 H         1 UNK         0.0600 
    128 H128        8.3405  -14.3415  -45.4537 H         1 UNK         0.0600 
    129 H129        7.9267  -13.4689  -46.9333 H         1 UNK         0.0600 
    130 H130        6.6424  -16.5225  -47.3352 H         1 UNK         0.3000 
    131 H131        4.3306  -16.4133  -45.6755 H         1 UNK         0.0600 
    132 H132        5.2498  -18.5438  -46.3872 H         1 UNK         0.0800 
    133 H133        3.5845  -18.3998  -46.8240 H         1 UNK         0.0800 
    134 H134        4.2822  -20.4407  -49.8552 H         1 UNK         0.0800 
    135 H135        3.5637  -20.3064  -48.2780 H         1 UNK         0.0800 
    136 H136        3.0642  -19.7768  -51.7900 H         1 UNK         0.1150 
    137 H137       -0.7097  -17.7892  -51.3853 H         1 UNK         0.1150 
    138 H138        1.7623  -18.4172  -47.9473 H         1 UNK         0.1150 
    139 H139       -0.3733  -16.2413  -48.7255 H         1 UNK         0.0800 
    140 H140       -1.6213  -17.3831  -49.1623 H         1 UNK         0.0800 
    141 H141       -2.2214  -19.4243  -47.9670 H         1 UNK         0.0800 
    142 H142       -2.1798  -19.5867  -46.2358 H         1 UNK         0.0800 
    143 H143       -0.0062  -20.5091  -48.1785 H         1 UNK         0.0600 
    144 H144        0.2855  -20.1276  -45.3674 H         1 UNK         0.3000 
    145 H145        2.7492  -22.6752  -44.8584 H         1 UNK         0.0600 
    146 H146        4.0403  -20.7589  -43.9560 H         1 UNK         0.0600 
    147 H147        3.0565  -19.6305  -44.8830 H         1 UNK         0.0600 
    148 H148        4.0936  -20.7852  -45.7116 H         1 UNK         0.0600 
    149 H149        1.3821  -20.5938  -43.3142 H         1 UNK         0.3000 
    150 H150       -1.1391  -22.7725  -42.0738 H         1 UNK         0.0600 
    151 H151        0.8009  -23.4024  -40.6305 H         1 UNK         0.0600 
    152 H152       -0.2002  -22.1854  -39.8549 H         1 UNK         0.0600 
    153 H153        1.3347  -21.7261  -40.5936 H         1 UNK         0.0600 
    154 H154       -0.3658  -20.1037  -41.3800 H         1 UNK         0.3000 
    155 H155       -2.0213  -18.4036  -43.9985 H         1 UNK         0.0600 
    156 H156       -3.9405  -19.0211  -42.5070 H         1 UNK         0.0600 
    157 H157       -3.3731  -17.3878  -42.2044 H         1 UNK         0.0600 
    158 H158       -2.9472  -18.6879  -41.0924 H         1 UNK         0.0600 
    159 H159       -0.9634  -17.2181  -41.7659 H         1 UNK         0.3000 
    160 H160        1.9127  -17.1906  -41.5322 H         1 UNK         0.0600 
    161 H161        2.1744  -16.0738  -44.3770 H         1 UNK         0.0600 
    162 H162        3.2007  -17.3065  -43.6467 H         1 UNK         0.0600 
    163 H163        3.2397  -15.6613  -43.0333 H         1 UNK         0.0600 
    164 H164        0.0228  -15.3046  -42.8310 H         1 UNK         0.3000 
    165 H165       -0.4532  -13.5410  -39.8994 H         1 UNK         0.0600 
    166 H166        0.2574  -11.3857  -40.9003 H         1 UNK         0.0600 
    167 H167        1.6610  -12.2823  -40.3410 H         1 UNK         0.0600 
    168 H168        1.2788  -12.2358  -42.0577 H         1 UNK         0.0600 
    169 H169       -0.9716  -12.8981  -42.6861 H         1 UNK         0.3000 
    170 H170       -3.6926  -15.0724  -43.1171 H         1 UNK         0.0600 
    171 H171       -3.9087  -12.0599  -42.5956 H         1 UNK         0.0600 
    172 H172       -5.0757  -13.0516  -43.4718 H         1 UNK         0.0600 
    173 H173       -4.8249  -13.3033  -41.7524 H         1 UNK         0.0600 
    174 H174       -2.9535  -12.9404  -44.7525 H         1 UNK         0.3000 
    175 H175       -1.1134  -14.8712  -46.8857 H         1 UNK         0.0600 
    176 H176       -2.1277  -12.0164  -46.4032 H         1 UNK         0.0600 
    177 H177       -1.7081  -12.7307  -47.9534 H         1 UNK         0.0600 
    178 H178       -3.0741  -13.3552  -47.0489 H         1 UNK         0.0600 
    179 H179        0.9161  -14.0369  -46.7376 H         1 UNK         0.3000 
    180 H180        2.1592  -10.9362  -46.1128 H         1 UNK         0.0600 
    181 H181        4.0443  -11.8291  -44.6992 H         1 UNK         0.0600 
    182 H182        2.9915  -13.1265  -44.1351 H         1 UNK         0.0600 
    183 H183        2.6208  -11.4451  -43.7533 H         1 UNK         0.0600 
    184 H184        3.5747  -13.3738  -46.5676 H         1 UNK         0.3000 
    185 H185        2.4717  -14.2831  -49.6474 H         1 UNK         0.0600 
    186 H186        4.6115  -13.7577  -50.7988 H         1 UNK         0.0600 
    187 H187        3.6161  -12.3163  -50.6886 H         1 UNK         0.0600 
    188 H188        4.9816  -12.5192  -49.5977 H         1 UNK         0.0600 
    189 H189        5.0380  -14.7247  -48.5066 H         1 UNK         0.3000 
    190 H190       -1.7175  -22.0297  -45.4126 H         1 UNK         0.3000 
    191 H191       -3.3541  -23.7738  -46.8936 H         1 UNK         0.0600 
    192 H192       -3.6764  -23.2684  -44.4885 H         1 UNK         0.0600 
    193 H193       -2.1778  -24.1039  -44.0843 H         1 UNK         0.0600 
    194 H194       -3.5452  -25.0042  -44.7299 H         1 UNK         0.0600 
    195 H195        0.0533  -24.1237  -45.9642 H         1 UNK         0.3000 
    196 H196        0.3046  -26.8862  -46.8090 H         1 UNK         0.0600 
    197 H197        1.8304  -25.8746  -45.1212 H         1 UNK         0.0600 
    198 H198        2.4466  -24.7491  -46.3290 H         1 UNK         0.0600 
    199 H199        2.7262  -26.4746  -46.5092 H         1 UNK         0.0600 
    200 H200        0.8364  -23.6879  -48.3338 H         1 UNK         0.3000 
    201 H201        2.0063  -24.6539  -50.7459 H         1 UNK         0.0600 
    202 H202        2.2792  -22.3222  -49.9344 H         1 UNK         0.0600 
    203 H203        0.5672  -22.0052  -50.1994 H         1 UNK         0.0600 
    204 H204        1.6188  -22.3512  -51.5618 H         1 UNK         0.0600 
    205 H205       -1.4126  -23.8409  -49.8924 H         1 UNK         0.3000 
    206 H206       -2.3447  -25.7239  -51.9143 H         1 UNK         0.0600 
    207 H207       -3.1902  -22.7714  -52.0622 H         1 UNK         0.0600 
    208 H208       -2.1904  -23.5973  -53.2536 H         1 UNK         0.0600 
    209 H209       -3.8576  -24.0914  -53.0173 H         1 UNK         0.0600 
    210 H210       -4.2517  -26.6565  -51.2920 H         1 UNK         0.3000 
    211 H211       -5.0453  -26.4347  -48.5821 H         1 UNK         0.0600 
    212 H212       -6.3989  -27.8470  -50.9441 H         1 UNK         0.0600 
    213 H213       -6.7462  -28.1429  -49.2450 H         1 UNK         0.0600 
    214 H214       -5.1631  -28.5391  -49.8915 H         1 UNK         0.0600 
    215 H215       -6.1297  -24.6414  -51.3241 H         1 UNK         0.3000 
    216 H216       -8.3446  -23.3951  -49.7661 H         1 UNK         0.0600 
    217 H217       -9.7087  -23.3337  -51.8358 H         1 UNK         0.0600 
    218 H218       -9.3400  -24.9986  -51.4179 H         1 UNK         0.0600 
    219 H219       -8.4618  -24.2035  -52.7238 H         1 UNK         0.0600 
    220 H220       -5.7400  -22.4851  -49.7558 H         1 UNK         0.3000 
    221 H221       -4.9276  -20.7488  -51.7581 H         1 UNK         0.0600 
    222 H222       -4.3138  -20.6911  -48.7640 H         1 UNK         0.0600 
    223 H223       -3.4391  -21.5854  -50.0060 H         1 UNK         0.0600 
    224 H224       -3.3925  -19.8388  -50.0034 H         1 UNK         0.0600 
    225 H225       -7.6648  -20.1505  -49.9075 H         1 UNK         0.3000 
    226 H226       -7.6270  -17.2454  -49.8824 H         1 UNK         0.0600 
    227 H227       -9.1145  -18.5458  -48.3712 H         1 UNK         0.0600 
    228 H228      -10.0680  -17.5321  -49.4428 H         1 UNK         0.0600 
    229 H229       -9.9396  -19.2583  -49.7585 H         1 UNK         0.0600 
    230 H230       -8.2766  -19.7477  -52.2689 H         1 UNK         0.3000 
    231 H231       -9.0237  -17.6887  -54.3149 H         1 UNK         0.0600 
    232 H232      -10.4056  -19.4683  -55.3829 H         1 UNK         0.0600 
    233 H233      -10.9949  -19.0993  -53.7689 H         1 UNK         0.0600 
    234 H234      -10.0556  -20.5644  -54.0498 H         1 UNK         0.0600 
    235 H235       -7.3504  -20.7697  -53.5764 H         1 UNK         0.3000 
    236 H236       -6.0393  -20.9502  -56.1703 H         1 UNK         0.0600 
    237 H237       -5.5507  -22.4712  -53.5523 H         1 UNK         0.0600 
    238 H238       -6.7215  -22.9507  -54.7775 H         1 UNK         0.0600 
    239 H239       -5.0076  -22.9535  -55.1526 H         1 UNK         0.0600 
    240 H240       -3.5692  -21.3724  -56.0598 H         1 UNK         0.3000 
    241 H241       -1.5223  -20.6983  -55.8650 H         1 UNK         0.0600 
    242 H242       -3.7654  -18.6992  -56.9498 H         1 UNK         0.3800 
    243 H243       -2.7777  -17.3006  -57.2797 H         1 UNK         0.3800 
    244 H244       -2.1500  -20.7721  -53.2261 H         1 UNK         0.0800 
    245 H245       -1.7965  -19.0786  -53.3144 H         1 UNK         0.0800 
    246 H246        0.3614  -18.0747  -53.6135 H         1 UNK         0.0800 
    247 H247        1.9062  -18.8591  -53.7546 H         1 UNK         0.0800 
@<TRIPOS>BOND
     1    1    2 1    
     2    1  127 1    
     3    1  128 1    
     4    1  129 1    
     5    2    3 2    
     6    2    4 am   BACKBONE|DICT|INTERRES
     7    4    5 1    
     8    4  130 1    
     9    5    6 1    
    10    5   65 1    
    11    5  131 1    
    12    6    7 1    
    13    6  132 1    
    14    6  133 1    
    15    7    8 1    
    16    8    9 1    
    17    8  134 1    
    18    8  135 1    
    19    9   10 ar   
    20    9   14 ar   
    21   10   11 ar   
    22   10  136 1    
    23   11   12 ar   
    24   11  126 1    
    25   12   13 ar   
    26   12  137 1    
    27   13   14 ar   
    28   13   15 1    
    29   14  138 1    
    30   15   16 1    
    31   15  139 1    
    32   15  140 1    
    33   16   17 1    
    34   17   18 1    
    35   17  141 1    
    36   17  142 1    
    37   18   19 1    
    38   18   67 1    
    39   18  143 1    
    40   19   20 am   BACKBONE|DICT|INTERRES
    41   19  144 1    
    42   20   21 2    
    43   20   22 1    
    44   22   23 1    
    45   22   24 1    
    46   22  145 1    
    47   23  146 1    
    48   23  147 1    
    49   23  148 1    
    50   24   25 am   BACKBONE|DICT|INTERRES
    51   24  149 1    
    52   25   26 2    
    53   25   27 1    
    54   27   28 1    
    55   27   29 1    
    56   27  150 1    
    57   28  151 1    
    58   28  152 1    
    59   28  153 1    
    60   29   30 am   BACKBONE|DICT|INTERRES
    61   29  154 1    
    62   30   31 2    
    63   30   32 1    
    64   32   33 1    
    65   32   34 1    
    66   32  155 1    
    67   33  156 1    
    68   33  157 1    
    69   33  158 1    
    70   34   35 am   BACKBONE|DICT|INTERRES
    71   34  159 1    
    72   35   36 2    
    73   35   37 1    
    74   37   38 1    
    75   37   39 1    
    76   37  160 1    
    77   38  161 1    
    78   38  162 1    
    79   38  163 1    
    80   39   40 am   BACKBONE|DICT|INTERRES
    81   39  164 1    
    82   40   41 2    
    83   40   42 1    
    84   42   43 1    
    85   42   44 1    
    86   42  165 1    
    87   43  166 1    
    88   43  167 1    
    89   43  168 1    
    90   44   45 am   BACKBONE|DICT|INTERRES
    91   44  169 1    
    92   45   46 2    
    93   45   47 1    
    94   47   48 1    
    95   47   49 1    
    96   47  170 1    
    97   48  171 1    
    98   48  172 1    
    99   48  173 1    
   100   49   50 am   BACKBONE|DICT|INTERRES
   101   49  174 1    
   102   50   51 2    
   103   50   52 1    
   104   52   53 1    
   105   52   54 1    
   106   52  175 1    
   107   53  176 1    
   108   53  177 1    
   109   53  178 1    
   110   54   55 am   BACKBONE|DICT|INTERRES
   111   54  179 1    
   112   55   56 2    
   113   55   57 1    
   114   57   58 1    
   115   57   59 1    
   116   57  180 1    
   117   58  181 1    
   118   58  182 1    
   119   58  183 1    
   120   59   60 am   BACKBONE|DICT|INTERRES
   121   59  184 1    
   122   60   61 2    
   123   60   62 1    
   124   62   63 1    
   125   62   64 1    
   126   62  185 1    
   127   63  186 1    
   128   63  187 1    
   129   63  188 1    
   130   64   65 am   BACKBONE|DICT|INTERRES
   131   64  189 1    
   132   65   66 2    
   133   67   68 2    
   134   67   69 am   BACKBONE|DICT|INTERRES
   135   69   70 1    
   136   69  190 1    
   137   70   71 1    
   138   70   72 1    
   139   70  191 1    
   140   71  192 1    
   141   71  193 1    
   142   71  194 1    
   143   72   73 2    
   144   72   74 am   BACKBONE|DICT|INTERRES
   145   74   75 1    
   146   74  195 1    
   147   75   76 1    
   148   75   77 1    
   149   75  196 1    
   150   76  197 1    
   151   76  198 1    
   152   76  199 1    
   153   77   78 2    
   154   77   79 am   BACKBONE|DICT|INTERRES
   155   79   80 1    
   156   79  200 1    
   157   80   81 1    
   158   80   82 1    
   159   80  201 1    
   160   81  202 1    
   161   81  203 1    
   162   81  204 1    
   163   82   83 2    
   164   82   84 am   BACKBONE|DICT|INTERRES
   165   84   85 1    
   166   84  205 1    
   167   85   86 1    
   168   85   87 1    
   169   85  206 1    
   170   86  207 1    
   171   86  208 1    
   172   86  209 1    
   173   87   88 2    
   174   87   89 am   BACKBONE|DICT|INTERRES
   175   89   90 1    
   176   89  210 1    
   177   90   91 1    
   178   90   92 1    
   179   90  211 1    
   180   91  212 1    
   181   91  213 1    
   182   91  214 1    
   183   92   93 2    
   184   92   94 am   BACKBONE|DICT|INTERRES
   185   94   95 1    
   186   94  215 1    
   187   95   96 1    
   188   95   97 1    
   189   95  216 1    
   190   96  217 1    
   191   96  218 1    
   192   96  219 1    
   193   97   98 2    
   194   97   99 am   BACKBONE|DICT|INTERRES
   195   99  100 1    
   196   99  220 1    
   197  100  101 1    
   198  100  102 1    
   199  100  221 1    
   200  101  222 1    
   201  101  223 1    
   202  101  224 1    
   203  102  103 2    
   204  102  104 am   BACKBONE|DICT|INTERRES
   205  104  105 1    
   206  104  225 1    
   207  105  106 1    
   208  105  107 1    
   209  105  226 1    
   210  106  227 1    
   211  106  228 1    
   212  106  229 1    
   213  107  108 2    
   214  107  109 am   BACKBONE|DICT|INTERRES
   215  109  110 1    
   216  109  230 1    
   217  110  111 1    
   218  110  112 1    
   219  110  231 1    
   220  111  232 1    
   221  111  233 1    
   222  111  234 1    
   223  112  113 2    
   224  112  114 am   BACKBONE|DICT|INTERRES
   225  114  115 1    
   226  114  235 1    
   227  115  116 1    
   228  115  117 1    
   229  115  236 1    
   230  116  237 1    
   231  116  238 1    
   232  116  239 1    
   233  117  118 2    
   234  117  119 am   BACKBONE|DICT|INTERRES
   235  119  120 1    
   236  119  240 1    
   237  120  121 1    
   238  120  124 1    
   239  120  241 1    
   240  121  122 am   BACKBONE|DICT|INTERRES
   241  121  123 2    
   242  122  242 1    
   243  122  243 1    
   244  124  125 1    
   245  124  244 1    
   246  124  245 1    
   247  125  126 1    
   248  126  246 1    
   249  126  247 1    
@<TRIPOS>SUBSTRUCTURE
     1 UNK         1 GROUP             0       ****    0 ROOT    
