@<TRIPOS>MOLECULE
3R540
247   249    1
SMALL
USER_CHARGES


@<TRIPOS>ATOM
      1 CA         -1.6513   -9.2112  -47.2319 C.3       0 UNK        -0.1800 
      2 C          -0.8961  -10.4318  -46.7280 C.2       0 UNK         0.5000 
      3 O           0.1401  -10.2892  -46.0753 O.2       0 UNK        -0.5000 
      4 N          -1.4182  -11.6351  -47.0010 N.am      1 UNK        -0.5000 
      5 CA         -0.8237  -12.9397  -46.6652 C.3       1 UNK         0.1400 
      6 C6         -1.3472  -14.0776  -47.5772 C.3       23 UNK        -0.0398 
      7 S7         -1.0943  -13.7346  -49.3542 S.3       23 UNK        -0.2404 
      8 C8         -2.8017  -13.7562  -49.9891 C.3       23 UNK        -0.0205 
      9 C9         -3.3404  -15.1756  -50.0811 C.ar      23 UNK        -0.0193 
     10 C10        -3.0810  -15.9526  -51.2120 C.ar      23 UNK        -0.1150 
     11 C11        -3.5511  -17.2661  -51.2968 C.ar      23 UNK        -0.0193 
     12 C12        -4.2727  -17.8079  -50.2272 C.ar      23 UNK        -0.1150 
     13 C13        -4.5517  -17.0365  -49.0927 C.ar      23 UNK        -0.0193 
     14 C14        -4.0997  -15.7139  -49.0400 C.ar      23 UNK        -0.1150 
     15 C15        -5.3840  -17.6272  -47.9575 C.3       23 UNK        -0.0205 
     16 S16        -4.8427  -17.1336  -46.2796 S.3       23 UNK        -0.2404 
     17 C17        -3.1265  -17.7612  -46.1690 C.3       23 UNK        -0.0398 
     18 CA         -2.9212  -19.2574  -46.5127 C.3       11 UNK         0.1400 
     19 N          -1.5114  -19.6394  -46.4195 N.am      11 UNK        -0.5000 
     20 C          -1.0045  -20.7907  -46.8806 C.2       10 UNK         0.5000 
     21 O          -1.6672  -21.6410  -47.4724 O.2       10 UNK        -0.5000 
     22 CA          0.4798  -21.0665  -46.5900 C.3       10 UNK         0.1400 
     23 CB          1.3792  -20.3107  -47.5786 C.3       10 UNK        -0.1800 
     24 N           0.8517  -20.7353  -45.2141 N.am      10 UNK        -0.5000 
     25 C           0.3335  -21.3311  -44.1297 C.2       9 UNK         0.5000 
     26 O          -0.4811  -22.2523  -44.1803 O.2       9 UNK        -0.5000 
     27 CA          0.7592  -20.7798  -42.7584 C.3       9 UNK         0.1400 
     28 CB          2.1414  -21.3182  -42.3608 C.3       9 UNK        -0.1800 
     29 N           0.7646  -19.3175  -42.7117 N.am      9 UNK        -0.5000 
     30 C          -0.3171  -18.5421  -42.8768 C.2       8 UNK         0.5000 
     31 O          -1.4524  -18.9793  -43.0620 O.2       8 UNK        -0.5000 
     32 CA         -0.0829  -17.0214  -42.8930 C.3       8 UNK         0.1400 
     33 CB          0.1405  -16.4826  -41.4716 C.3       8 UNK        -0.1800 
     34 N           1.0426  -16.6458  -43.7479 N.am      8 UNK        -0.5000 
     35 C           1.1021  -16.8719  -45.0688 C.2       7 UNK         0.5000 
     36 O           0.1944  -17.3839  -45.7249 O.2       7 UNK        -0.5000 
     37 CA          2.4289  -16.5214  -45.7618 C.3       7 UNK         0.1400 
     38 CB          2.5070  -15.0211  -46.0829 C.3       7 UNK        -0.1800 
     39 N           3.5823  -16.9184  -44.9535 N.am      7 UNK        -0.5000 
     40 C           3.9343  -18.1912  -44.7188 C.2       6 UNK         0.5000 
     41 O           3.3415  -19.1629  -45.1861 O.2       6 UNK        -0.5000 
     42 CA          5.1218  -18.4148  -43.7657 C.3       6 UNK         0.1400 
     43 CB          6.4547  -18.2634  -44.5136 C.3       6 UNK        -0.1800 
     44 N           5.0993  -17.5027  -42.6219 N.am      6 UNK        -0.5000 
     45 C           4.1609  -17.5117  -41.6645 C.2       5 UNK         0.5000 
     46 O           3.2356  -18.3206  -41.6221 O.2       5 UNK        -0.5000 
     47 CA          4.2431  -16.3999  -40.6036 C.3       5 UNK         0.1400 
     48 CB          5.1342  -16.8367  -39.4317 C.3       5 UNK        -0.1800 
     49 N           4.7330  -15.1277  -41.1408 N.am      5 UNK        -0.5000 
     50 C           4.0995  -14.4026  -42.0709 C.2       4 UNK         0.5000 
     51 O           3.0372  -14.7393  -42.6034 O.2       4 UNK        -0.5000 
     52 CA          4.7924  -13.1096  -42.5134 C.3       4 UNK         0.1400 
     53 CB          5.6670  -13.3631  -43.7517 C.3       4 UNK        -0.1800 
     54 N           3.7632  -12.1336  -42.8426 N.am      4 UNK        -0.5000 
     55 C           3.7372  -10.8581  -42.4412 C.2       3 UNK         0.5000 
     56 O           4.6501  -10.3198  -41.8132 O.2       3 UNK        -0.5000 
     57 CA          2.4791  -10.0386  -42.7945 C.3       3 UNK         0.1400 
     58 CB          2.7732   -9.0781  -43.9575 C.3       3 UNK        -0.1800 
     59 N           1.3209  -10.8622  -43.1517 N.am      3 UNK        -0.5000 
     60 C           0.6020  -11.6005  -42.2884 C.2       2 UNK         0.5000 
     61 O           0.8460  -11.6540  -41.0827 O.2       2 UNK        -0.5000 
     62 CA         -0.5761  -12.4191  -42.8522 C.3       2 UNK         0.1400 
     63 CB         -1.9174  -11.9707  -42.2481 C.3       2 UNK        -0.1800 
     64 N          -0.6426  -12.3190  -44.3065 N.am      2 UNK        -0.5000 
     65 C          -0.9627  -13.2896  -45.1629 C.2       1 UNK         0.5000 
     66 O          -1.3512  -14.4028  -44.8116 O.2       1 UNK        -0.5000 
     67 C          -3.8224  -20.2030  -45.6867 C.2       11 UNK         0.5000 
     68 O          -4.8377  -20.6661  -46.2065 O.2       11 UNK        -0.5000 
     69 N          -3.4166  -20.5281  -44.4498 N.am      12 UNK        -0.5000 
     70 CA         -4.1178  -21.4629  -43.5624 C.3       12 UNK         0.1400 
     71 CB         -3.4470  -21.4648  -42.1808 C.3       12 UNK        -0.1800 
     72 C          -4.2053  -22.8949  -44.1272 C.2       12 UNK         0.5000 
     73 O          -5.2349  -23.5509  -43.9664 O.2       12 UNK        -0.5000 
     74 N          -3.1431  -23.3351  -44.8137 N.am      13 UNK        -0.5000 
     75 CA         -3.0789  -24.6017  -45.5455 C.3       13 UNK         0.1400 
     76 CB         -1.6008  -24.9849  -45.7266 C.3       13 UNK        -0.1800 
     77 C          -3.7851  -24.5573  -46.9170 C.2       13 UNK         0.5000 
     78 O          -3.8473  -25.5887  -47.5891 O.2       13 UNK        -0.5000 
     79 N          -4.2489  -23.3715  -47.3421 N.am      14 UNK        -0.5000 
     80 CA         -4.8287  -23.0580  -48.6521 C.3       14 UNK         0.1400 
     81 CB         -6.2207  -23.7075  -48.7940 C.3       14 UNK        -0.1800 
     82 C          -3.8761  -23.4134  -49.8118 C.2       14 UNK         0.5000 
     83 O          -4.3125  -23.9719  -50.8174 O.2       14 UNK        -0.5000 
     84 N          -2.5783  -23.1382  -49.6170 N.am      15 UNK        -0.5000 
     85 CA         -1.4504  -23.4941  -50.4837 C.3       15 UNK         0.1400 
     86 CB         -1.4925  -22.6692  -51.7825 C.3       15 UNK        -0.1800 
     87 C          -1.3390  -25.0147  -50.7342 C.2       15 UNK         0.5000 
     88 O          -1.0072  -25.4340  -51.8429 O.2       15 UNK        -0.5000 
     89 N          -1.6421  -25.8039  -49.6915 N.am      16 UNK        -0.5000 
     90 CA         -1.7932  -27.2630  -49.6916 C.3       16 UNK         0.1400 
     91 CB         -0.4683  -27.9723  -50.0436 C.3       16 UNK        -0.1800 
     92 C          -2.9875  -27.7063  -50.5626 C.2       16 UNK         0.5000 
     93 O          -2.8558  -28.6115  -51.3884 O.2       16 UNK        -0.5000 
     94 N          -4.1305  -27.0365  -50.3487 N.am      17 UNK        -0.5000 
     95 CA         -5.4061  -27.1873  -51.0578 C.3       17 UNK         0.1400 
     96 CB         -6.0526  -28.5483  -50.7265 C.3       17 UNK        -0.1800 
     97 C          -5.2849  -26.9217  -52.5749 C.2       17 UNK         0.5000 
     98 O          -5.7443  -27.7264  -53.3883 O.2       17 UNK        -0.5000 
     99 N          -4.6603  -25.7917  -52.9249 N.am      18 UNK        -0.5000 
    100 CA        -4.3948  -25.3620  -54.2977 C.3       18 UNK         0.1400 
    101 CB        -3.0979  -26.0149  -54.8130 C.3       18 UNK        -0.1800 
    102 C         -4.3673  -23.8266  -54.4047 C.2       18 UNK         0.5000 
    103 O         -3.6232  -23.2812  -55.2215 O.2       18 UNK        -0.5000 
    104 N         -5.1783  -23.1408  -53.5853 N.am      19 UNK        -0.5000 
    105 CA        -5.2202  -21.6792  -53.4422 C.3       19 UNK         0.1400 
    106 CB        -6.1942  -21.3084  -52.3132 C.3       19 UNK        -0.1800 
    107 C         -5.5702  -20.9013  -54.7272 C.2       19 UNK         0.5000 
    108 O         -5.2286  -19.7233  -54.8264 O.2       19 UNK        -0.5000 
    109 N         -6.2159  -21.5694  -55.6936 N.am      20 UNK        -0.5000 
    110 CA        -6.4896  -21.0409  -57.0318 C.3       20 UNK         0.1400 
    111 CB        -7.4317  -22.0039  -57.7700 C.3       20 UNK        -0.1800 
    112 C         -5.2084  -20.7970  -57.8562 C.2       20 UNK         0.5000 
    113 O         -5.1739  -19.8603  -58.6552 O.2       20 UNK        -0.5000 
    114 N         -4.1808  -21.6281  -57.6343 N.am      21 UNK        -0.5000 
    115 CA        -2.8380  -21.4572  -58.1875 C.3       21 UNK         0.1400 
    116 CB        -2.2490  -22.8372  -58.5214 C.3       21 UNK        -0.1800 
    117 C         -1.9343  -20.7090  -57.1925 C.2       21 UNK         0.5000 
    118 O         -1.1578  -19.8467  -57.6040 O.2       21 UNK        -0.5000 
    119 N         -2.0677  -21.0466  -55.9025 N.am      22 UNK        -0.5000 
    120 CA        -1.3108  -20.4950  -54.7683 C.3       22 UNK         0.1400 
    121 C          0.1918  -20.9188  -54.7298 C.2       22 UNK         0.5000 
    122 N          0.5861  -21.9926  -55.4041 N.am      22 UNK        -0.7600 
    123 O          1.0130  -20.2893  -54.0693 O.2       22 UNK        -0.5000 
    124 C124       -1.5441  -18.9694  -54.5755 C.3       23 UNK        -0.0398 
    125 S125       -1.5565  -18.4632  -52.8174 S.3       23 UNK        -0.2404 
    126 C126       -3.3163  -18.0710  -52.5668 C.3       23 UNK        -0.0205 
    127 H127       -1.9498   -8.5825  -46.3930 H         1 UNK         0.0600 
    128 H128       -2.5481   -9.4895  -47.7859 H         1 UNK         0.0600 
    129 H129       -1.0131   -8.6225  -47.8907 H         1 UNK         0.0600 
    130 H130       -2.2846  -11.6808  -47.5170 H         1 UNK         0.3000 
    131 H131        0.2491  -12.8574  -46.8498 H         1 UNK         0.0600 
    132 H132       -0.8367  -15.0160  -47.3518 H         1 UNK         0.0800 
    133 H133       -2.4023  -14.2540  -47.3734 H         1 UNK         0.0800 
    134 H134       -3.4429  -13.1380  -49.3590 H         1 UNK         0.0800 
    135 H135       -2.8145  -13.2959  -50.9782 H         1 UNK         0.0800 
    136 H136       -2.5110  -15.5350  -52.0304 H         1 UNK         0.1150 
    137 H137       -4.6394  -18.8230  -50.2894 H         1 UNK         0.1150 
    138 H138       -4.3342  -15.1037  -48.1802 H         1 UNK         0.1150 
    139 H139       -6.4150  -17.2977  -48.0906 H         1 UNK         0.0800 
    140 H140       -5.4094  -18.7153  -48.0225 H         1 UNK         0.0800 
    141 H141       -2.7662  -17.5585  -45.1590 H         1 UNK         0.0800 
    142 H142       -2.5068  -17.1497  -46.8266 H         1 UNK         0.0800 
    143 H143       -3.1985  -19.3915  -47.5599 H         1 UNK         0.0600 
    144 H144       -0.8869  -18.9698  -45.9775 H         1 UNK         0.3000 
    145 H145        0.6493  -22.1361  -46.7301 H         1 UNK         0.0600 
    146 H146        2.4273  -20.5749  -47.4379 H         1 UNK         0.0600 
    147 H147        1.1181  -20.5542  -48.6094 H         1 UNK         0.0600 
    148 H148        1.2883  -19.2306  -47.4630 H         1 UNK         0.0600 
    149 H149        1.5559  -20.0135  -45.0937 H         1 UNK         0.3000 
    150 H150        0.0348  -21.1311  -42.0211 H         1 UNK         0.0600 
    151 H151        2.1579  -22.4086  -42.3832 H         1 UNK         0.0600 
    152 H152        2.4076  -21.0099  -41.3497 H         1 UNK         0.0600 
    153 H153        2.9215  -20.9627  -43.0346 H         1 UNK         0.0600 
    154 H154        1.6598  -18.8762  -42.5174 H         1 UNK         0.3000 
    155 H155       -0.9803  -16.5509  -43.2982 H         1 UNK         0.0600 
    156 H156       -0.7344  -16.6651  -40.8467 H         1 UNK         0.0600 
    157 H157        0.3205  -15.4082  -41.4760 H         1 UNK         0.0600 
    158 H158        0.9924  -16.9583  -40.9869 H         1 UNK         0.0600 
    159 H159        1.8243  -16.1808  -43.2982 H         1 UNK         0.3000 
    160 H160        2.4717  -17.0709  -46.7046 H         1 UNK         0.0600 
    161 H161        1.7176  -14.7397  -46.7794 H         1 UNK         0.0600 
    162 H162        2.3959  -14.4041  -45.1910 H         1 UNK         0.0600 
    163 H163        3.4568  -14.7658  -46.5530 H         1 UNK         0.0600 
    164 H164        4.0882  -16.1806  -44.4878 H         1 UNK         0.3000 
    165 H165        5.0567  -19.4368  -43.3862 H         1 UNK         0.0600 
    166 H166        7.2992  -18.4962  -43.8647 H         1 UNK         0.0600 
    167 H167        6.5033  -18.9438  -45.3649 H         1 UNK         0.0600 
    168 H168        6.5926  -17.2505  -44.8943 H         1 UNK         0.0600 
    169 H169        5.8273  -16.8055  -42.5763 H         1 UNK         0.3000 
    170 H170        3.2341  -16.2340  -40.2208 H         1 UNK         0.0600 
    171 H171        4.7786  -17.7732  -38.9995 H         1 UNK         0.0600 
    172 H172        6.1673  -16.9913  -39.7455 H         1 UNK         0.0600 
    173 H173        5.1322  -16.0920  -38.6355 H         1 UNK         0.0600 
    174 H174        5.6044  -14.7864  -40.7608 H         1 UNK         0.3000 
    175 H175        5.4175  -12.7488  -41.6938 H         1 UNK         0.0600 
    176 H176        5.0795  -13.7343  -44.5923 H         1 UNK         0.0600 
    177 H177        6.1652  -12.4481  -44.0726 H         1 UNK         0.0600 
    178 H178        6.4440  -14.0988  -43.5407 H         1 UNK         0.0600 
    179 H179        2.9428  -12.5181  -43.2902 H         1 UNK         0.3000 
    180 H180        2.2192   -9.4435  -41.9166 H         1 UNK         0.0600 
    181 H181        1.9128   -8.4441  -44.1728 H         1 UNK         0.0600 
    182 H182        3.0268   -9.6187  -44.8704 H         1 UNK         0.0600 
    183 H183        3.6102   -8.4198  -43.7212 H         1 UNK         0.0600 
    184 H184        1.0722  -10.8542  -44.1312 H         1 UNK         0.3000 
    185 H185       -0.3943  -13.4579  -42.5721 H         1 UNK         0.0600 
    186 H186       -2.1440  -10.9346  -42.5021 H         1 UNK         0.0600 
    187 H187       -2.7378  -12.5917  -42.6083 H         1 UNK         0.0600 
    188 H188       -1.9050  -12.0496  -41.1603 H         1 UNK         0.0600 
    189 H189       -0.3843  -11.4266  -44.7169 H         1 UNK         0.3000 
    190 H190       -2.5862  -20.0804  -44.0680 H         1 UNK         0.3000 
    191 H191       -5.1390  -21.0958  -43.4416 H         1 UNK         0.0600 
    192 H192       -2.4089  -21.7923  -42.2383 H         1 UNK         0.0600 
    193 H193       -3.4600  -20.4701  -41.7349 H         1 UNK         0.0600 
    194 H194       -3.9659  -22.1353  -41.4947 H         1 UNK         0.0600 
    195 H195       -2.3069  -22.7587  -44.8358 H         1 UNK         0.3000 
    196 H196       -3.5647  -25.3789  -44.9523 H         1 UNK         0.0600 
    197 H197       -1.0941  -25.0628  -44.7645 H         1 UNK         0.0600 
    198 H198       -1.0659  -24.2468  -46.3257 H         1 UNK         0.0600 
    199 H199       -1.4996  -25.9504  -46.2240 H         1 UNK         0.0600 
    200 H200       -4.1476  -22.5755  -46.7235 H         1 UNK         0.3000 
    201 H201       -4.9595  -21.9757  -48.6860 H         1 UNK         0.0600 
    202 H202       -6.7003  -23.4147  -49.7284 H         1 UNK         0.0600 
    203 H203       -6.8797  -23.3991  -47.9825 H         1 UNK         0.0600 
    204 H204       -6.1643  -24.7960  -48.7820 H         1 UNK         0.0600 
    205 H205       -2.3210  -22.6545  -48.7559 H         1 UNK         0.3000 
    206 H206       -0.5482  -23.2084  -49.9411 H         1 UNK         0.0600 
    207 H207       -1.5605  -21.6029  -51.5663 H         1 UNK         0.0600 
    208 H208       -2.3429  -22.9431  -52.4057 H         1 UNK         0.0600 
    209 H209       -0.5896  -22.8252  -52.3736 H         1 UNK         0.0600 
    210 H210       -1.9579  -25.3493  -48.8457 H         1 UNK         0.3000 
    211 H211       -2.0457  -27.5416  -48.6674 H         1 UNK         0.0600 
    212 H212        0.3451  -27.6270  -49.4056 H         1 UNK         0.0600 
    213 H213       -0.5572  -29.0499  -49.9017 H         1 UNK         0.0600 
    214 H214       -0.1762  -27.8059  -51.0806 H         1 UNK         0.0600 
    215 H215       -4.1151  -26.3154  -49.6365 H         1 UNK         0.3000 
    216 H216       -6.0648  -26.4102  -50.6684 H         1 UNK         0.0600 
    217 H217       -7.0507  -28.6221  -51.1598 H         1 UNK         0.0600 
    218 H218       -5.4659  -29.3820  -51.1134 H         1 UNK         0.0600 
    219 H219       -6.1566  -28.6826  -49.6499 H         1 UNK         0.0600 
    220 H220       -4.3449  -25.1623  -52.1865 H         1 UNK         0.3000 
    221 H221       -5.2176  -25.6884  -54.9366 H         1 UNK         0.0600 
    222 H222       -2.2313  -25.6806  -54.2424 H         1 UNK         0.0600 
    223 H223       -3.1448  -27.1017  -54.7432 H         1 UNK         0.0600 
    224 H224       -2.9194  -25.7660  -55.8597 H         1 UNK         0.0600 
    225 H225       -5.7398  -23.6655  -52.9301 H         1 UNK         0.3000 
    226 H226       -4.2204  -21.3595  -53.1429 H         1 UNK         0.0600 
    227 H227       -5.8750  -21.7290  -51.3612 H         1 UNK         0.0600 
    228 H228       -6.2511  -20.2270  -52.1813 H         1 UNK         0.0600 
    229 H229       -7.2029  -21.6679  -52.5193 H         1 UNK         0.0600 
    230 H230       -6.4730  -22.5295  -55.5198 H         1 UNK         0.3000 
    231 H231       -6.9991  -20.0816  -56.9190 H         1 UNK         0.0600 
    232 H232       -7.6743  -21.6265  -58.7643 H         1 UNK         0.0600 
    233 H233       -8.3719  -22.1263  -57.2320 H         1 UNK         0.0600 
    234 H234       -6.9834  -22.9906  -57.8937 H         1 UNK         0.0600 
    235 H235       -4.2820  -22.3444  -56.9250 H         1 UNK         0.3000 
    236 H236       -2.8809  -20.8759  -59.1110 H         1 UNK         0.0600 
    237 H237       -1.2435  -22.7429  -58.9335 H         1 UNK         0.0600 
    238 H238       -2.1854  -23.4768  -57.6402 H         1 UNK         0.0600 
    239 H239       -2.8575  -23.3533  -59.2641 H         1 UNK         0.0600 
    240 H240       -2.6928  -21.8154  -55.6705 H         1 UNK         0.3000 
    241 H241       -1.7580  -20.9944  -53.9118 H         1 UNK         0.0600 
    242 H242        1.5550  -22.2681  -55.3736 H         1 UNK         0.3800 
    243 H243       -0.0726  -22.5324  -55.9414 H         1 UNK         0.3800 
    244 H244       -0.7891  -18.3892  -55.1086 H         1 UNK         0.0800 
    245 H245       -2.4962  -18.6793  -55.0216 H         1 UNK         0.0800 
    246 H246       -3.6925  -17.4955  -53.4138 H         1 UNK         0.0800 
    247 H247       -3.8866  -18.9995  -52.5458 H         1 UNK         0.0800 
@<TRIPOS>BOND
     1    1    2 1    
     2    1  127 1    
     3    1  128 1    
     4    1  129 1    
     5    2    3 2    
     6    2    4 am   BACKBONE|DICT|INTERRES
     7    4    5 1    
     8    4  130 1    
     9    5    6 1    
    10    5   65 1    
    11    5  131 1    
    12    6    7 1    
    13    6  132 1    
    14    6  133 1    
    15    7    8 1    
    16    8    9 1    
    17    8  134 1    
    18    8  135 1    
    19    9   10 ar   
    20    9   14 ar   
    21   10   11 ar   
    22   10  136 1    
    23   11   12 ar   
    24   11  126 1    
    25   12   13 ar   
    26   12  137 1    
    27   13   14 ar   
    28   13   15 1    
    29   14  138 1    
    30   15   16 1    
    31   15  139 1    
    32   15  140 1    
    33   16   17 1    
    34   17   18 1    
    35   17  141 1    
    36   17  142 1    
    37   18   19 1    
    38   18   67 1    
    39   18  143 1    
    40   19   20 am   BACKBONE|DICT|INTERRES
    41   19  144 1    
    42   20   21 2    
    43   20   22 1    
    44   22   23 1    
    45   22   24 1    
    46   22  145 1    
    47   23  146 1    
    48   23  147 1    
    49   23  148 1    
    50   24   25 am   BACKBONE|DICT|INTERRES
    51   24  149 1    
    52   25   26 2    
    53   25   27 1    
    54   27   28 1    
    55   27   29 1    
    56   27  150 1    
    57   28  151 1    
    58   28  152 1    
    59   28  153 1    
    60   29   30 am   BACKBONE|DICT|INTERRES
    61   29  154 1    
    62   30   31 2    
    63   30   32 1    
    64   32   33 1    
    65   32   34 1    
    66   32  155 1    
    67   33  156 1    
    68   33  157 1    
    69   33  158 1    
    70   34   35 am   BACKBONE|DICT|INTERRES
    71   34  159 1    
    72   35   36 2    
    73   35   37 1    
    74   37   38 1    
    75   37   39 1    
    76   37  160 1    
    77   38  161 1    
    78   38  162 1    
    79   38  163 1    
    80   39   40 am   BACKBONE|DICT|INTERRES
    81   39  164 1    
    82   40   41 2    
    83   40   42 1    
    84   42   43 1    
    85   42   44 1    
    86   42  165 1    
    87   43  166 1    
    88   43  167 1    
    89   43  168 1    
    90   44   45 am   BACKBONE|DICT|INTERRES
    91   44  169 1    
    92   45   46 2    
    93   45   47 1    
    94   47   48 1    
    95   47   49 1    
    96   47  170 1    
    97   48  171 1    
    98   48  172 1    
    99   48  173 1    
   100   49   50 am   BACKBONE|DICT|INTERRES
   101   49  174 1    
   102   50   51 2    
   103   50   52 1    
   104   52   53 1    
   105   52   54 1    
   106   52  175 1    
   107   53  176 1    
   108   53  177 1    
   109   53  178 1    
   110   54   55 am   BACKBONE|DICT|INTERRES
   111   54  179 1    
   112   55   56 2    
   113   55   57 1    
   114   57   58 1    
   115   57   59 1    
   116   57  180 1    
   117   58  181 1    
   118   58  182 1    
   119   58  183 1    
   120   59   60 am   BACKBONE|DICT|INTERRES
   121   59  184 1    
   122   60   61 2    
   123   60   62 1    
   124   62   63 1    
   125   62   64 1    
   126   62  185 1    
   127   63  186 1    
   128   63  187 1    
   129   63  188 1    
   130   64   65 am   BACKBONE|DICT|INTERRES
   131   64  189 1    
   132   65   66 2    
   133   67   68 2    
   134   67   69 am   BACKBONE|DICT|INTERRES
   135   69   70 1    
   136   69  190 1    
   137   70   71 1    
   138   70   72 1    
   139   70  191 1    
   140   71  192 1    
   141   71  193 1    
   142   71  194 1    
   143   72   73 2    
   144   72   74 am   BACKBONE|DICT|INTERRES
   145   74   75 1    
   146   74  195 1    
   147   75   76 1    
   148   75   77 1    
   149   75  196 1    
   150   76  197 1    
   151   76  198 1    
   152   76  199 1    
   153   77   78 2    
   154   77   79 am   BACKBONE|DICT|INTERRES
   155   79   80 1    
   156   79  200 1    
   157   80   81 1    
   158   80   82 1    
   159   80  201 1    
   160   81  202 1    
   161   81  203 1    
   162   81  204 1    
   163   82   83 2    
   164   82   84 am   BACKBONE|DICT|INTERRES
   165   84   85 1    
   166   84  205 1    
   167   85   86 1    
   168   85   87 1    
   169   85  206 1    
   170   86  207 1    
   171   86  208 1    
   172   86  209 1    
   173   87   88 2    
   174   87   89 am   BACKBONE|DICT|INTERRES
   175   89   90 1    
   176   89  210 1    
   177   90   91 1    
   178   90   92 1    
   179   90  211 1    
   180   91  212 1    
   181   91  213 1    
   182   91  214 1    
   183   92   93 2    
   184   92   94 am   BACKBONE|DICT|INTERRES
   185   94   95 1    
   186   94  215 1    
   187   95   96 1    
   188   95   97 1    
   189   95  216 1    
   190   96  217 1    
   191   96  218 1    
   192   96  219 1    
   193   97   98 2    
   194   97   99 am   BACKBONE|DICT|INTERRES
   195   99  100 1    
   196   99  220 1    
   197  100  101 1    
   198  100  102 1    
   199  100  221 1    
   200  101  222 1    
   201  101  223 1    
   202  101  224 1    
   203  102  103 2    
   204  102  104 am   BACKBONE|DICT|INTERRES
   205  104  105 1    
   206  104  225 1    
   207  105  106 1    
   208  105  107 1    
   209  105  226 1    
   210  106  227 1    
   211  106  228 1    
   212  106  229 1    
   213  107  108 2    
   214  107  109 am   BACKBONE|DICT|INTERRES
   215  109  110 1    
   216  109  230 1    
   217  110  111 1    
   218  110  112 1    
   219  110  231 1    
   220  111  232 1    
   221  111  233 1    
   222  111  234 1    
   223  112  113 2    
   224  112  114 am   BACKBONE|DICT|INTERRES
   225  114  115 1    
   226  114  235 1    
   227  115  116 1    
   228  115  117 1    
   229  115  236 1    
   230  116  237 1    
   231  116  238 1    
   232  116  239 1    
   233  117  118 2    
   234  117  119 am   BACKBONE|DICT|INTERRES
   235  119  120 1    
   236  119  240 1    
   237  120  121 1    
   238  120  124 1    
   239  120  241 1    
   240  121  122 am   BACKBONE|DICT|INTERRES
   241  121  123 2    
   242  122  242 1    
   243  122  243 1    
   244  124  125 1    
   245  124  244 1    
   246  124  245 1    
   247  125  126 1    
   248  126  246 1    
   249  126  247 1    
@<TRIPOS>SUBSTRUCTURE
     1 UNK         1 GROUP             0       ****    0 ROOT    
