@<TRIPOS>MOLECULE
3R540
247   249    1
SMALL
USER_CHARGES


@<TRIPOS>ATOM
      1 CA          0.4657  -10.3271  -49.3186 C.3       0 UNK        -0.1800 
      2 C           0.8528  -11.7988  -49.2777 C.2       0 UNK         0.5000 
      3 O           1.7815  -12.2054  -49.9757 O.2       0 UNK        -0.5000 
      4 N           0.1400  -12.5927  -48.4683 N.am      1 UNK        -0.5000 
      5 CA          0.3654  -14.0289  -48.2673 C.3       1 UNK         0.1400 
      6 C6         -0.7624  -14.6627  -47.4182 C.3       23 UNK        -0.0398 
      7 S7         -2.3015  -14.9121  -48.3626 S.3       23 UNK        -0.2404 
      8 C8         -2.3739  -16.7317  -48.4508 C.3       23 UNK        -0.0205 
      9 C9         -1.3649  -17.2948  -49.4408 C.ar      23 UNK        -0.0193 
     10 C10        -1.7053  -17.4401  -50.7887 C.ar      23 UNK        -0.1150 
     11 C11        -0.7741  -17.9321  -51.7076 C.ar      23 UNK        -0.0193 
     12 C12         0.5051  -18.2863  -51.2673 C.ar      23 UNK        -0.1150 
     13 C13         0.8615  -18.1366  -49.9236 C.ar      23 UNK        -0.0193 
     14 C14        -0.0830  -17.6525  -49.0150 C.ar      23 UNK        -0.1150 
     15 C15         2.2853  -18.4323  -49.4724 C.3       23 UNK        -0.0205 
     16 S16         2.5149  -20.1573  -48.9481 S.3       23 UNK        -0.2404 
     17 C17         1.8844  -20.1068  -47.2353 C.3       23 UNK        -0.0398 
     18 CA          1.1632  -21.4078  -46.8238 C.3       11 UNK         0.1400 
     19 N           0.9904  -21.4953  -45.3745 N.am      11 UNK        -0.5000 
     20 C           0.6332  -22.6090  -44.7217 C.2       10 UNK         0.5000 
     21 O           0.4446  -23.6939  -45.2725 O.2       10 UNK        -0.5000 
     22 CA          0.4053  -22.4767  -43.2059 C.3       10 UNK         0.1400 
     23 CB          1.7425  -22.4808  -42.4506 C.3       10 UNK        -0.1800 
     24 N          -0.3587  -21.2779  -42.8556 N.am      10 UNK        -0.5000 
     25 C          -1.6222  -21.0500  -43.2429 C.2       9 UNK         0.5000 
     26 O          -2.2863  -21.8445  -43.9078 O.2       9 UNK        -0.5000 
     27 CA         -2.2381  -19.6939  -42.8598 C.3       9 UNK         0.1400 
     28 CB         -2.7040  -19.7019  -41.3963 C.3       9 UNK        -0.1800 
     29 N          -1.3261  -18.5725  -43.0807 N.am      9 UNK        -0.5000 
     30 C          -0.8434  -18.2018  -44.2752 C.2       8 UNK         0.5000 
     31 O          -1.1266  -18.7538  -45.3375 O.2       8 UNK        -0.5000 
     32 CA          0.1705  -17.0471  -44.2777 C.3       8 UNK         0.1400 
     33 CB         -0.5350  -15.6993  -44.0646 C.3       8 UNK        -0.1800 
     34 N           1.2144  -17.2235  -43.2706 N.am      8 UNK        -0.5000 
     35 C           2.0759  -18.2501  -43.2338 C.2       7 UNK         0.5000 
     36 O           2.1147  -19.1467  -44.0764 O.2       7 UNK        -0.5000 
     37 CA          3.0165  -18.3105  -42.0195 C.3       7 UNK         0.1400 
     38 CB          4.2251  -17.3814  -42.2089 C.3       7 UNK        -0.1800 
     39 N           2.3237  -17.9700  -40.7771 N.am      7 UNK        -0.5000 
     40 C           1.3676  -18.7217  -40.2128 C.2       6 UNK         0.5000 
     41 O           0.9902  -19.8040  -40.6612 O.2       6 UNK        -0.5000 
     42 CA          0.6886  -18.1374  -38.9617 C.3       6 UNK         0.1400 
     43 CB          1.5504  -18.3747  -37.7126 C.3       6 UNK        -0.1800 
     44 N           0.4101  -16.7068  -39.0981 N.am      6 UNK        -0.5000 
     45 C          -0.4684  -16.1901  -39.9688 C.2       5 UNK         0.5000 
     46 O          -1.1571  -16.8698  -40.7287 O.2       5 UNK        -0.5000 
     47 CA         -0.5646  -14.6551  -40.0284 C.3       5 UNK         0.1400 
     48 CB         -1.5607  -14.1371  -38.9804 C.3       5 UNK        -0.1800 
     49 N           0.7247  -13.9824  -39.8483 N.am      5 UNK        -0.5000 
     50 C           1.7685  -14.0960  -40.6794 C.2       4 UNK         0.5000 
     51 O           1.7841  -14.8294  -41.6715 O.2       4 UNK        -0.5000 
     52 CA          3.0183  -13.2876  -40.3146 C.3       4 UNK         0.1400 
     53 CB          3.9803  -14.1369  -39.4682 C.3       4 UNK        -0.1800 
     54 N           3.6936  -12.8721  -41.5400 N.am      4 UNK        -0.5000 
     55 C           4.1903  -11.6511  -41.7751 C.2       3 UNK         0.5000 
     56 O           4.1574  -10.7347  -40.9522 O.2       3 UNK        -0.5000 
     57 CA          4.8506  -11.3975  -43.1474 C.3       3 UNK         0.1400 
     58 CB          6.3759  -11.2836  -42.9939 C.3       3 UNK        -0.1800 
     59 N           4.5590  -12.4271  -44.1482 N.am      3 UNK        -0.5000 
     60 C           3.4013  -12.5463  -44.8085 C.2       2 UNK         0.5000 
     61 O           2.4397  -11.7873  -44.6566 O.2       2 UNK        -0.5000 
     62 CA          3.3030  -13.7289  -45.7831 C.3       2 UNK         0.1400 
     63 CB          3.3425  -15.0657  -45.0149 C.3       2 UNK        -0.1800 
     64 N           2.0641  -13.6065  -46.5456 N.am      2 UNK        -0.5000 
     65 C           1.7399  -14.3202  -47.6296 C.2       1 UNK         0.5000 
     66 O           2.4707  -15.1761  -48.1272 O.2       1 UNK        -0.5000 
     67 C          -0.1700  -21.6168  -47.5723 C.2       11 UNK         0.5000 
     68 O          -0.1975  -22.3828  -48.5335 O.2       11 UNK        -0.5000 
     69 N          -1.2612  -21.0017  -47.0909 N.am      12 UNK        -0.5000 
     70 CA         -2.6119  -21.1941  -47.6242 C.3       12 UNK         0.1400 
     71 CB         -3.5938  -20.2346  -46.9376 C.3       12 UNK        -0.1800 
     72 C          -3.1028  -22.6475  -47.4981 C.2       12 UNK         0.5000 
     73 O          -3.7038  -23.1637  -48.4393 O.2       12 UNK        -0.5000 
     74 N          -2.8128  -23.2965  -46.3620 N.am      13 UNK        -0.5000 
     75 CA         -3.1014  -24.7114  -46.1268 C.3       13 UNK         0.1400 
     76 CB         -2.8366  -25.0616  -44.6549 C.3       13 UNK        -0.1800 
     77 C          -2.3097  -25.6372  -47.0686 C.2       13 UNK         0.5000 
     78 O          -2.8922  -26.5641  -47.6318 O.2       13 UNK        -0.5000 
     79 N          -1.0141  -25.3465  -47.2562 N.am      14 UNK        -0.5000 
     80 CA         -0.1250  -26.0610  -48.1755 C.3       14 UNK         0.1400 
     81 CB          1.3254  -25.6136  -47.9375 C.3       14 UNK        -0.1800 
     82 C          -0.5173  -25.8826  -49.6553 C.2       14 UNK         0.5000 
     83 O          -0.4578  -26.8466  -50.4195 O.2       14 UNK        -0.5000 
     84 N          -0.9328  -24.6640  -50.0261 N.am      15 UNK        -0.5000 
     85 CA         -1.4183  -24.3078  -51.3609 C.3       15 UNK         0.1400 
     86 CB         -1.4405  -22.7767  -51.4964 C.3       15 UNK        -0.1800 
     87 C          -2.8086  -24.8851  -51.6906 C.2       15 UNK         0.5000 
     88 O          -3.1531  -24.9525  -52.8687 O.2       15 UNK        -0.5000 
     89 N          -3.5656  -25.2858  -50.6579 N.am      16 UNK        -0.5000 
     90 CA         -4.9630  -25.7267  -50.6887 C.3       16 UNK         0.1400 
     91 CB         -5.1520  -26.9803  -51.5699 C.3       16 UNK        -0.1800 
     92 C          -5.9095  -24.5626  -51.0472 C.2       16 UNK         0.5000 
     93 O          -6.7056  -24.6695  -51.9815 O.2       16 UNK        -0.5000 
     94 N          -5.7885  -23.4843  -50.2596 N.am      17 UNK        -0.5000 
     95 CA         -6.4414  -22.1753  -50.3450 C.3       17 UNK         0.1400 
     96 CB         -7.9654  -22.2808  -50.5604 C.3       17 UNK        -0.1800 
     97 C          -5.7779  -21.2518  -51.3813 C.2       17 UNK         0.5000 
     98 O          -5.0977  -21.7107  -52.2992 O.2       17 UNK        -0.5000 
     99 N          -5.9870  -19.9418  -51.1992 N.am      18 UNK        -0.5000 
    100 CA        -5.4562  -18.8954  -52.0748 C.3       18 UNK         0.1400 
    101 CB        -5.5272  -17.5491  -51.3387 C.3       18 UNK        -0.1800 
    102 C         -6.2017  -18.8050  -53.4191 C.2       18 UNK         0.5000 
    103 O         -5.6033  -18.4245  -54.4259 O.2       18 UNK        -0.5000 
    104 N         -7.5006  -19.1332  -53.4026 N.am      19 UNK        -0.5000 
    105 CA        -8.3950  -19.0834  -54.5544 C.3       19 UNK         0.1400 
    106 CB        -9.8479  -19.2047  -54.0674 C.3       19 UNK        -0.1800 
    107 C         -8.0581  -20.1864  -55.5713 C.2       19 UNK         0.5000 
    108 O         -8.2021  -21.3685  -55.2531 O.2       19 UNK        -0.5000 
    109 N         -7.6176  -19.7709  -56.7664 N.am      20 UNK        -0.5000 
    110 CA        -7.2874  -20.5570  -57.9641 C.3       20 UNK         0.1400 
    111 CB        -8.5213  -21.3168  -58.4868 C.3       20 UNK        -0.1800 
    112 C         -6.0776  -21.5040  -57.8307 C.2       20 UNK         0.5000 
    113 O         -5.2590  -21.5620  -58.7490 O.2       20 UNK        -0.5000 
    114 N         -5.9683  -22.2223  -56.7075 N.am      21 UNK        -0.5000 
    115 CA        -4.9549  -23.2478  -56.4462 C.3       21 UNK         0.1400 
    116 CB        -5.3425  -24.0223  -55.1810 C.3       21 UNK        -0.1800 
    117 C         -3.5103  -22.7114  -56.3634 C.2       21 UNK         0.5000 
    118 O         -2.5734  -23.4709  -56.6146 O.2       21 UNK        -0.5000 
    119 N         -3.3531  -21.4119  -56.0765 N.am      22 UNK        -0.5000 
    120 CA        -2.0874  -20.6731  -56.2223 C.3       22 UNK         0.1400 
    121 C         -1.6579  -20.4200  -57.7018 C.2       22 UNK         0.5000 
    122 N         -2.4918  -20.6580  -58.7081 N.am      22 UNK        -0.7600 
    123 O         -0.5287  -20.0029  -57.9449 O.2       22 UNK        -0.5000 
    124 C124       -2.1076  -19.3432  -55.4239 C.3       23 UNK        -0.0398 
    125 S125       -1.9176  -19.5925  -53.6266 S.3       23 UNK        -0.2404 
    126 C126       -1.1257  -18.0151  -53.1849 C.3       23 UNK        -0.0205 
    127 H127       -0.3752  -10.1096  -48.6594 H         1 UNK         0.0600 
    128 H128        0.1854  -10.0407  -50.3323 H         1 UNK         0.0600 
    129 H129        1.3085   -9.7090  -49.0091 H         1 UNK         0.0600 
    130 H130       -0.6254  -12.1939  -47.9439 H         1 UNK         0.3000 
    131 H131        0.3681  -14.5063  -49.2501 H         1 UNK         0.0600 
    132 H132       -0.4530  -15.6203  -47.0019 H         1 UNK         0.0800 
    133 H133       -0.9889  -14.0323  -46.5571 H         1 UNK         0.0800 
    134 H134       -2.2099  -17.1533  -47.4581 H         1 UNK         0.0800 
    135 H135       -3.3814  -17.0303  -48.7408 H         1 UNK         0.0800 
    136 H136       -2.6876  -17.1477  -51.1287 H         1 UNK         0.1150 
    137 H137        1.2343  -18.6512  -51.9770 H         1 UNK         0.1150 
    138 H138        0.1891  -17.5267  -47.9787 H         1 UNK         0.1150 
    139 H139        2.9762  -18.2235  -50.2904 H         1 UNK         0.0800 
    140 H140        2.5757  -17.7641  -48.6609 H         1 UNK         0.0800 
    141 H141        1.2361  -19.2468  -47.0767 H         1 UNK         0.0800 
    142 H142        2.7490  -19.9467  -46.5897 H         1 UNK         0.0800 
    143 H143        1.8154  -22.2386  -47.1026 H         1 UNK         0.0600 
    144 H144        1.1630  -20.6457  -44.8440 H         1 UNK         0.3000 
    145 H145       -0.1705  -23.3457  -42.8808 H         1 UNK         0.0600 
    146 H146        1.5848  -22.4806  -41.3720 H         1 UNK         0.0600 
    147 H147        2.3264  -23.3694  -42.6938 H         1 UNK         0.0600 
    148 H148        2.3490  -21.6095  -42.6996 H         1 UNK         0.0600 
    149 H149        0.1107  -20.5929  -42.2711 H         1 UNK         0.3000 
    150 H150       -3.1136  -19.5376  -43.4931 H         1 UNK         0.0600 
    151 H151       -3.3901  -20.5287  -41.2082 H         1 UNK         0.0600 
    152 H152       -3.2292  -18.7800  -41.1460 H         1 UNK         0.0600 
    153 H153       -1.8653  -19.8056  -40.7071 H         1 UNK         0.0600 
    154 H154       -1.0673  -18.0335  -42.2586 H         1 UNK         0.3000 
    155 H155        0.6523  -17.0316  -45.2574 H         1 UNK         0.0600 
    156 H156        0.1426  -14.8636  -44.2388 H         1 UNK         0.0600 
    157 H157       -0.9247  -15.6052  -43.0529 H         1 UNK         0.0600 
    158 H158       -1.3824  -15.5870  -44.7410 H         1 UNK         0.0600 
    159 H159        1.2857  -16.5035  -42.5578 H         1 UNK         0.3000 
    160 H160        3.3852  -19.3348  -41.9345 H         1 UNK         0.0600 
    161 H161        3.9285  -16.3341  -42.2602 H         1 UNK         0.0600 
    162 H162        4.7569  -17.6172  -43.1316 H         1 UNK         0.0600 
    163 H163        4.9350  -17.4874  -41.3887 H         1 UNK         0.0600 
    164 H164        2.5368  -17.0726  -40.3691 H         1 UNK         0.3000 
    165 H165       -0.2618  -18.6578  -38.8249 H         1 UNK         0.0600 
    166 H166        2.5068  -17.8541  -37.7752 H         1 UNK         0.0600 
    167 H167        1.0404  -18.0329  -36.8117 H         1 UNK         0.0600 
    168 H168        1.7623  -19.4367  -37.5816 H         1 UNK         0.0600 
    169 H169        0.9336  -16.0770  -38.5086 H         1 UNK         0.3000 
    170 H170       -0.9437  -14.3854  -41.0157 H         1 UNK         0.0600 
    171 H171       -2.5373  -14.6073  -39.1045 H         1 UNK         0.0600 
    172 H172       -1.2230  -14.3451  -37.9644 H         1 UNK         0.0600 
    173 H173       -1.7066  -13.0607  -39.0727 H         1 UNK         0.0600 
    174 H174        0.8006  -13.3697  -39.0490 H         1 UNK         0.3000 
    175 H175        2.7058  -12.4155  -39.7364 H         1 UNK         0.0600 
    176 H176        4.8641  -13.5640  -39.1869 H         1 UNK         0.0600 
    177 H177        3.5032  -14.4709  -38.5460 H         1 UNK         0.0600 
    178 H178        4.3161  -15.0240  -40.0066 H         1 UNK         0.0600 
    179 H179        3.6881  -13.5542  -42.2851 H         1 UNK         0.3000 
    180 H180        4.4747  -10.4404  -43.5154 H         1 UNK         0.0600 
    181 H181        6.8142  -12.2140  -42.6306 H         1 UNK         0.0600 
    182 H182        6.6414  -10.4977  -42.2855 H         1 UNK         0.0600 
    183 H183        6.8511  -11.0354  -43.9432 H         1 UNK         0.0600 
    184 H184        5.2981  -13.0908  -44.3308 H         1 UNK         0.3000 
    185 H185        4.1454  -13.6757  -46.4756 H         1 UNK         0.0600 
    186 H186        3.1999  -15.9248  -45.6699 H         1 UNK         0.0600 
    187 H187        4.3017  -15.2061  -44.5166 H         1 UNK         0.0600 
    188 H188        2.5696  -15.0974  -44.2494 H         1 UNK         0.0600 
    189 H189        1.4500  -12.8735  -46.2112 H         1 UNK         0.3000 
    190 H190       -1.1675  -20.3498  -46.3158 H         1 UNK         0.3000 
    191 H191       -2.5843  -20.9446  -48.6870 H         1 UNK         0.0600 
    192 H192       -3.3036  -19.1971  -47.0916 H         1 UNK         0.0600 
    193 H193       -4.6010  -20.3525  -47.3390 H         1 UNK         0.0600 
    194 H194       -3.6441  -20.4105  -45.8630 H         1 UNK         0.0600 
    195 H195       -2.3729  -22.7860  -45.6013 H         1 UNK         0.3000 
    196 H196       -4.1638  -24.8702  -46.3232 H         1 UNK         0.0600 
    197 H197       -3.0647  -26.1093  -44.4556 H         1 UNK         0.0600 
    198 H198       -3.4579  -24.4611  -43.9902 H         1 UNK         0.0600 
    199 H199       -1.7956  -24.8938  -44.3792 H         1 UNK         0.0600 
    200 H200       -0.6012  -24.5881  -46.7216 H         1 UNK         0.3000 
    201 H201       -0.1920  -27.1256  -47.9421 H         1 UNK         0.0600 
    202 H202        1.6322  -25.8023  -46.9085 H         1 UNK         0.0600 
    203 H203        1.4567  -24.5496  -48.1351 H         1 UNK         0.0600 
    204 H204        2.0131  -26.1559  -48.5875 H         1 UNK         0.0600 
    205 H205       -0.8666  -23.9015  -49.3548 H         1 UNK         0.3000 
    206 H206       -0.7153  -24.7044  -52.0962 H         1 UNK         0.0600 
    207 H207       -0.4502  -22.3477  -51.3422 H         1 UNK         0.0600 
    208 H208       -1.7731  -22.4777  -52.4913 H         1 UNK         0.0600 
    209 H209       -2.1205  -22.3204  -50.7763 H         1 UNK         0.0600 
    210 H210       -3.1748  -25.1615  -49.7332 H         1 UNK         0.3000 
    211 H211       -5.2062  -26.0155  -49.6650 H         1 UNK         0.0600 
    212 H212       -5.0046  -26.7662  -52.6285 H         1 UNK         0.0600 
    213 H213       -6.1606  -27.3797  -51.4597 H         1 UNK         0.0600 
    214 H214       -4.4563  -27.7699  -51.2859 H         1 UNK         0.0600 
    215 H215       -5.0380  -23.5093  -49.5701 H         1 UNK         0.3000 
    216 H216       -6.2788  -21.7214  -49.3661 H         1 UNK         0.0600 
    217 H217       -8.4162  -22.9911  -49.8673 H         1 UNK         0.0600 
    218 H218       -8.2132  -22.5940  -51.5752 H         1 UNK         0.0600 
    219 H219       -8.4497  -21.3178  -50.3967 H         1 UNK         0.0600 
    220 H220       -6.5460  -19.6338  -50.4167 H         1 UNK         0.3000 
    221 H221       -4.4085  -19.1156  -52.2814 H         1 UNK         0.0600 
    222 H222       -6.5568  -17.2574  -51.1280 H         1 UNK         0.0600 
    223 H223       -4.9920  -17.5894  -50.3910 H         1 UNK         0.0600 
    224 H224       -5.0767  -16.7547  -51.9352 H         1 UNK         0.0600 
    225 H225       -7.8969  -19.4717  -52.5394 H         1 UNK         0.3000 
    226 H226       -8.2825  -18.1081  -55.0329 H         1 UNK         0.0600 
    227 H227      -10.1080  -18.3876  -53.3943 H         1 UNK         0.0600 
    228 H228      -10.5441  -19.1684  -54.9063 H         1 UNK         0.0600 
    229 H229      -10.0204  -20.1430  -53.5383 H         1 UNK         0.0600 
    230 H230       -7.4848  -18.7753  -56.8804 H         1 UNK         0.3000 
    231 H231       -7.0163  -19.8228  -58.7245 H         1 UNK         0.0600 
    232 H232       -8.2989  -21.8172  -59.4301 H         1 UNK         0.0600 
    233 H233       -9.3546  -20.6380  -58.6683 H         1 UNK         0.0600 
    234 H234       -8.8577  -22.0812  -57.7857 H         1 UNK         0.0600 
    235 H235       -6.6954  -22.1008  -56.0058 H         1 UNK         0.3000 
    236 H236       -4.9849  -23.9477  -57.2837 H         1 UNK         0.0600 
    237 H237       -4.6752  -24.8703  -55.0274 H         1 UNK         0.0600 
    238 H238       -5.2871  -23.3945  -54.2922 H         1 UNK         0.0600 
    239 H239       -6.3560  -24.4177  -55.2482 H         1 UNK         0.0600 
    240 H240       -4.1744  -20.8640  -55.8674 H         1 UNK         0.3000 
    241 H241       -1.2958  -21.2971  -55.8027 H         1 UNK         0.0600 
    242 H242       -2.1786  -20.4887  -59.6506 H         1 UNK         0.3800 
    243 H243       -3.4318  -21.0116  -58.5573 H         1 UNK         0.3800 
    244 H244       -1.2975  -18.6883  -55.7499 H         1 UNK         0.0800 
    245 H245       -3.0300  -18.7917  -55.6126 H         1 UNK         0.0800 
    246 H246       -1.7924  -17.1936  -53.4522 H         1 UNK         0.0800 
    247 H247       -0.2225  -17.8828  -53.7826 H         1 UNK         0.0800 
@<TRIPOS>BOND
     1    1    2 1    
     2    1  127 1    
     3    1  128 1    
     4    1  129 1    
     5    2    3 2    
     6    2    4 am   BACKBONE|DICT|INTERRES
     7    4    5 1    
     8    4  130 1    
     9    5    6 1    
    10    5   65 1    
    11    5  131 1    
    12    6    7 1    
    13    6  132 1    
    14    6  133 1    
    15    7    8 1    
    16    8    9 1    
    17    8  134 1    
    18    8  135 1    
    19    9   10 ar   
    20    9   14 ar   
    21   10   11 ar   
    22   10  136 1    
    23   11   12 ar   
    24   11  126 1    
    25   12   13 ar   
    26   12  137 1    
    27   13   14 ar   
    28   13   15 1    
    29   14  138 1    
    30   15   16 1    
    31   15  139 1    
    32   15  140 1    
    33   16   17 1    
    34   17   18 1    
    35   17  141 1    
    36   17  142 1    
    37   18   19 1    
    38   18   67 1    
    39   18  143 1    
    40   19   20 am   BACKBONE|DICT|INTERRES
    41   19  144 1    
    42   20   21 2    
    43   20   22 1    
    44   22   23 1    
    45   22   24 1    
    46   22  145 1    
    47   23  146 1    
    48   23  147 1    
    49   23  148 1    
    50   24   25 am   BACKBONE|DICT|INTERRES
    51   24  149 1    
    52   25   26 2    
    53   25   27 1    
    54   27   28 1    
    55   27   29 1    
    56   27  150 1    
    57   28  151 1    
    58   28  152 1    
    59   28  153 1    
    60   29   30 am   BACKBONE|DICT|INTERRES
    61   29  154 1    
    62   30   31 2    
    63   30   32 1    
    64   32   33 1    
    65   32   34 1    
    66   32  155 1    
    67   33  156 1    
    68   33  157 1    
    69   33  158 1    
    70   34   35 am   BACKBONE|DICT|INTERRES
    71   34  159 1    
    72   35   36 2    
    73   35   37 1    
    74   37   38 1    
    75   37   39 1    
    76   37  160 1    
    77   38  161 1    
    78   38  162 1    
    79   38  163 1    
    80   39   40 am   BACKBONE|DICT|INTERRES
    81   39  164 1    
    82   40   41 2    
    83   40   42 1    
    84   42   43 1    
    85   42   44 1    
    86   42  165 1    
    87   43  166 1    
    88   43  167 1    
    89   43  168 1    
    90   44   45 am   BACKBONE|DICT|INTERRES
    91   44  169 1    
    92   45   46 2    
    93   45   47 1    
    94   47   48 1    
    95   47   49 1    
    96   47  170 1    
    97   48  171 1    
    98   48  172 1    
    99   48  173 1    
   100   49   50 am   BACKBONE|DICT|INTERRES
   101   49  174 1    
   102   50   51 2    
   103   50   52 1    
   104   52   53 1    
   105   52   54 1    
   106   52  175 1    
   107   53  176 1    
   108   53  177 1    
   109   53  178 1    
   110   54   55 am   BACKBONE|DICT|INTERRES
   111   54  179 1    
   112   55   56 2    
   113   55   57 1    
   114   57   58 1    
   115   57   59 1    
   116   57  180 1    
   117   58  181 1    
   118   58  182 1    
   119   58  183 1    
   120   59   60 am   BACKBONE|DICT|INTERRES
   121   59  184 1    
   122   60   61 2    
   123   60   62 1    
   124   62   63 1    
   125   62   64 1    
   126   62  185 1    
   127   63  186 1    
   128   63  187 1    
   129   63  188 1    
   130   64   65 am   BACKBONE|DICT|INTERRES
   131   64  189 1    
   132   65   66 2    
   133   67   68 2    
   134   67   69 am   BACKBONE|DICT|INTERRES
   135   69   70 1    
   136   69  190 1    
   137   70   71 1    
   138   70   72 1    
   139   70  191 1    
   140   71  192 1    
   141   71  193 1    
   142   71  194 1    
   143   72   73 2    
   144   72   74 am   BACKBONE|DICT|INTERRES
   145   74   75 1    
   146   74  195 1    
   147   75   76 1    
   148   75   77 1    
   149   75  196 1    
   150   76  197 1    
   151   76  198 1    
   152   76  199 1    
   153   77   78 2    
   154   77   79 am   BACKBONE|DICT|INTERRES
   155   79   80 1    
   156   79  200 1    
   157   80   81 1    
   158   80   82 1    
   159   80  201 1    
   160   81  202 1    
   161   81  203 1    
   162   81  204 1    
   163   82   83 2    
   164   82   84 am   BACKBONE|DICT|INTERRES
   165   84   85 1    
   166   84  205 1    
   167   85   86 1    
   168   85   87 1    
   169   85  206 1    
   170   86  207 1    
   171   86  208 1    
   172   86  209 1    
   173   87   88 2    
   174   87   89 am   BACKBONE|DICT|INTERRES
   175   89   90 1    
   176   89  210 1    
   177   90   91 1    
   178   90   92 1    
   179   90  211 1    
   180   91  212 1    
   181   91  213 1    
   182   91  214 1    
   183   92   93 2    
   184   92   94 am   BACKBONE|DICT|INTERRES
   185   94   95 1    
   186   94  215 1    
   187   95   96 1    
   188   95   97 1    
   189   95  216 1    
   190   96  217 1    
   191   96  218 1    
   192   96  219 1    
   193   97   98 2    
   194   97   99 am   BACKBONE|DICT|INTERRES
   195   99  100 1    
   196   99  220 1    
   197  100  101 1    
   198  100  102 1    
   199  100  221 1    
   200  101  222 1    
   201  101  223 1    
   202  101  224 1    
   203  102  103 2    
   204  102  104 am   BACKBONE|DICT|INTERRES
   205  104  105 1    
   206  104  225 1    
   207  105  106 1    
   208  105  107 1    
   209  105  226 1    
   210  106  227 1    
   211  106  228 1    
   212  106  229 1    
   213  107  108 2    
   214  107  109 am   BACKBONE|DICT|INTERRES
   215  109  110 1    
   216  109  230 1    
   217  110  111 1    
   218  110  112 1    
   219  110  231 1    
   220  111  232 1    
   221  111  233 1    
   222  111  234 1    
   223  112  113 2    
   224  112  114 am   BACKBONE|DICT|INTERRES
   225  114  115 1    
   226  114  235 1    
   227  115  116 1    
   228  115  117 1    
   229  115  236 1    
   230  116  237 1    
   231  116  238 1    
   232  116  239 1    
   233  117  118 2    
   234  117  119 am   BACKBONE|DICT|INTERRES
   235  119  120 1    
   236  119  240 1    
   237  120  121 1    
   238  120  124 1    
   239  120  241 1    
   240  121  122 am   BACKBONE|DICT|INTERRES
   241  121  123 2    
   242  122  242 1    
   243  122  243 1    
   244  124  125 1    
   245  124  244 1    
   246  124  245 1    
   247  125  126 1    
   248  126  246 1    
   249  126  247 1    
@<TRIPOS>SUBSTRUCTURE
     1 UNK         1 GROUP             0       ****    0 ROOT    
