@<TRIPOS>MOLECULE
3R540
247   249    1
SMALL
USER_CHARGES


@<TRIPOS>ATOM
      1 CA         -1.7139  -11.8845  -44.7954 C.3       0 UNK        -0.1800 
      2 C          -1.1072  -11.7923  -46.1863 C.2       0 UNK         0.5000 
      3 O          -1.4851  -10.9157  -46.9646 O.2       0 UNK        -0.5000 
      4 N          -0.1728  -12.6972  -46.4978 N.am      1 UNK        -0.5000 
      5 CA          0.5879  -12.7124  -47.7497 C.3       1 UNK         0.1400 
      6 C6          0.8427  -14.1604  -48.2488 C.3       23 UNK        -0.0398 
      7 S7          1.9444  -15.1733  -47.1953 S.3       23 UNK        -0.2404 
      8 C8          3.3271  -15.5766  -48.3118 C.3       23 UNK        -0.0205 
      9 C9          2.9022  -16.4777  -49.4621 C.ar      23 UNK        -0.0193 
     10 C10         2.6591  -15.9318  -50.7260 C.ar      23 UNK        -0.1150 
     11 C11         2.2504  -16.7455  -51.7847 C.ar      23 UNK        -0.0193 
     12 C12         2.1243  -18.1219  -51.5839 C.ar      23 UNK        -0.1150 
     13 C13         2.3876  -18.6860  -50.3324 C.ar      23 UNK        -0.0193 
     14 C14         2.7668  -17.8575  -49.2702 C.ar      23 UNK        -0.1150 
     15 C15         2.2796  -20.1931  -50.1515 C.3       23 UNK        -0.0205 
     16 S16         0.5462  -20.7453  -50.0871 S.3       23 UNK        -0.2404 
     17 C17         0.1320  -20.4641  -48.3336 C.3       23 UNK        -0.0398 
     18 CA         -0.1203  -21.7943  -47.5798 C.3       11 UNK         0.1400 
     19 N           0.1020  -21.6678  -46.1372 N.am      11 UNK        -0.5000 
     20 C           0.0910  -22.6863  -45.2650 C.2       10 UNK         0.5000 
     21 O          -0.0514  -23.8640  -45.5913 O.2       10 UNK        -0.5000 
     22 CA          0.2036  -22.3285  -43.7718 C.3       10 UNK         0.1400 
     23 CB          1.6686  -22.1084  -43.3679 C.3       10 UNK        -0.1800 
     24 N          -0.5952  -21.1552  -43.4143 N.am      10 UNK        -0.5000 
     25 C          -1.9322  -21.0965  -43.5014 C.2       9 UNK         0.5000 
     26 O          -2.6367  -22.0491  -43.8340 O.2       9 UNK        -0.5000 
     27 CA         -2.5910  -19.7329  -43.2271 C.3       9 UNK         0.1400 
     28 CB         -2.7198  -19.4764  -41.7186 C.3       9 UNK        -0.1800 
     29 N          -1.8711  -18.6266  -43.8578 N.am      9 UNK        -0.5000 
     30 C          -1.7041  -18.4812  -45.1802 C.2       8 UNK         0.5000 
     31 O          -2.1863  -19.2407  -46.0202 O.2       8 UNK        -0.5000 
     32 CA         -0.8018  -17.3225  -45.6373 C.3       8 UNK         0.1400 
     33 CB         -1.5710  -15.9949  -45.6157 C.3       8 UNK        -0.1800 
     34 N           0.4112  -17.2113  -44.8250 N.am      8 UNK        -0.5000 
     35 C           1.3702  -18.1475  -44.7747 C.2       7 UNK         0.5000 
     36 O           1.3511  -19.1804  -45.4416 O.2       7 UNK        -0.5000 
     37 CA          2.5109  -17.9278  -43.7671 C.3       7 UNK         0.1400 
     38 CB          3.5952  -17.0090  -44.3453 C.3       7 UNK        -0.1800 
     39 N           2.0227  -17.3832  -42.5015 N.am      7 UNK        -0.5000 
     40 C           1.2581  -18.0606  -41.6331 C.2       6 UNK         0.5000 
     41 O           0.9282  -19.2363  -41.7838 O.2       6 UNK        -0.5000 
     42 CA          0.7357  -17.2725  -40.4180 C.3       6 UNK         0.1400 
     43 CB          1.7761  -17.2674  -39.2883 C.3       6 UNK        -0.1800 
     44 N           0.3845  -15.8931  -40.7603 N.am      6 UNK        -0.5000 
     45 C          -0.6139  -15.5475  -41.5862 C.2       5 UNK         0.5000 
     46 O          -1.3871  -16.3575  -42.0956 O.2       5 UNK        -0.5000 
     47 CA         -0.7272  -14.0557  -41.9498 C.3       5 UNK         0.1400 
     48 CB         -1.6248  -13.3138  -40.9498 C.3       5 UNK        -0.1800 
     49 N           0.5823  -13.3997  -42.0164 N.am      5 UNK        -0.5000 
     50 C           1.4917  -13.6395  -42.9696 C.2       4 UNK         0.5000 
     51 O           1.2694  -14.3401  -43.9607 O.2       4 UNK        -0.5000 
     52 CA          2.8943  -13.0621  -42.7284 C.3       4 UNK         0.1400 
     53 CB          3.5893  -13.8405  -41.5892 C.3       4 UNK        -0.1800 
     54 N           3.6840  -13.1487  -43.9554 N.am      4 UNK        -0.5000 
     55 C           4.8880  -12.5909  -44.1459 C.2       3 UNK         0.5000 
     56 O           5.4560  -11.8803  -43.3157 O.2       3 UNK        -0.5000 
     57 CA          5.5580  -12.8389  -45.5028 C.3       3 UNK         0.1400 
     58 CB          5.7999  -14.3374  -45.7623 C.3       3 UNK        -0.1800 
     59 N           4.7306  -12.2470  -46.5440 N.am      3 UNK        -0.5000 
     60 C           5.1080  -11.9306  -47.7853 C.2       2 UNK         0.5000 
     61 O           6.2323  -12.1665  -48.2312 O.2       2 UNK        -0.5000 
     62 CA          4.0453  -11.2334  -48.6724 C.3       2 UNK         0.1400 
     63 CB          4.4857  -11.1235  -50.1436 C.3       2 UNK        -0.1800 
     64 N           2.7284  -11.8806  -48.6315 N.am      2 UNK        -0.5000 
     65 C           1.8767  -11.8748  -47.5970 C.2       1 UNK         0.5000 
     66 O           2.1054  -11.2675  -46.5458 O.2       1 UNK        -0.5000 
     67 C          -1.5178  -22.3689  -47.8921 C.2       11 UNK         0.5000 
     68 O          -1.6239  -23.3240  -48.6610 O.2       11 UNK        -0.5000 
     69 N          -2.5563  -21.8160  -47.2492 N.am      12 UNK        -0.5000 
     70 CA         -3.9394  -22.2771  -47.3634 C.3       12 UNK         0.1400 
     71 CB         -4.8760  -21.2957  -46.6456 C.3       12 UNK        -0.1800 
     72 C          -4.1426  -23.7123  -46.8497 C.2       12 UNK         0.5000 
     73 O          -4.8683  -24.4777  -47.4838 O.2       12 UNK        -0.5000 
     74 N          -3.4769  -24.0664  -45.7422 N.am      13 UNK        -0.5000 
     75 CA         -3.4633  -25.4184  -45.1843 C.3       13 UNK         0.1400 
     76 CB         -2.8066  -25.4022  -43.7959 C.3       13 UNK        -0.1800 
     77 C          -2.7683  -26.4323  -46.1115 C.2       13 UNK         0.5000 
     78 O          -3.2963  -27.5266  -46.3094 O.2       13 UNK        -0.5000 
     79 N          -1.6222  -26.0421  -46.6880 N.am      14 UNK        -0.5000 
     80 CA         -0.8564  -26.8399  -47.6485 C.3       14 UNK         0.1400 
     81 CB          0.5119  -26.1836  -47.8884 C.3       14 UNK        -0.1800 
     82 C          -1.6013  -27.0519  -48.9796 C.2       14 UNK         0.5000 
     83 O          -1.5752  -28.1580  -49.5207 O.2       14 UNK        -0.5000 
     84 N          -2.2718  -25.9996  -49.4680 N.am      15 UNK        -0.5000 
     85 CA         -3.1208  -26.0301  -50.6613 C.3       15 UNK         0.1400 
     86 CB         -3.4104  -24.5859  -51.1020 C.3       15 UNK        -0.1800 
     87 C          -4.4411  -26.8001  -50.4523 C.2       15 UNK         0.5000 
     88 O          -5.0343  -27.2474  -51.4344 O.2       15 UNK        -0.5000 
     89 N          -4.8667  -26.9321  -49.1860 N.am      16 UNK        -0.5000 
     90 CA         -6.1546  -27.4517  -48.7174 C.3       16 UNK         0.1400 
     91 CB         -6.3253  -28.9436  -49.0724 C.3       16 UNK        -0.1800 
     92 C          -7.3151  -26.5590  -49.2008 C.2       16 UNK         0.5000 
     93 O          -8.2794  -27.0489  -49.7926 O.2       16 UNK        -0.5000 
     94 N          -7.1627  -25.2491  -48.9540 N.am      17 UNK        -0.5000 
     95 CA         -7.9720  -24.1433  -49.4704 C.3       17 UNK         0.1400 
     96 CB         -9.4100  -24.1928  -48.9066 C.3       17 UNK        -0.1800 
     97 C          -7.8836  -24.0689  -51.0105 C.2       17 UNK         0.5000 
     98 O          -6.7898  -24.2438  -51.5500 O.2       17 UNK        -0.5000 
     99 N          -9.0120  -23.8017  -51.6859 N.am      18 UNK        -0.5000 
    100 CA        -9.1652  -23.7109  -53.1423 C.3       18 UNK         0.1400 
    101 CB        -9.0564  -25.1159  -53.7779 C.3       18 UNK        -0.1800 
    102 C         -8.2121  -22.6620  -53.7559 C.2       18 UNK         0.5000 
    103 O         -8.3150  -21.4828  -53.4105 O.2       18 UNK        -0.5000 
    104 N         -7.2875  -23.0955  -54.6225 N.am      19 UNK        -0.5000 
    105 CA        -6.2571  -22.2805  -55.2698 C.3       19 UNK         0.1400 
    106 CB        -5.7880  -23.0061  -56.5440 C.3       19 UNK        -0.1800 
    107 C         -5.0891  -21.9280  -54.3189 C.2       19 UNK         0.5000 
    108 O         -3.9251  -22.1592  -54.6496 O.2       19 UNK        -0.5000 
    109 N         -5.4232  -21.3697  -53.1498 N.am      20 UNK        -0.5000 
    110 CA        -4.4778  -20.8884  -52.1408 C.3       20 UNK         0.1400 
    111 CB        -5.1845  -20.8697  -50.7763 C.3       20 UNK        -0.1800 
    112 C         -3.9101  -19.4935  -52.4740 C.2       20 UNK         0.5000 
    113 O         -2.8960  -19.1002  -51.8972 O.2       20 UNK        -0.5000 
    114 N         -4.5804  -18.7633  -53.3768 N.am      21 UNK        -0.5000 
    115 CA        -4.1798  -17.4448  -53.8653 C.3       21 UNK         0.1400 
    116 CB        -5.3512  -16.8363  -54.6524 C.3       21 UNK        -0.1800 
    117 C         -2.9140  -17.5036  -54.7423 C.2       21 UNK         0.5000 
    118 O         -2.6562  -18.5189  -55.3937 O.2       21 UNK        -0.5000 
    119 N         -2.1684  -16.3940  -54.7633 N.am      22 UNK        -0.5000 
    120 CA        -0.9015  -16.2415  -55.5018 C.3       22 UNK         0.1400 
    121 C         -1.0566  -16.0513  -57.0403 C.2       22 UNK         0.5000 
    122 N         -2.2566  -15.8585  -57.5741 N.am      22 UNK        -0.7600 
    123 O         -0.0664  -16.0851  -57.7659 O.2       22 UNK        -0.5000 
    124 C124       -0.0175  -15.1187  -54.8972 C.3       23 UNK        -0.0398 
    125 S125        0.2901  -15.3512  -53.1134 S.3       23 UNK        -0.2404 
    126 C126        1.9301  -16.1356  -53.1389 C.3       23 UNK        -0.0205 
    127 H127       -2.4059  -11.0608  -44.6187 H         1 UNK         0.0600 
    128 H128       -0.9336  -11.8368  -44.0365 H         1 UNK         0.0600 
    129 H129       -2.2636  -12.8189  -44.6835 H         1 UNK         0.0600 
    130 H130        0.1485  -13.3508  -45.7941 H         1 UNK         0.3000 
    131 H131       -0.0014  -12.2179  -48.5246 H         1 UNK         0.0600 
    132 H132       -0.1094  -14.6870  -48.3250 H         1 UNK         0.0800 
    133 H133        1.2238  -14.1340  -49.2677 H         1 UNK         0.0800 
    134 H134        3.7783  -14.6565  -48.6849 H         1 UNK         0.0800 
    135 H135        4.1040  -16.0825  -47.7381 H         1 UNK         0.0800 
    136 H136        2.7675  -14.8687  -50.8867 H         1 UNK         0.1150 
    137 H137        1.8140  -18.7586  -52.4007 H         1 UNK         0.1150 
    138 H138        2.9614  -18.2834  -48.2956 H         1 UNK         0.1150 
    139 H139        2.7697  -20.6861  -50.9923 H         1 UNK         0.0800 
    140 H140        2.8131  -20.5221  -49.2582 H         1 UNK         0.0800 
    141 H141       -0.7273  -19.7943  -48.2722 H         1 UNK         0.0800 
    142 H142        0.9565  -19.9219  -47.8724 H         1 UNK         0.0800 
    143 H143        0.6139  -22.5243  -47.9282 H         1 UNK         0.0600 
    144 H144        0.2896  -20.7318  -45.7886 H         1 UNK         0.3000 
    145 H145       -0.1790  -23.1756  -43.1991 H         1 UNK         0.0600 
    146 H146        1.7584  -21.9235  -42.2973 H         1 UNK         0.0600 
    147 H147        2.2724  -22.9870  -43.5983 H         1 UNK         0.0600 
    148 H148        2.1100  -21.2608  -43.8915 H         1 UNK         0.0600 
    149 H149       -0.0874  -20.3426  -43.0785 H         1 UNK         0.3000 
    150 H150       -3.5960  -19.7588  -43.6532 H         1 UNK         0.0600 
    151 H151       -3.2837  -20.2745  -41.2342 H         1 UNK         0.0600 
    152 H152       -3.2439  -18.5410  -41.5216 H         1 UNK         0.0600 
    153 H153       -1.7455  -19.4214  -41.2332 H         1 UNK         0.0600 
    154 H154       -1.4869  -17.9196  -43.2374 H         1 UNK         0.3000 
    155 H155       -0.4948  -17.5198  -46.6667 H         1 UNK         0.0600 
    156 H156       -1.9354  -15.7479  -44.6193 H         1 UNK         0.0600 
    157 H157       -2.4345  -16.0344  -46.2806 H         1 UNK         0.0600 
    158 H158       -0.9392  -15.1775  -45.9520 H         1 UNK         0.0600 
    159 H159        0.5307  -16.3602  -44.2903 H         1 UNK         0.3000 
    160 H160        2.9671  -18.8992  -43.5653 H         1 UNK         0.0600 
    161 H161        3.2105  -16.0096  -44.5389 H         1 UNK         0.0600 
    162 H162        3.9761  -17.4009  -45.2893 H         1 UNK         0.0600 
    163 H163        4.4416  -16.9165  -43.6647 H         1 UNK         0.0600 
    164 H164        2.2180  -16.4121  -42.3186 H         1 UNK         0.3000 
    165 H165       -0.1639  -17.7739  -40.0550 H         1 UNK         0.0600 
    166 H166        1.3881  -16.7731  -38.3975 H         1 UNK         0.0600 
    167 H167        2.0456  -18.2851  -39.0024 H         1 UNK         0.0600 
    168 H168        2.6928  -16.7558  -39.5844 H         1 UNK         0.0600 
    169 H169        0.9622  -15.1650  -40.3687 H         1 UNK         0.3000 
    170 H170       -1.1944  -14.0020  -42.9334 H         1 UNK         0.0600 
    171 H171       -2.6117  -13.7754  -40.8951 H         1 UNK         0.0600 
    172 H172       -1.2023  -13.3206  -39.9443 H         1 UNK         0.0600 
    173 H173       -1.7695  -12.2750  -41.2474 H         1 UNK         0.0600 
    174 H174        0.8270  -12.8011  -41.2404 H         1 UNK         0.3000 
    175 H175        2.7881  -12.0116  -42.4508 H         1 UNK         0.0600 
    176 H176        3.7678  -14.8803  -41.8644 H         1 UNK         0.0600 
    177 H177        4.5512  -13.3997  -41.3291 H         1 UNK         0.0600 
    178 H178        2.9917  -13.8382  -40.6771 H         1 UNK         0.0600 
    179 H179        3.2459  -13.6900  -44.6908 H         1 UNK         0.3000 
    180 H180        6.5234  -12.3283  -45.4939 H         1 UNK         0.0600 
    181 H181        4.8633  -14.8826  -45.8591 H         1 UNK         0.0600 
    182 H182        6.3620  -14.7902  -44.9448 H         1 UNK         0.0600 
    183 H183        6.3721  -14.4956  -46.6762 H         1 UNK         0.0600 
    184 H184        3.7951  -11.9619  -46.2605 H         1 UNK         0.3000 
    185 H185        3.9349  -10.2183  -48.2856 H         1 UNK         0.0600 
    186 H186        5.4276  -10.5808  -50.2333 H         1 UNK         0.0600 
    187 H187        4.6271  -12.1065  -50.5948 H         1 UNK         0.0600 
    188 H188        3.7479  -10.5838  -50.7377 H         1 UNK         0.0600 
    189 H189        2.4799  -12.4017  -49.4586 H         1 UNK         0.3000 
    190 H190       -2.3918  -21.0081  -46.6530 H         1 UNK         0.3000 
    191 H191       -4.1967  -22.2792  -48.4229 H         1 UNK         0.0600 
    192 H192       -4.6497  -21.2290  -45.5811 H         1 UNK         0.0600 
    193 H193       -5.9170  -21.6064  -46.7432 H         1 UNK         0.0600 
    194 H194       -4.7937  -20.2939  -47.0678 H         1 UNK         0.0600 
    195 H195       -2.9528  -23.3574  -45.2371 H         1 UNK         0.3000 
    196 H196       -4.5004  -25.7380  -45.0618 H         1 UNK         0.0600 
    197 H197       -2.8111  -26.3976  -43.3503 H         1 UNK         0.0600 
    198 H198       -3.3406  -24.7385  -43.1157 H         1 UNK         0.0600 
    199 H199       -1.7702  -25.0681  -43.8428 H         1 UNK         0.0600 
    200 H200       -1.2278  -25.1402  -46.4338 H         1 UNK         0.3000 
    201 H201       -0.6860  -27.8229  -47.2047 H         1 UNK         0.0600 
    202 H202        1.0807  -26.1101  -46.9614 H         1 UNK         0.0600 
    203 H203        0.4106  -25.1782  -48.2980 H         1 UNK         0.0600 
    204 H204        1.1082  -26.7671  -48.5910 H         1 UNK         0.0600 
    205 H205       -2.1750  -25.0993  -49.0037 H         1 UNK         0.3000 
    206 H206       -2.5697  -26.5277  -51.4618 H         1 UNK         0.0600 
    207 H207       -2.4891  -24.0395  -51.3045 H         1 UNK         0.0600 
    208 H208       -4.0076  -24.5656  -52.0147 H         1 UNK         0.0600 
    209 H209       -3.9645  -24.0384  -50.3385 H         1 UNK         0.0600 
    210 H210       -4.3015  -26.4945  -48.4702 H         1 UNK         0.3000 
    211 H211       -6.1363  -27.3738  -47.6292 H         1 UNK         0.0600 
    212 H212       -6.4107  -29.1029  -50.1474 H         1 UNK         0.0600 
    213 H213       -7.2262  -29.3500  -48.6116 H         1 UNK         0.0600 
    214 H214       -5.4816  -29.5318  -48.7115 H         1 UNK         0.0600 
    215 H215       -6.3105  -24.9672  -48.4720 H         1 UNK         0.3000 
    216 H216       -7.5035  -23.2312  -49.0981 H         1 UNK         0.0600 
    217 H217       -9.9589  -23.2806  -49.1428 H         1 UNK         0.0600 
    218 H218       -9.3985  -24.2826  -47.8203 H         1 UNK         0.0600 
    219 H219       -9.9783  -25.0357  -49.3012 H         1 UNK         0.0600 
    220 H220       -9.8536  -23.6415  -51.1512 H         1 UNK         0.3000 
    221 H221      -10.1759  -23.3442  -53.3266 H         1 UNK         0.0600 
    222 H222       -8.0782  -25.5699  -53.6139 H         1 UNK         0.0600 
    223 H223       -9.8020  -25.7896  -53.3554 H         1 UNK         0.0600 
    224 H224       -9.2344  -25.0789  -54.8534 H         1 UNK         0.0600 
    225 H225       -7.2391  -24.0885  -54.7978 H         1 UNK         0.3000 
    226 H226       -6.7087  -21.3355  -55.5785 H         1 UNK         0.0600 
    227 H227       -6.6221  -23.1953  -57.2201 H         1 UNK         0.0600 
    228 H228       -5.0598  -22.4064  -57.0917 H         1 UNK         0.0600 
    229 H229       -5.3196  -23.9635  -56.3124 H         1 UNK         0.0600 
    230 H230       -6.4118  -21.2437  -52.9564 H         1 UNK         0.3000 
    231 H231       -3.6364  -21.5821  -52.0801 H         1 UNK         0.0600 
    232 H232       -4.5161  -20.5040  -49.9958 H         1 UNK         0.0600 
    233 H233       -5.5083  -21.8701  -50.4892 H         1 UNK         0.0600 
    234 H234       -6.0621  -20.2224  -50.7861 H         1 UNK         0.0600 
    235 H235       -5.3881  -19.1797  -53.8136 H         1 UNK         0.3000 
    236 H236       -3.9739  -16.8120  -52.9993 H         1 UNK         0.0600 
    237 H237       -6.2445  -16.7567  -54.0324 H         1 UNK         0.0600 
    238 H238       -5.1106  -15.8313  -55.0010 H         1 UNK         0.0600 
    239 H239       -5.6025  -17.4365  -55.5280 H         1 UNK         0.0600 
    240 H240       -2.4495  -15.5993  -54.2077 H         1 UNK         0.3000 
    241 H241       -0.3499  -17.1763  -55.3834 H         1 UNK         0.0600 
    242 H242       -2.3437  -15.7411  -58.5716 H         1 UNK         0.3800 
    243 H243       -3.0785  -15.8347  -56.9927 H         1 UNK         0.3800 
    244 H244        0.9405  -15.0553  -55.4167 H         1 UNK         0.0800 
    245 H245       -0.4974  -14.1481  -55.0323 H         1 UNK         0.0800 
    246 H246        2.6866  -15.3957  -53.4047 H         1 UNK         0.0800 
    247 H247        1.9572  -16.9031  -53.9141 H         1 UNK         0.0800 
@<TRIPOS>BOND
     1    1    2 1    
     2    1  127 1    
     3    1  128 1    
     4    1  129 1    
     5    2    3 2    
     6    2    4 am   BACKBONE|DICT|INTERRES
     7    4    5 1    
     8    4  130 1    
     9    5    6 1    
    10    5   65 1    
    11    5  131 1    
    12    6    7 1    
    13    6  132 1    
    14    6  133 1    
    15    7    8 1    
    16    8    9 1    
    17    8  134 1    
    18    8  135 1    
    19    9   10 ar   
    20    9   14 ar   
    21   10   11 ar   
    22   10  136 1    
    23   11   12 ar   
    24   11  126 1    
    25   12   13 ar   
    26   12  137 1    
    27   13   14 ar   
    28   13   15 1    
    29   14  138 1    
    30   15   16 1    
    31   15  139 1    
    32   15  140 1    
    33   16   17 1    
    34   17   18 1    
    35   17  141 1    
    36   17  142 1    
    37   18   19 1    
    38   18   67 1    
    39   18  143 1    
    40   19   20 am   BACKBONE|DICT|INTERRES
    41   19  144 1    
    42   20   21 2    
    43   20   22 1    
    44   22   23 1    
    45   22   24 1    
    46   22  145 1    
    47   23  146 1    
    48   23  147 1    
    49   23  148 1    
    50   24   25 am   BACKBONE|DICT|INTERRES
    51   24  149 1    
    52   25   26 2    
    53   25   27 1    
    54   27   28 1    
    55   27   29 1    
    56   27  150 1    
    57   28  151 1    
    58   28  152 1    
    59   28  153 1    
    60   29   30 am   BACKBONE|DICT|INTERRES
    61   29  154 1    
    62   30   31 2    
    63   30   32 1    
    64   32   33 1    
    65   32   34 1    
    66   32  155 1    
    67   33  156 1    
    68   33  157 1    
    69   33  158 1    
    70   34   35 am   BACKBONE|DICT|INTERRES
    71   34  159 1    
    72   35   36 2    
    73   35   37 1    
    74   37   38 1    
    75   37   39 1    
    76   37  160 1    
    77   38  161 1    
    78   38  162 1    
    79   38  163 1    
    80   39   40 am   BACKBONE|DICT|INTERRES
    81   39  164 1    
    82   40   41 2    
    83   40   42 1    
    84   42   43 1    
    85   42   44 1    
    86   42  165 1    
    87   43  166 1    
    88   43  167 1    
    89   43  168 1    
    90   44   45 am   BACKBONE|DICT|INTERRES
    91   44  169 1    
    92   45   46 2    
    93   45   47 1    
    94   47   48 1    
    95   47   49 1    
    96   47  170 1    
    97   48  171 1    
    98   48  172 1    
    99   48  173 1    
   100   49   50 am   BACKBONE|DICT|INTERRES
   101   49  174 1    
   102   50   51 2    
   103   50   52 1    
   104   52   53 1    
   105   52   54 1    
   106   52  175 1    
   107   53  176 1    
   108   53  177 1    
   109   53  178 1    
   110   54   55 am   BACKBONE|DICT|INTERRES
   111   54  179 1    
   112   55   56 2    
   113   55   57 1    
   114   57   58 1    
   115   57   59 1    
   116   57  180 1    
   117   58  181 1    
   118   58  182 1    
   119   58  183 1    
   120   59   60 am   BACKBONE|DICT|INTERRES
   121   59  184 1    
   122   60   61 2    
   123   60   62 1    
   124   62   63 1    
   125   62   64 1    
   126   62  185 1    
   127   63  186 1    
   128   63  187 1    
   129   63  188 1    
   130   64   65 am   BACKBONE|DICT|INTERRES
   131   64  189 1    
   132   65   66 2    
   133   67   68 2    
   134   67   69 am   BACKBONE|DICT|INTERRES
   135   69   70 1    
   136   69  190 1    
   137   70   71 1    
   138   70   72 1    
   139   70  191 1    
   140   71  192 1    
   141   71  193 1    
   142   71  194 1    
   143   72   73 2    
   144   72   74 am   BACKBONE|DICT|INTERRES
   145   74   75 1    
   146   74  195 1    
   147   75   76 1    
   148   75   77 1    
   149   75  196 1    
   150   76  197 1    
   151   76  198 1    
   152   76  199 1    
   153   77   78 2    
   154   77   79 am   BACKBONE|DICT|INTERRES
   155   79   80 1    
   156   79  200 1    
   157   80   81 1    
   158   80   82 1    
   159   80  201 1    
   160   81  202 1    
   161   81  203 1    
   162   81  204 1    
   163   82   83 2    
   164   82   84 am   BACKBONE|DICT|INTERRES
   165   84   85 1    
   166   84  205 1    
   167   85   86 1    
   168   85   87 1    
   169   85  206 1    
   170   86  207 1    
   171   86  208 1    
   172   86  209 1    
   173   87   88 2    
   174   87   89 am   BACKBONE|DICT|INTERRES
   175   89   90 1    
   176   89  210 1    
   177   90   91 1    
   178   90   92 1    
   179   90  211 1    
   180   91  212 1    
   181   91  213 1    
   182   91  214 1    
   183   92   93 2    
   184   92   94 am   BACKBONE|DICT|INTERRES
   185   94   95 1    
   186   94  215 1    
   187   95   96 1    
   188   95   97 1    
   189   95  216 1    
   190   96  217 1    
   191   96  218 1    
   192   96  219 1    
   193   97   98 2    
   194   97   99 am   BACKBONE|DICT|INTERRES
   195   99  100 1    
   196   99  220 1    
   197  100  101 1    
   198  100  102 1    
   199  100  221 1    
   200  101  222 1    
   201  101  223 1    
   202  101  224 1    
   203  102  103 2    
   204  102  104 am   BACKBONE|DICT|INTERRES
   205  104  105 1    
   206  104  225 1    
   207  105  106 1    
   208  105  107 1    
   209  105  226 1    
   210  106  227 1    
   211  106  228 1    
   212  106  229 1    
   213  107  108 2    
   214  107  109 am   BACKBONE|DICT|INTERRES
   215  109  110 1    
   216  109  230 1    
   217  110  111 1    
   218  110  112 1    
   219  110  231 1    
   220  111  232 1    
   221  111  233 1    
   222  111  234 1    
   223  112  113 2    
   224  112  114 am   BACKBONE|DICT|INTERRES
   225  114  115 1    
   226  114  235 1    
   227  115  116 1    
   228  115  117 1    
   229  115  236 1    
   230  116  237 1    
   231  116  238 1    
   232  116  239 1    
   233  117  118 2    
   234  117  119 am   BACKBONE|DICT|INTERRES
   235  119  120 1    
   236  119  240 1    
   237  120  121 1    
   238  120  124 1    
   239  120  241 1    
   240  121  122 am   BACKBONE|DICT|INTERRES
   241  121  123 2    
   242  122  242 1    
   243  122  243 1    
   244  124  125 1    
   245  124  244 1    
   246  124  245 1    
   247  125  126 1    
   248  126  246 1    
   249  126  247 1    
@<TRIPOS>SUBSTRUCTURE
     1 UNK         1 GROUP             0       ****    0 ROOT    
