@<TRIPOS>MOLECULE
3R540
247   249    1
SMALL
USER_CHARGES


@<TRIPOS>ATOM
      1 CA         -5.8249  -12.7809  -48.2507 C.3       0 UNK        -0.1800 
      2 C          -4.7052  -13.0256  -49.2524 C.2       0 UNK         0.5000 
      3 O          -3.9156  -12.1206  -49.5224 O.2       0 UNK        -0.5000 
      4 N          -4.6398  -14.2417  -49.8088 N.am      1 UNK        -0.5000 
      5 CA         -3.6014  -14.6807  -50.7494 C.3       1 UNK         0.1400 
      6 C6         -4.0423  -15.9423  -51.5354 C.3       23 UNK        -0.0398 
      7 S7         -4.4342  -17.3882  -50.4798 S.3       23 UNK        -0.2404 
      8 C8         -3.4503  -18.7184  -51.2390 C.3       23 UNK        -0.0205 
      9 C9         -1.9479  -18.5354  -51.0655 C.ar      23 UNK        -0.0193 
     10 C10        -1.1767  -18.0270  -52.1129 C.ar      23 UNK        -0.1150 
     11 C11         0.2113  -17.9255  -51.9946 C.ar      23 UNK        -0.0193 
     12 C12         0.8336  -18.3435  -50.8153 C.ar      23 UNK        -0.1150 
     13 C13         0.0752  -18.8439  -49.7530 C.ar      23 UNK        -0.0193 
     14 C14        -1.3161  -18.9239  -49.8805 C.ar      23 UNK        -0.1150 
     15 C15         0.7578  -19.2764  -48.4638 C.3       23 UNK        -0.0205 
     16 S16         0.8305  -21.0884  -48.2890 S.3       23 UNK        -0.2404 
     17 C17         1.2406  -21.2230  -46.5112 C.3       23 UNK        -0.0398 
     18 CA          1.2418  -22.6454  -45.8818 C.3       11 UNK         0.1400 
     19 N           1.2902  -22.5398  -44.4177 N.am      11 UNK        -0.5000 
     20 C           1.2395  -23.5518  -43.5385 C.2       10 UNK         0.5000 
     21 O           1.3250  -24.7413  -43.8512 O.2       10 UNK        -0.5000 
     22 CA          1.0446  -23.1451  -42.0651 C.3       10 UNK         0.1400 
     23 CB          0.9709  -24.3456  -41.0975 C.3       10 UNK        -0.1800 
     24 N           2.0338  -22.1639  -41.6181 N.am      10 UNK        -0.5000 
     25 C           3.3600  -22.3305  -41.5034 C.2       9 UNK         0.5000 
     26 O           3.9434  -23.3819  -41.7708 O.2       9 UNK        -0.5000 
     27 CA          4.1890  -21.1271  -41.0037 C.3       9 UNK         0.1400 
     28 CB          5.1911  -20.6788  -42.0796 C.3       9 UNK        -0.1800 
     29 N           3.3787  -19.9751  -40.5974 N.am      9 UNK        -0.5000 
     30 C           2.6714  -19.8859  -39.4626 C.2       8 UNK         0.5000 
     31 O           2.6746  -20.7514  -38.5869 O.2       8 UNK        -0.5000 
     32 CA          1.7763  -18.6412  -39.2972 C.3       8 UNK         0.1400 
     33 CB          2.5642  -17.4894  -38.6556 C.3       8 UNK        -0.1800 
     34 N           1.1776  -18.1850  -40.5560 N.am      8 UNK        -0.5000 
     35 C           0.2996  -18.8907  -41.2857 C.2       7 UNK         0.5000 
     36 O          -0.1232  -19.9999  -40.9598 O.2       7 UNK        -0.5000 
     37 CA         -0.1227  -18.2917  -42.6409 C.3       7 UNK         0.1400 
     38 CB         -1.1671  -17.1801  -42.4638 C.3       7 UNK        -0.1800 
     39 N           1.0214  -17.7741  -43.3879 N.am      7 UNK        -0.5000 
     40 C           2.0329  -18.5254  -43.8421 C.2       6 UNK         0.5000 
     41 O           2.0594  -19.7540  -43.7638 O.2       6 UNK        -0.5000 
     42 CA          3.2306  -17.7732  -44.4459 C.3       6 UNK         0.1400 
     43 CB          2.9840  -17.4452  -45.9247 C.3       6 UNK        -0.1800 
     44 N           3.5323  -16.5441  -43.7104 N.am      6 UNK        -0.5000 
     45 C           4.0849  -16.5138  -42.4894 C.2       5 UNK         0.5000 
     46 O           4.4091  -17.5217  -41.8648 O.2       5 UNK        -0.5000 
     47 CA          4.2805  -15.1300  -41.8436 C.3       5 UNK         0.1400 
     48 CB          5.6001  -14.4983  -42.3106 C.3       5 UNK        -0.1800 
     49 N           3.1777  -14.2125  -42.1283 N.am      5 UNK        -0.5000 
     50 C           1.9270  -14.3643  -41.6709 C.2       4 UNK         0.5000 
     51 O           1.5764  -15.2787  -40.9252 O.2       4 UNK        -0.5000 
     52 CA          0.8818  -13.3577  -42.1898 C.3       4 UNK         0.1400 
     53 CB          0.8869  -12.0817  -41.3352 C.3       4 UNK        -0.1800 
     54 N           1.0703  -13.0029  -43.6019 N.am      4 UNK        -0.5000 
     55 C           1.0371  -13.8862  -44.6078 C.2       3 UNK         0.5000 
     56 O           0.8725  -15.0977  -44.4406 O.2       3 UNK        -0.5000 
     57 CA          1.2888  -13.3444  -46.0268 C.3       3 UNK         0.1400 
     58 CB          2.7983  -13.2438  -46.2965 C.3       3 UNK        -0.1800 
     59 N           0.6951  -14.2485  -47.0096 N.am      3 UNK        -0.5000 
     60 C          -0.6147  -14.3037  -47.2714 C.2       2 UNK         0.5000 
     61 O          -1.4268  -13.4458  -46.9147 O.2       2 UNK        -0.5000 
     62 CA         -1.1006  -15.5833  -47.9664 C.3       2 UNK         0.1400 
     63 CB         -1.4938  -16.6235  -46.9060 C.3       2 UNK        -0.1800 
     64 N          -2.2663  -15.3234  -48.7993 N.am      2 UNK        -0.5000 
     65 C          -2.2322  -14.8771  -50.0603 C.2       1 UNK         0.5000 
     66 O          -1.1948  -14.6181  -50.6717 O.2       1 UNK        -0.5000 
     67 C           0.0339  -23.5047  -46.3276 C.2       11 UNK         0.5000 
     68 O          -1.0928  -23.2330  -45.9072 O.2       11 UNK        -0.5000 
     69 N           0.2858  -24.5200  -47.1659 N.am      12 UNK        -0.5000 
     70 CA         -0.7203  -25.4794  -47.6313 C.3       12 UNK         0.1400 
     71 CB         -0.0341  -26.5846  -48.4476 C.3       12 UNK        -0.1800 
     72 C          -1.8530  -24.8283  -48.4439 C.2       12 UNK         0.5000 
     73 O          -3.0137  -25.2008  -48.2780 O.2       12 UNK        -0.5000 
     74 N          -1.5006  -23.8332  -49.2679 N.am      13 UNK        -0.5000 
     75 CA         -2.4463  -23.0262  -50.0374 C.3       13 UNK         0.1400 
     76 CB         -1.6716  -22.2147  -51.0864 C.3       13 UNK        -0.1800 
     77 C          -3.3171  -22.1245  -49.1400 C.2       13 UNK         0.5000 
     78 O          -4.4954  -21.9326  -49.4379 O.2       13 UNK        -0.5000 
     79 N          -2.7470  -21.6300  -48.0302 N.am      14 UNK        -0.5000 
     80 CA         -3.4585  -20.8449  -47.0185 C.3       14 UNK         0.1400 
     81 CB         -2.4549  -20.1522  -46.0823 C.3       14 UNK        -0.1800 
     82 C          -4.4312  -21.7161  -46.2082 C.2       14 UNK         0.5000 
     83 O          -5.5586  -21.2927  -45.9559 O.2       14 UNK        -0.5000 
     84 N          -3.9828  -22.9261  -45.8441 N.am      15 UNK        -0.5000 
     85 CA         -4.7727  -23.9388  -45.1438 C.3       15 UNK         0.1400 
     86 CB         -3.8535  -25.0903  -44.7082 C.3       15 UNK        -0.1800 
     87 C          -5.9500  -24.4592  -45.9897 C.2       15 UNK         0.5000 
     88 O          -7.0512  -24.6219  -45.4626 O.2       15 UNK        -0.5000 
     89 N          -5.7057  -24.6803  -47.2892 N.am      16 UNK        -0.5000 
     90 CA         -6.7251  -25.0456  -48.2745 C.3       16 UNK         0.1400 
     91 CB         -6.0318  -25.5582  -49.5468 C.3       16 UNK        -0.1800 
     92 C          -7.6714  -23.8812  -48.6259 C.2       16 UNK         0.5000 
     93 O          -8.8161  -24.1324  -49.0040 O.2       16 UNK        -0.5000 
     94 N          -7.1645  -22.6435  -48.5145 N.am      17 UNK        -0.5000 
     95 CA         -7.7739  -21.3784  -48.9359 C.3       17 UNK         0.1400 
     96 CB         -9.0134  -21.0478  -48.0793 C.3       17 UNK        -0.1800 
     97 C          -8.0500  -21.3715  -50.4535 C.2       17 UNK         0.5000 
     98 O          -9.1543  -21.0399  -50.8902 O.2       17 UNK        -0.5000 
     99 N          -7.0411  -21.7891  -51.2254 N.am      18 UNK        -0.5000 
    100 CA        -7.1126  -22.0362  -52.6615 C.3       18 UNK         0.1400 
    101 CB        -7.7518  -23.4188  -52.9047 C.3       18 UNK        -0.1800 
    102 C         -5.7037  -21.9503  -53.2690 C.2       18 UNK         0.5000 
    103 O         -4.7381  -21.7122  -52.5436 O.2       18 UNK        -0.5000 
    104 N         -5.6124  -22.1560  -54.5912 N.am      19 UNK        -0.5000 
    105 CA        -4.3791  -22.1864  -55.3908 C.3       19 UNK         0.1400 
    106 CB        -3.4740  -23.3632  -54.9659 C.3       19 UNK        -0.1800 
    107 C         -3.6307  -20.8364  -55.4210 C.2       19 UNK         0.5000 
    108 O         -2.4016  -20.8070  -55.5071 O.2       19 UNK        -0.5000 
    109 N         -4.3892  -19.7322  -55.3880 N.am      20 UNK        -0.5000 
    110 CA        -3.9044  -18.3493  -55.3944 C.3       20 UNK         0.1400 
    111 CB        -5.0001  -17.4432  -54.8035 C.3       20 UNK        -0.1800 
    112 C         -3.4208  -17.8734  -56.7843 C.2       20 UNK         0.5000 
    113 O         -3.7957  -16.7891  -57.2338 O.2       20 UNK        -0.5000 
    114 N         -2.6024  -18.6979  -57.4492 N.am      21 UNK        -0.5000 
    115 CA        -1.9312  -18.3760  -58.7092 C.3       21 UNK         0.1400 
    116 CB        -1.4959  -19.6796  -59.3960 C.3       21 UNK        -0.1800 
    117 C         -0.7243  -17.4470  -58.4825 C.2       21 UNK         0.5000 
    118 O         -0.4612  -16.5700  -59.3065 O.2       21 UNK        -0.5000 
    119 N         -0.0277  -17.6524  -57.3589 N.am      22 UNK        -0.5000 
    120 CA         1.0212  -16.7732  -56.8297 C.3       22 UNK         0.1400 
    121 C          0.4533  -15.4515  -56.2378 C.2       22 UNK         0.5000 
    122 N          1.2513  -14.3928  -56.2013 N.am      22 UNK        -0.7600 
    123 O         -0.6859  -15.3806  -55.7816 O.2       22 UNK        -0.5000 
    124 C124        1.9345  -17.5193  -55.8171 C.3       23 UNK        -0.0398 
    125 S125        1.0444  -18.5056  -54.5595 S.3       23 UNK        -0.2404 
    126 C126        1.0277  -17.3612  -53.1459 C.3       23 UNK        -0.0205 
    127 H127       -6.4566  -11.9586  -48.5868 H         1 UNK         0.0600 
    128 H128       -5.4067  -12.5166  -47.2794 H         1 UNK         0.0600 
    129 H129       -6.4539  -13.6622  -48.1217 H         1 UNK         0.0600 
    130 H130       -5.3221  -14.9438  -49.5586 H         1 UNK         0.3000 
    131 H131       -3.4673  -13.8811  -51.4814 H         1 UNK         0.0600 
    132 H132       -3.2868  -16.2053  -52.2751 H         1 UNK         0.0800 
    133 H133       -4.9370  -15.7080  -52.1136 H         1 UNK         0.0800 
    134 H134       -3.7057  -18.8082  -52.2952 H         1 UNK         0.0800 
    135 H135       -3.7510  -19.6631  -50.7864 H         1 UNK         0.0800 
    136 H136       -1.6482  -17.7211  -53.0342 H         1 UNK         0.1150 
    137 H137        1.9083  -18.2743  -50.7228 H         1 UNK         0.1150 
    138 H138       -1.9083  -19.3090  -49.0655 H         1 UNK         0.1150 
    139 H139        1.7744  -18.8847  -48.4323 H         1 UNK         0.0800 
    140 H140        0.2363  -18.8372  -47.6154 H         1 UNK         0.0800 
    141 H141        0.5307  -20.5941  -45.9722 H         1 UNK         0.0800 
    142 H142        2.2182  -20.7651  -46.3568 H         1 UNK         0.0800 
    143 H143        2.1550  -23.1536  -46.1967 H         1 UNK         0.0600 
    144 H144        1.3123  -21.5936  -44.0507 H         1 UNK         0.3000 
    145 H145        0.0791  -22.6390  -42.0197 H         1 UNK         0.0600 
    146 H146        0.8019  -24.0147  -40.0728 H         1 UNK         0.0600 
    147 H147        0.1470  -25.0085  -41.3643 H         1 UNK         0.0600 
    148 H148        1.8841  -24.9408  -41.1118 H         1 UNK         0.0600 
    149 H149        1.6571  -21.2517  -41.3926 H         1 UNK         0.3000 
    150 H150        4.7573  -21.4682  -40.1361 H         1 UNK         0.0600 
    151 H151        5.8489  -21.4982  -42.3717 H         1 UNK         0.0600 
    152 H152        5.8261  -19.8708  -41.7162 H         1 UNK         0.0600 
    153 H153        4.6832  -20.3306  -42.9788 H         1 UNK         0.0600 
    154 H154        3.3826  -19.1815  -41.2288 H         1 UNK         0.3000 
    155 H155        0.9613  -18.9105  -38.6222 H         1 UNK         0.0600 
    156 H156        3.0007  -17.7960  -37.7043 H         1 UNK         0.0600 
    157 H157        1.9191  -16.6336  -38.4562 H         1 UNK         0.0600 
    158 H158        3.3783  -17.1525  -39.2975 H         1 UNK         0.0600 
    159 H159        1.4426  -17.2566  -40.8717 H         1 UNK         0.3000 
    160 H160       -0.5753  -19.0898  -43.2336 H         1 UNK         0.0600 
    161 H161       -0.7725  -16.3423  -41.8889 H         1 UNK         0.0600 
    162 H162       -2.0485  -17.5528  -41.9408 H         1 UNK         0.0600 
    163 H163       -1.4979  -16.7951  -43.4288 H         1 UNK         0.0600 
    164 H164        1.0461  -16.7716  -43.5558 H         1 UNK         0.3000 
    165 H165        4.1030  -18.4270  -44.3883 H         1 UNK         0.0600 
    166 H166        3.8098  -16.8732  -46.3477 H         1 UNK         0.0600 
    167 H167        2.8989  -18.3632  -46.5040 H         1 UNK         0.0600 
    168 H168        2.0668  -16.8747  -46.0708 H         1 UNK         0.0600 
    169 H169        3.2296  -15.6774  -44.1281 H         1 UNK         0.3000 
    170 H170        4.3339  -15.2718  -40.7621 H         1 UNK         0.0600 
    171 H171        5.7867  -13.5528  -41.8009 H         1 UNK         0.0600 
    172 H172        6.4443  -15.1546  -42.0946 H         1 UNK         0.0600 
    173 H173        5.5992  -14.3070  -43.3845 H         1 UNK         0.0600 
    174 H174        3.3759  -13.4330  -42.7378 H         1 UNK         0.3000 
    175 H175       -0.0995  -13.8273  -42.0948 H         1 UNK         0.0600 
    176 H176        0.7316  -12.3174  -40.2814 H         1 UNK         0.0600 
    177 H177        1.8331  -11.5452  -41.4157 H         1 UNK         0.0600 
    178 H178        0.0887  -11.4026  -41.6355 H         1 UNK         0.0600 
    179 H179        1.2213  -12.0255  -43.8067 H         1 UNK         0.3000 
    180 H180        0.8403  -12.3530  -46.1196 H         1 UNK         0.0600 
    181 H181        3.2779  -12.5582  -45.5967 H         1 UNK         0.0600 
    182 H182        3.2934  -14.2110  -46.2003 H         1 UNK         0.0600 
    183 H183        2.9933  -12.8676  -47.3010 H         1 UNK         0.0600 
    184 H184        1.2798  -15.0128  -47.3114 H         1 UNK         0.3000 
    185 H185       -0.3002  -15.9932  -48.5867 H         1 UNK         0.0600 
    186 H186       -0.6302  -16.9333  -46.3159 H         1 UNK         0.0600 
    187 H187       -2.2378  -16.2312  -46.2112 H         1 UNK         0.0600 
    188 H188       -1.9168  -17.5104  -47.3731 H         1 UNK         0.0600 
    189 H189       -3.1672  -15.4564  -48.3659 H         1 UNK         0.3000 
    190 H190        1.2354  -24.6846  -47.4670 H         1 UNK         0.3000 
    191 H191       -1.1715  -25.9387  -46.7493 H         1 UNK         0.0600 
    192 H192        0.4691  -26.1831  -49.3280 H         1 UNK         0.0600 
    193 H193       -0.7599  -27.3226  -48.7920 H         1 UNK         0.0600 
    194 H194        0.7068  -27.1148  -47.8490 H         1 UNK         0.0600 
    195 H195       -0.5258  -23.5780  -49.3302 H         1 UNK         0.3000 
    196 H196       -3.1210  -23.7007  -50.5689 H         1 UNK         0.0600 
    197 H197       -1.1968  -22.8705  -51.8160 H         1 UNK         0.0600 
    198 H198       -0.8925  -21.6035  -50.6342 H         1 UNK         0.0600 
    199 H199       -2.3292  -21.5447  -51.6388 H         1 UNK         0.0600 
    200 H200       -1.7898  -21.8776  -47.8249 H         1 UNK         0.3000 
    201 H201       -4.0336  -20.0722  -47.5339 H         1 UNK         0.0600 
    202 H202       -2.9546  -19.4035  -45.4668 H         1 UNK         0.0600 
    203 H203       -1.9693  -20.8537  -45.4044 H         1 UNK         0.0600 
    204 H204       -1.6745  -19.6458  -46.6428 H         1 UNK         0.0600 
    205 H205       -3.0133  -23.1588  -46.0414 H         1 UNK         0.3000 
    206 H206       -5.1864  -23.4758  -44.2457 H         1 UNK         0.0600 
    207 H207       -3.0453  -24.7304  -44.0709 H         1 UNK         0.0600 
    208 H208       -4.4081  -25.8390  -44.1415 H         1 UNK         0.0600 
    209 H209       -3.4037  -25.5933  -45.5643 H         1 UNK         0.0600 
    210 H210       -4.7509  -24.6055  -47.6288 H         1 UNK         0.3000 
    211 H211       -7.3295  -25.8563  -47.8623 H         1 UNK         0.0600 
    212 H212       -6.7635  -25.8675  -50.2942 H         1 UNK         0.0600 
    213 H213       -5.4007  -26.4209  -49.3324 H         1 UNK         0.0600 
    214 H214       -5.4051  -24.7887  -49.9997 H         1 UNK         0.0600 
    215 H215       -6.1898  -22.5687  -48.2521 H         1 UNK         0.3000 
    216 H216       -7.0285  -20.6028  -48.7530 H         1 UNK         0.0600 
    217 H217       -9.3961  -20.0548  -48.3170 H         1 UNK         0.0600 
    218 H218       -8.7683  -21.0561  -47.0171 H         1 UNK         0.0600 
    219 H219       -9.8242  -21.7580  -48.2425 H         1 UNK         0.0600 
    220 H220       -6.1280  -21.9551  -50.8087 H         1 UNK         0.3000 
    221 H221       -7.7224  -21.2615  -53.1306 H         1 UNK         0.0600 
    222 H222       -7.1449  -24.2183  -52.4775 H         1 UNK         0.0600 
    223 H223       -8.7440  -23.4821  -52.4574 H         1 UNK         0.0600 
    224 H224       -7.8696  -23.6261  -53.9685 H         1 UNK         0.0600 
    225 H225       -6.4634  -22.3347  -55.1062 H         1 UNK         0.3000 
    226 H226       -4.6912  -22.3741  -56.4191 H         1 UNK         0.0600 
    227 H227       -4.0265  -24.3027  -54.9559 H         1 UNK         0.0600 
    228 H228       -2.6408  -23.4856  -55.6588 H         1 UNK         0.0600 
    229 H229       -3.0502  -23.2122  -53.9725 H         1 UNK         0.0600 
    230 H230       -5.3908  -19.8511  -55.3551 H         1 UNK         0.3000 
    231 H231       -3.0388  -18.2926  -54.7337 H         1 UNK         0.0600 
    232 H232       -5.3024  -17.7786  -53.8115 H         1 UNK         0.0600 
    233 H233       -5.8894  -17.4259  -55.4347 H         1 UNK         0.0600 
    234 H234       -4.6472  -16.4161  -54.7034 H         1 UNK         0.0600 
    235 H235       -2.3470  -19.5686  -56.9928 H         1 UNK         0.3000 
    236 H236       -2.6361  -17.8619  -59.3661 H         1 UNK         0.0600 
    237 H237       -1.0009  -19.4733  -60.3459 H         1 UNK         0.0600 
    238 H238       -2.3538  -20.3178  -59.6085 H         1 UNK         0.0600 
    239 H239       -0.7995  -20.2485  -58.7786 H         1 UNK         0.0600 
    240 H240       -0.3360  -18.3767  -56.7269 H         1 UNK         0.3000 
    241 H241        1.6498  -16.4860  -57.6752 H         1 UNK         0.0600 
    242 H242        0.9005  -13.5319  -55.8108 H         1 UNK         0.3800 
    243 H243        2.1907  -14.4204  -56.5673 H         1 UNK         0.3800 
    244 H244        2.5665  -18.2158  -56.3694 H         1 UNK         0.0800 
    245 H245        2.6286  -16.8333  -55.3282 H         1 UNK         0.0800 
    246 H246        0.5983  -16.4048  -53.4462 H         1 UNK         0.0800 
    247 H247        2.0527  -17.1586  -52.8319 H         1 UNK         0.0800 
@<TRIPOS>BOND
     1    1    2 1    
     2    1  127 1    
     3    1  128 1    
     4    1  129 1    
     5    2    3 2    
     6    2    4 am   BACKBONE|DICT|INTERRES
     7    4    5 1    
     8    4  130 1    
     9    5    6 1    
    10    5   65 1    
    11    5  131 1    
    12    6    7 1    
    13    6  132 1    
    14    6  133 1    
    15    7    8 1    
    16    8    9 1    
    17    8  134 1    
    18    8  135 1    
    19    9   10 ar   
    20    9   14 ar   
    21   10   11 ar   
    22   10  136 1    
    23   11   12 ar   
    24   11  126 1    
    25   12   13 ar   
    26   12  137 1    
    27   13   14 ar   
    28   13   15 1    
    29   14  138 1    
    30   15   16 1    
    31   15  139 1    
    32   15  140 1    
    33   16   17 1    
    34   17   18 1    
    35   17  141 1    
    36   17  142 1    
    37   18   19 1    
    38   18   67 1    
    39   18  143 1    
    40   19   20 am   BACKBONE|DICT|INTERRES
    41   19  144 1    
    42   20   21 2    
    43   20   22 1    
    44   22   23 1    
    45   22   24 1    
    46   22  145 1    
    47   23  146 1    
    48   23  147 1    
    49   23  148 1    
    50   24   25 am   BACKBONE|DICT|INTERRES
    51   24  149 1    
    52   25   26 2    
    53   25   27 1    
    54   27   28 1    
    55   27   29 1    
    56   27  150 1    
    57   28  151 1    
    58   28  152 1    
    59   28  153 1    
    60   29   30 am   BACKBONE|DICT|INTERRES
    61   29  154 1    
    62   30   31 2    
    63   30   32 1    
    64   32   33 1    
    65   32   34 1    
    66   32  155 1    
    67   33  156 1    
    68   33  157 1    
    69   33  158 1    
    70   34   35 am   BACKBONE|DICT|INTERRES
    71   34  159 1    
    72   35   36 2    
    73   35   37 1    
    74   37   38 1    
    75   37   39 1    
    76   37  160 1    
    77   38  161 1    
    78   38  162 1    
    79   38  163 1    
    80   39   40 am   BACKBONE|DICT|INTERRES
    81   39  164 1    
    82   40   41 2    
    83   40   42 1    
    84   42   43 1    
    85   42   44 1    
    86   42  165 1    
    87   43  166 1    
    88   43  167 1    
    89   43  168 1    
    90   44   45 am   BACKBONE|DICT|INTERRES
    91   44  169 1    
    92   45   46 2    
    93   45   47 1    
    94   47   48 1    
    95   47   49 1    
    96   47  170 1    
    97   48  171 1    
    98   48  172 1    
    99   48  173 1    
   100   49   50 am   BACKBONE|DICT|INTERRES
   101   49  174 1    
   102   50   51 2    
   103   50   52 1    
   104   52   53 1    
   105   52   54 1    
   106   52  175 1    
   107   53  176 1    
   108   53  177 1    
   109   53  178 1    
   110   54   55 am   BACKBONE|DICT|INTERRES
   111   54  179 1    
   112   55   56 2    
   113   55   57 1    
   114   57   58 1    
   115   57   59 1    
   116   57  180 1    
   117   58  181 1    
   118   58  182 1    
   119   58  183 1    
   120   59   60 am   BACKBONE|DICT|INTERRES
   121   59  184 1    
   122   60   61 2    
   123   60   62 1    
   124   62   63 1    
   125   62   64 1    
   126   62  185 1    
   127   63  186 1    
   128   63  187 1    
   129   63  188 1    
   130   64   65 am   BACKBONE|DICT|INTERRES
   131   64  189 1    
   132   65   66 2    
   133   67   68 2    
   134   67   69 am   BACKBONE|DICT|INTERRES
   135   69   70 1    
   136   69  190 1    
   137   70   71 1    
   138   70   72 1    
   139   70  191 1    
   140   71  192 1    
   141   71  193 1    
   142   71  194 1    
   143   72   73 2    
   144   72   74 am   BACKBONE|DICT|INTERRES
   145   74   75 1    
   146   74  195 1    
   147   75   76 1    
   148   75   77 1    
   149   75  196 1    
   150   76  197 1    
   151   76  198 1    
   152   76  199 1    
   153   77   78 2    
   154   77   79 am   BACKBONE|DICT|INTERRES
   155   79   80 1    
   156   79  200 1    
   157   80   81 1    
   158   80   82 1    
   159   80  201 1    
   160   81  202 1    
   161   81  203 1    
   162   81  204 1    
   163   82   83 2    
   164   82   84 am   BACKBONE|DICT|INTERRES
   165   84   85 1    
   166   84  205 1    
   167   85   86 1    
   168   85   87 1    
   169   85  206 1    
   170   86  207 1    
   171   86  208 1    
   172   86  209 1    
   173   87   88 2    
   174   87   89 am   BACKBONE|DICT|INTERRES
   175   89   90 1    
   176   89  210 1    
   177   90   91 1    
   178   90   92 1    
   179   90  211 1    
   180   91  212 1    
   181   91  213 1    
   182   91  214 1    
   183   92   93 2    
   184   92   94 am   BACKBONE|DICT|INTERRES
   185   94   95 1    
   186   94  215 1    
   187   95   96 1    
   188   95   97 1    
   189   95  216 1    
   190   96  217 1    
   191   96  218 1    
   192   96  219 1    
   193   97   98 2    
   194   97   99 am   BACKBONE|DICT|INTERRES
   195   99  100 1    
   196   99  220 1    
   197  100  101 1    
   198  100  102 1    
   199  100  221 1    
   200  101  222 1    
   201  101  223 1    
   202  101  224 1    
   203  102  103 2    
   204  102  104 am   BACKBONE|DICT|INTERRES
   205  104  105 1    
   206  104  225 1    
   207  105  106 1    
   208  105  107 1    
   209  105  226 1    
   210  106  227 1    
   211  106  228 1    
   212  106  229 1    
   213  107  108 2    
   214  107  109 am   BACKBONE|DICT|INTERRES
   215  109  110 1    
   216  109  230 1    
   217  110  111 1    
   218  110  112 1    
   219  110  231 1    
   220  111  232 1    
   221  111  233 1    
   222  111  234 1    
   223  112  113 2    
   224  112  114 am   BACKBONE|DICT|INTERRES
   225  114  115 1    
   226  114  235 1    
   227  115  116 1    
   228  115  117 1    
   229  115  236 1    
   230  116  237 1    
   231  116  238 1    
   232  116  239 1    
   233  117  118 2    
   234  117  119 am   BACKBONE|DICT|INTERRES
   235  119  120 1    
   236  119  240 1    
   237  120  121 1    
   238  120  124 1    
   239  120  241 1    
   240  121  122 am   BACKBONE|DICT|INTERRES
   241  121  123 2    
   242  122  242 1    
   243  122  243 1    
   244  124  125 1    
   245  124  244 1    
   246  124  245 1    
   247  125  126 1    
   248  126  246 1    
   249  126  247 1    
@<TRIPOS>SUBSTRUCTURE
     1 UNK         1 GROUP             0       ****    0 ROOT    
