@<TRIPOS>MOLECULE
3R540
247   249    1
SMALL
USER_CHARGES


@<TRIPOS>ATOM
      1 CA         -3.2840  -12.7773  -41.5470 C.3       0 UNK        -0.1800 
      2 C          -3.5020  -11.9871  -42.8299 C.2       0 UNK         0.5000 
      3 O          -3.5926  -10.7594  -42.7875 O.2       0 UNK        -0.5000 
      4 N          -3.5948  -12.6884  -43.9651 N.am      1 UNK        -0.5000 
      5 CA         -3.7383  -12.1123  -45.3074 C.3       1 UNK         0.1400 
      6 C6         -4.2212  -13.1633  -46.3404 C.3       23 UNK        -0.0398 
      7 S7         -5.7188  -14.0691  -45.8102 S.3       23 UNK        -0.2404 
      8 C8         -5.7481  -15.4807  -46.9666 C.3       23 UNK        -0.0205 
      9 C9         -4.4387  -16.2569  -46.9740 C.ar      23 UNK        -0.0193 
     10 C10        -3.6200  -16.2366  -48.1045 C.ar      23 UNK        -0.1150 
     11 C11        -2.3952  -16.9063  -48.1057 C.ar      23 UNK        -0.0193 
     12 C12        -1.9950  -17.6129  -46.9670 C.ar      23 UNK        -0.1150 
     13 C13        -2.8044  -17.6402  -45.8201 C.ar      23 UNK        -0.0193 
     14 C14        -4.0278  -16.9639  -45.8417 C.ar      23 UNK        -0.1150 
     15 C15        -2.4224  -18.3789  -44.5359 C.3       23 UNK        -0.0205 
     16 S16        -0.7004  -18.9829  -44.4566 S.3       23 UNK        -0.2404 
     17 C17        -0.9125  -20.5916  -43.6275 C.3       23 UNK        -0.0398 
     18 CA         -1.5222  -21.6632  -44.5610 C.3       11 UNK         0.1400 
     19 N          -0.7979  -21.8228  -45.8258 N.am      11 UNK        -0.5000 
     20 C          -1.2647  -22.4897  -46.8904 C.2       10 UNK         0.5000 
     21 O          -2.3840  -22.9981  -46.9390 O.2       10 UNK        -0.5000 
     22 CA         -0.3152  -22.6506  -48.0853 C.3       10 UNK         0.1400 
     23 CB         -0.4319  -21.4448  -49.0266 C.3       10 UNK        -0.1800 
     24 N           1.0680  -22.8105  -47.6389 N.am      10 UNK        -0.5000 
     25 C           1.5668  -23.9500  -47.1380 C.2       9 UNK         0.5000 
     26 O           0.9297  -25.0015  -47.0798 O.2       9 UNK        -0.5000 
     27 CA          3.0039  -23.9071  -46.5799 C.3       9 UNK         0.1400 
     28 CB          4.0177  -24.2475  -47.6821 C.3       9 UNK        -0.1800 
     29 N           3.3575  -22.6166  -45.9849 N.am      9 UNK        -0.5000 
     30 C           2.8022  -22.1093  -44.8752 C.2       8 UNK         0.5000 
     31 O           1.9645  -22.7066  -44.2003 O.2       8 UNK        -0.5000 
     32 CA          3.2024  -20.6708  -44.4865 C.3       8 UNK         0.1400 
     33 CB          4.3981  -20.6833  -43.5236 C.3       8 UNK        -0.1800 
     34 N           3.5089  -19.7948  -45.6228 N.am      8 UNK        -0.5000 
     35 C           2.6843  -19.5420  -46.6495 C.2       7 UNK         0.5000 
     36 O           1.5963  -20.0999  -46.7907 O.2       7 UNK        -0.5000 
     37 CA          3.1612  -18.5185  -47.6935 C.3       7 UNK         0.1400 
     38 CB          1.9849  -17.8771  -48.4458 C.3       7 UNK        -0.1800 
     39 N           3.9345  -17.4552  -47.0592 N.am      7 UNK        -0.5000 
     40 C           5.1923  -17.1079  -47.3574 C.2       6 UNK         0.5000 
     41 O           5.8924  -17.7203  -48.1645 O.2       6 UNK        -0.5000 
     42 CA          5.7722  -15.8650  -46.6506 C.3       6 UNK         0.1400 
     43 CB          6.0861  -14.7580  -47.6710 C.3       6 UNK        -0.1800 
     44 N           4.8616  -15.3205  -45.6422 N.am      6 UNK        -0.5000 
     45 C           4.8571  -15.6639  -44.3470 C.2       5 UNK         0.5000 
     46 O           5.6664  -16.4446  -43.8456 O.2       5 UNK        -0.5000 
     47 CA          3.7506  -15.0499  -43.4631 C.3       5 UNK         0.1400 
     48 CB          4.2795  -13.8104  -42.7259 C.3       5 UNK        -0.1800 
     49 N           2.5363  -14.6830  -44.1983 N.am      5 UNK        -0.5000 
     50 C           1.7368  -15.5492  -44.8372 C.2       4 UNK         0.5000 
     51 O           1.9465  -16.7596  -44.8762 O.2       4 UNK        -0.5000 
     52 CA          0.5491  -14.9543  -45.6181 C.3       4 UNK         0.1400 
     53 CB         -0.6840  -14.8453  -44.7105 C.3       4 UNK        -0.1800 
     54 N           0.8418  -13.6495  -46.2284 N.am      4 UNK        -0.5000 
     55 C           1.8052  -13.4423  -47.1429 C.2       3 UNK         0.5000 
     56 O           2.5520  -14.3384  -47.5385 O.2       3 UNK        -0.5000 
     57 CA          2.0244  -12.0037  -47.6639 C.3       3 UNK         0.1400 
     58 CB          2.4925  -11.9745  -49.1345 C.3       3 UNK        -0.1800 
     59 N           0.8945  -11.0924  -47.4498 N.am      3 UNK        -0.5000 
     60 C          -0.3238  -11.1577  -48.0036 C.2       2 UNK         0.5000 
     61 O          -0.6822  -12.0189  -48.8093 O.2       2 UNK        -0.5000 
     62 CA         -1.3302  -10.0863  -47.5361 C.3       2 UNK         0.1400 
     63 CB         -1.8184   -9.2336  -48.7179 C.3       2 UNK        -0.1800 
     64 N          -2.4844  -10.6835  -46.8617 N.am      2 UNK        -0.5000 
     65 C          -2.4126  -11.4734  -45.7815 C.2       1 UNK         0.5000 
     66 O          -1.3521  -11.7289  -45.2013 O.2       1 UNK        -0.5000 
     67 C          -1.6969  -23.0090  -43.8331 C.2       11 UNK         0.5000 
     68 O          -2.7927  -23.2951  -43.3504 O.2       11 UNK        -0.5000 
     69 N          -0.6477  -23.8443  -43.8430 N.am      12 UNK        -0.5000 
     70 CA         -0.6622  -25.2269  -43.3545 C.3       12 UNK         0.1400 
     71 CB          0.7671  -25.7879  -43.3925 C.3       12 UNK        -0.1800 
     72 C          -1.6252  -26.1452  -44.1367 C.2       12 UNK         0.5000 
     73 O          -2.1286  -27.1168  -43.5731 O.2       12 UNK        -0.5000 
     74 N          -1.9001  -25.7942  -45.3998 N.am      13 UNK        -0.5000 
     75 CA         -2.8892  -26.4260  -46.2737 C.3       13 UNK         0.1400 
     76 CB         -2.3518  -26.4089  -47.7152 C.3       13 UNK        -0.1800 
     77 C          -4.2874  -25.7729  -46.1580 C.2       13 UNK         0.5000 
     78 O          -5.1055  -25.9326  -47.0643 O.2       13 UNK        -0.5000 
     79 N          -4.5432  -25.0680  -45.0445 N.am      14 UNK        -0.5000 
     80 CA         -5.7896  -24.3936  -44.6675 C.3       14 UNK         0.1400 
     81 CB         -6.9605  -25.3935  -44.5529 C.3       14 UNK        -0.1800 
     82 C          -6.1040  -23.1718  -45.5532 C.2       14 UNK         0.5000 
     83 O          -7.2454  -22.9953  -45.9827 O.2       14 UNK        -0.5000 
     84 N          -5.0742  -22.3434  -45.7824 N.am      15 UNK        -0.5000 
     85 CA         -5.0785  -21.1052  -46.5708 C.3       15 UNK         0.1400 
     86 CB         -5.9818  -20.0333  -45.9265 C.3       15 UNK        -0.1800 
     87 C          -5.4102  -21.3770  -48.0487 C.2       15 UNK         0.5000 
     88 O          -6.3689  -20.8261  -48.5937 O.2       15 UNK        -0.5000 
     89 N          -4.5978  -22.2411  -48.6689 N.am      16 UNK        -0.5000 
     90 CA         -4.7175  -22.7426  -50.0417 C.3       16 UNK         0.1400 
     91 CB         -3.8557  -24.0102  -50.1626 C.3       16 UNK        -0.1800 
     92 C          -4.4244  -21.7011  -51.1513 C.2       16 UNK         0.5000 
     93 O          -3.8295  -22.0323  -52.1800 O.2       16 UNK        -0.5000 
     94 N          -4.8846  -20.4607  -50.9536 N.am      17 UNK        -0.5000 
     95 CA         -4.8092  -19.3591  -51.9126 C.3       17 UNK         0.1400 
     96 CB         -5.2271  -18.0555  -51.2163 C.3       17 UNK        -0.1800 
     97 C          -5.6766  -19.6121  -53.1578 C.2       17 UNK         0.5000 
     98 O          -5.2662  -19.2667  -54.2649 O.2       17 UNK        -0.5000 
     99 N          -6.8317  -20.2658  -52.9628 N.am      18 UNK        -0.5000 
    100 CA        -7.7538  -20.6814  -54.0241 C.3       18 UNK         0.1400 
    101 CB        -9.0670  -21.1586  -53.3858 C.3       18 UNK        -0.1800 
    102 C         -7.1725  -21.7744  -54.9438 C.2       18 UNK         0.5000 
    103 O         -7.5553  -21.8525  -56.1113 O.2       18 UNK        -0.5000 
    104 N         -6.2428  -22.5776  -54.4089 N.am      19 UNK        -0.5000 
    105 CA        -5.4782  -23.5874  -55.1435 C.3       19 UNK         0.1400 
    106 CB        -5.1513  -24.7447  -54.1864 C.3       19 UNK        -0.1800 
    107 C         -4.1852  -23.0131  -55.7599 C.2       19 UNK         0.5000 
    108 O         -3.4683  -23.7502  -56.4377 O.2       19 UNK        -0.5000 
    109 N         -3.9031  -21.7254  -55.5044 N.am      20 UNK        -0.5000 
    110 CA        -2.7166  -20.9692  -55.9110 C.3       20 UNK         0.1400 
    111 CB        -2.6569  -20.8159  -57.4455 C.3       20 UNK        -0.1800 
    112 C         -1.4091  -21.5160  -55.3003 C.2       20 UNK         0.5000 
    113 O         -0.3594  -21.4556  -55.9432 O.2       20 UNK        -0.5000 
    114 N         -1.4856  -22.0303  -54.0628 N.am      21 UNK        -0.5000 
    115 CA        -0.3235  -22.5073  -53.3080 C.3       21 UNK         0.1400 
    116 CB        -0.7974  -23.4182  -52.1675 C.3       21 UNK        -0.1800 
    117 C          0.5324  -21.3518  -52.7535 C.2       21 UNK         0.5000 
    118 O          1.7321  -21.5340  -52.5438 O.2       21 UNK        -0.5000 
    119 N         -0.1006  -20.1941  -52.5211 N.am      22 UNK        -0.5000 
    120 CA         0.5374  -18.9422  -52.0925 C.3       22 UNK         0.1400 
    121 C          1.5274  -18.3919  -53.1570 C.2       22 UNK         0.5000 
    122 N          2.7186  -17.9717  -52.7534 N.am      22 UNK        -0.7600 
    123 O          1.2040  -18.2987  -54.3389 O.2       22 UNK        -0.5000 
    124 C124       -0.5187  -17.8629  -51.7449 C.3       23 UNK        -0.0398 
    125 S125       -1.5881  -18.3327  -50.3423 S.3       23 UNK        -0.2404 
    126 C126       -1.4921  -16.8280  -49.3262 C.3       23 UNK        -0.0205 
    127 H127       -3.2231  -13.8494  -41.7367 H         1 UNK         0.0600 
    128 H128       -4.1052  -12.6007  -40.8524 H         1 UNK         0.0600 
    129 H129       -2.3563  -12.4646  -41.0677 H         1 UNK         0.0600 
    130 H130       -3.5146  -13.6937  -43.9341 H         1 UNK         0.3000 
    131 H131       -4.4877  -11.3197  -45.2532 H         1 UNK         0.0600 
    132 H132       -4.4424  -12.6900  -47.2985 H         1 UNK         0.0800 
    133 H133       -3.4206  -13.8763  -46.5351 H         1 UNK         0.0800 
    134 H134       -6.5604  -16.1528  -46.6864 H         1 UNK         0.0800 
    135 H135       -5.9859  -15.1134  -47.9661 H         1 UNK         0.0800 
    136 H136       -3.9273  -15.6821  -48.9801 H         1 UNK         0.1150 
    137 H137       -1.0464  -18.1297  -46.9877 H         1 UNK         0.1150 
    138 H138       -4.6613  -16.9725  -44.9656 H         1 UNK         0.1150 
    139 H139       -3.1206  -19.2047  -44.4064 H         1 UNK         0.0800 
    140 H140       -2.5795  -17.7163  -43.6836 H         1 UNK         0.0800 
    141 H141       -1.5365  -20.4482  -42.7434 H         1 UNK         0.0800 
    142 H142        0.0641  -20.9121  -43.2624 H         1 UNK         0.0800 
    143 H143       -2.5269  -21.3314  -44.8199 H         1 UNK         0.0600 
    144 H144        0.1048  -21.3670  -45.8967 H         1 UNK         0.3000 
    145 H145       -0.6091  -23.5429  -48.6415 H         1 UNK         0.0600 
    146 H146       -1.4214  -21.4031  -49.4832 H         1 UNK         0.0600 
    147 H147        0.3007  -21.4993  -49.8301 H         1 UNK         0.0600 
    148 H148       -0.2830  -20.5002  -48.5039 H         1 UNK         0.0600 
    149 H149        1.6118  -21.9582  -47.5670 H         1 UNK         0.3000 
    150 H150        3.0778  -24.6686  -45.8008 H         1 UNK         0.0600 
    151 H151        4.0069  -23.5064  -48.4824 H         1 UNK         0.0600 
    152 H152        3.7962  -25.2173  -48.1299 H         1 UNK         0.0600 
    153 H153        5.0313  -24.2988  -47.2841 H         1 UNK         0.0600 
    154 H154        4.0329  -22.0545  -46.4812 H         1 UNK         0.3000 
    155 H155        2.3514  -20.2285  -43.9651 H         1 UNK         0.0600 
    156 H156        5.2954  -21.0780  -44.0017 H         1 UNK         0.0600 
    157 H157        4.1904  -21.3032  -42.6504 H         1 UNK         0.0600 
    158 H158        4.6233  -19.6795  -43.1619 H         1 UNK         0.0600 
    159 H159        4.3806  -19.2879  -45.5808 H         1 UNK         0.3000 
    160 H160        3.7709  -19.0671  -48.4136 H         1 UNK         0.0600 
    161 H161        1.3353  -17.3394  -47.7560 H         1 UNK         0.0600 
    162 H162        1.3773  -18.6280  -48.9499 H         1 UNK         0.0600 
    163 H163        2.3310  -17.1705  -49.2002 H         1 UNK         0.0600 
    164 H164        3.4394  -16.9375  -46.3417 H         1 UNK         0.3000 
    165 H165        6.7101  -16.1646  -46.1787 H         1 UNK         0.0600 
    166 H166        6.5144  -13.8820  -47.1837 H         1 UNK         0.0600 
    167 H167        6.8088  -15.1016  -48.4121 H         1 UNK         0.0600 
    168 H168        5.1924  -14.4397  -48.2089 H         1 UNK         0.0600 
    169 H169        4.1277  -14.7170  -45.9914 H         1 UNK         0.3000 
    170 H170        3.4750  -15.8001  -42.7189 H         1 UNK         0.0600 
    171 H171        3.5367  -13.4164  -42.0320 H         1 UNK         0.0600 
    172 H172        4.5482  -13.0135  -43.4204 H         1 UNK         0.0600 
    173 H173        5.1696  -14.0522  -42.1434 H         1 UNK         0.0600 
    174 H174        2.2985  -13.7024  -44.2254 H         1 UNK         0.3000 
    175 H175        0.3090  -15.6492  -46.4247 H         1 UNK         0.0600 
    176 H176       -0.8864  -15.7923  -44.2093 H         1 UNK         0.0600 
    177 H177       -0.5538  -14.0863  -43.9384 H         1 UNK         0.0600 
    178 H178       -1.5713  -14.5939  -45.2888 H         1 UNK         0.0600 
    179 H179        0.2555  -12.8728  -45.9416 H         1 UNK         0.3000 
    180 H180        2.8406  -11.6022  -47.0619 H         1 UNK         0.0600 
    181 H181        1.7679  -12.4435  -49.8006 H         1 UNK         0.0600 
    182 H182        3.4363  -12.5074  -49.2563 H         1 UNK         0.0600 
    183 H183        2.6537  -10.9527  -49.4780 H         1 UNK         0.0600 
    184 H184        1.0621  -10.3620  -46.7713 H         1 UNK         0.3000 
    185 H185       -0.8380   -9.4224  -46.8222 H         1 UNK         0.0600 
    186 H186       -0.9786   -8.7665  -49.2341 H         1 UNK         0.0600 
    187 H187       -2.3615   -9.8323  -49.4504 H         1 UNK         0.0600 
    188 H188       -2.4781   -8.4332  -48.3823 H         1 UNK         0.0600 
    189 H189       -3.3807  -10.5276  -47.2991 H         1 UNK         0.3000 
    190 H190        0.2412  -23.5030  -44.2006 H         1 UNK         0.3000 
    191 H191       -0.9965  -25.2092  -42.3153 H         1 UNK         0.0600 
    192 H192        1.4441  -25.1848  -42.7872 H         1 UNK         0.0600 
    193 H193        0.7991  -26.8053  -43.0007 H         1 UNK         0.0600 
    194 H194        1.1606  -25.8144  -44.4090 H         1 UNK         0.0600 
    195 H195       -1.4405  -24.9774  -45.7776 H         1 UNK         0.3000 
    196 H196       -3.0098  -27.4711  -45.9822 H         1 UNK         0.0600 
    197 H197       -3.0283  -26.9237  -48.3983 H         1 UNK         0.0600 
    198 H198       -1.3857  -26.9098  -47.7795 H         1 UNK         0.0600 
    199 H199       -2.2213  -25.3926  -48.0830 H         1 UNK         0.0600 
    200 H200       -3.7852  -24.9491  -44.3843 H         1 UNK         0.3000 
    201 H201       -5.6158  -23.9939  -43.6673 H         1 UNK         0.0600 
    202 H202       -7.8406  -24.9131  -44.1239 H         1 UNK         0.0600 
    203 H203       -6.7019  -26.2315  -43.9056 H         1 UNK         0.0600 
    204 H204       -7.2520  -25.7955  -45.5234 H         1 UNK         0.0600 
    205 H205       -4.1659  -22.6477  -45.4595 H         1 UNK         0.3000 
    206 H206       -4.0595  -20.7162  -46.5564 H         1 UNK         0.0600 
    207 H207       -5.6771  -19.8255  -44.9010 H         1 UNK         0.0600 
    208 H208       -5.9229  -19.0953  -46.4795 H         1 UNK         0.0600 
    209 H209       -7.0296  -20.3336  -45.9120 H         1 UNK         0.0600 
    210 H210       -3.8354  -22.6308  -48.1209 H         1 UNK         0.3000 
    211 H211       -5.7560  -23.0448  -50.1894 H         1 UNK         0.0600 
    212 H212       -2.8147  -23.8116  -49.9121 H         1 UNK         0.0600 
    213 H213       -3.8828  -24.4297  -51.1674 H         1 UNK         0.0600 
    214 H214       -4.2162  -24.7859  -49.4874 H         1 UNK         0.0600 
    215 H215       -5.4052  -20.2919  -50.0972 H         1 UNK         0.3000 
    216 H216       -3.7725  -19.2627  -52.2404 H         1 UNK         0.0600 
    217 H217       -6.2635  -18.0916  -50.8785 H         1 UNK         0.0600 
    218 H218       -5.1274  -17.2034  -51.8897 H         1 UNK         0.0600 
    219 H219       -4.6019  -17.8571  -50.3464 H         1 UNK         0.0600 
    220 H220       -7.0893  -20.5093  -52.0173 H         1 UNK         0.3000 
    221 H221       -7.9704  -19.8094  -54.6450 H         1 UNK         0.0600 
    222 H222       -8.9092  -22.0197  -52.7351 H         1 UNK         0.0600 
    223 H223       -9.5276  -20.3684  -52.7926 H         1 UNK         0.0600 
    224 H224       -9.7886  -21.4520  -54.1495 H         1 UNK         0.0600 
    225 H225       -5.9696  -22.4260  -53.4489 H         1 UNK         0.3000 
    226 H226       -6.0854  -23.9831  -55.9602 H         1 UNK         0.0600 
    227 H227       -6.0527  -25.1428  -53.7202 H         1 UNK         0.0600 
    228 H228       -4.6704  -25.5670  -54.7173 H         1 UNK         0.0600 
    229 H229       -4.4726  -24.4275  -53.3956 H         1 UNK         0.0600 
    230 H230       -4.5657  -21.2008  -54.9478 H         1 UNK         0.3000 
    231 H231       -2.8413  -19.9699  -55.4919 H         1 UNK         0.0600 
    232 H232       -2.4592  -21.7661  -57.9422 H         1 UNK         0.0600 
    233 H233       -1.8661  -20.1245  -57.7385 H         1 UNK         0.0600 
    234 H234       -3.5934  -20.4198  -57.8382 H         1 UNK         0.0600 
    235 H235       -2.3818  -22.0597  -53.5851 H         1 UNK         0.3000 
    236 H236        0.3060  -23.1007  -53.9746 H         1 UNK         0.0600 
    237 H237       -1.3892  -22.8613  -51.4435 H         1 UNK         0.0600 
    238 H238       -1.4075  -24.2408  -52.5409 H         1 UNK         0.0600 
    239 H239        0.0493  -23.8514  -51.6337 H         1 UNK         0.0600 
    240 H240       -1.0880  -20.1448  -52.7174 H         1 UNK         0.3000 
    241 H241        1.1053  -19.1694  -51.1895 H         1 UNK         0.0600 
    242 H242        3.3596  -17.5983  -53.4361 H         1 UNK         0.3800 
    243 H243        3.0077  -18.0367  -51.7904 H         1 UNK         0.3800 
    244 H244       -1.1554  -17.6566  -52.6070 H         1 UNK         0.0800 
    245 H245       -0.0219  -16.9207  -51.5061 H         1 UNK         0.0800 
    246 H246       -0.4644  -16.6562  -49.0114 H         1 UNK         0.0800 
    247 H247       -1.7666  -15.9680  -49.9392 H         1 UNK         0.0800 
@<TRIPOS>BOND
     1    1    2 1    
     2    1  127 1    
     3    1  128 1    
     4    1  129 1    
     5    2    3 2    
     6    2    4 am   BACKBONE|DICT|INTERRES
     7    4    5 1    
     8    4  130 1    
     9    5    6 1    
    10    5   65 1    
    11    5  131 1    
    12    6    7 1    
    13    6  132 1    
    14    6  133 1    
    15    7    8 1    
    16    8    9 1    
    17    8  134 1    
    18    8  135 1    
    19    9   10 ar   
    20    9   14 ar   
    21   10   11 ar   
    22   10  136 1    
    23   11   12 ar   
    24   11  126 1    
    25   12   13 ar   
    26   12  137 1    
    27   13   14 ar   
    28   13   15 1    
    29   14  138 1    
    30   15   16 1    
    31   15  139 1    
    32   15  140 1    
    33   16   17 1    
    34   17   18 1    
    35   17  141 1    
    36   17  142 1    
    37   18   19 1    
    38   18   67 1    
    39   18  143 1    
    40   19   20 am   BACKBONE|DICT|INTERRES
    41   19  144 1    
    42   20   21 2    
    43   20   22 1    
    44   22   23 1    
    45   22   24 1    
    46   22  145 1    
    47   23  146 1    
    48   23  147 1    
    49   23  148 1    
    50   24   25 am   BACKBONE|DICT|INTERRES
    51   24  149 1    
    52   25   26 2    
    53   25   27 1    
    54   27   28 1    
    55   27   29 1    
    56   27  150 1    
    57   28  151 1    
    58   28  152 1    
    59   28  153 1    
    60   29   30 am   BACKBONE|DICT|INTERRES
    61   29  154 1    
    62   30   31 2    
    63   30   32 1    
    64   32   33 1    
    65   32   34 1    
    66   32  155 1    
    67   33  156 1    
    68   33  157 1    
    69   33  158 1    
    70   34   35 am   BACKBONE|DICT|INTERRES
    71   34  159 1    
    72   35   36 2    
    73   35   37 1    
    74   37   38 1    
    75   37   39 1    
    76   37  160 1    
    77   38  161 1    
    78   38  162 1    
    79   38  163 1    
    80   39   40 am   BACKBONE|DICT|INTERRES
    81   39  164 1    
    82   40   41 2    
    83   40   42 1    
    84   42   43 1    
    85   42   44 1    
    86   42  165 1    
    87   43  166 1    
    88   43  167 1    
    89   43  168 1    
    90   44   45 am   BACKBONE|DICT|INTERRES
    91   44  169 1    
    92   45   46 2    
    93   45   47 1    
    94   47   48 1    
    95   47   49 1    
    96   47  170 1    
    97   48  171 1    
    98   48  172 1    
    99   48  173 1    
   100   49   50 am   BACKBONE|DICT|INTERRES
   101   49  174 1    
   102   50   51 2    
   103   50   52 1    
   104   52   53 1    
   105   52   54 1    
   106   52  175 1    
   107   53  176 1    
   108   53  177 1    
   109   53  178 1    
   110   54   55 am   BACKBONE|DICT|INTERRES
   111   54  179 1    
   112   55   56 2    
   113   55   57 1    
   114   57   58 1    
   115   57   59 1    
   116   57  180 1    
   117   58  181 1    
   118   58  182 1    
   119   58  183 1    
   120   59   60 am   BACKBONE|DICT|INTERRES
   121   59  184 1    
   122   60   61 2    
   123   60   62 1    
   124   62   63 1    
   125   62   64 1    
   126   62  185 1    
   127   63  186 1    
   128   63  187 1    
   129   63  188 1    
   130   64   65 am   BACKBONE|DICT|INTERRES
   131   64  189 1    
   132   65   66 2    
   133   67   68 2    
   134   67   69 am   BACKBONE|DICT|INTERRES
   135   69   70 1    
   136   69  190 1    
   137   70   71 1    
   138   70   72 1    
   139   70  191 1    
   140   71  192 1    
   141   71  193 1    
   142   71  194 1    
   143   72   73 2    
   144   72   74 am   BACKBONE|DICT|INTERRES
   145   74   75 1    
   146   74  195 1    
   147   75   76 1    
   148   75   77 1    
   149   75  196 1    
   150   76  197 1    
   151   76  198 1    
   152   76  199 1    
   153   77   78 2    
   154   77   79 am   BACKBONE|DICT|INTERRES
   155   79   80 1    
   156   79  200 1    
   157   80   81 1    
   158   80   82 1    
   159   80  201 1    
   160   81  202 1    
   161   81  203 1    
   162   81  204 1    
   163   82   83 2    
   164   82   84 am   BACKBONE|DICT|INTERRES
   165   84   85 1    
   166   84  205 1    
   167   85   86 1    
   168   85   87 1    
   169   85  206 1    
   170   86  207 1    
   171   86  208 1    
   172   86  209 1    
   173   87   88 2    
   174   87   89 am   BACKBONE|DICT|INTERRES
   175   89   90 1    
   176   89  210 1    
   177   90   91 1    
   178   90   92 1    
   179   90  211 1    
   180   91  212 1    
   181   91  213 1    
   182   91  214 1    
   183   92   93 2    
   184   92   94 am   BACKBONE|DICT|INTERRES
   185   94   95 1    
   186   94  215 1    
   187   95   96 1    
   188   95   97 1    
   189   95  216 1    
   190   96  217 1    
   191   96  218 1    
   192   96  219 1    
   193   97   98 2    
   194   97   99 am   BACKBONE|DICT|INTERRES
   195   99  100 1    
   196   99  220 1    
   197  100  101 1    
   198  100  102 1    
   199  100  221 1    
   200  101  222 1    
   201  101  223 1    
   202  101  224 1    
   203  102  103 2    
   204  102  104 am   BACKBONE|DICT|INTERRES
   205  104  105 1    
   206  104  225 1    
   207  105  106 1    
   208  105  107 1    
   209  105  226 1    
   210  106  227 1    
   211  106  228 1    
   212  106  229 1    
   213  107  108 2    
   214  107  109 am   BACKBONE|DICT|INTERRES
   215  109  110 1    
   216  109  230 1    
   217  110  111 1    
   218  110  112 1    
   219  110  231 1    
   220  111  232 1    
   221  111  233 1    
   222  111  234 1    
   223  112  113 2    
   224  112  114 am   BACKBONE|DICT|INTERRES
   225  114  115 1    
   226  114  235 1    
   227  115  116 1    
   228  115  117 1    
   229  115  236 1    
   230  116  237 1    
   231  116  238 1    
   232  116  239 1    
   233  117  118 2    
   234  117  119 am   BACKBONE|DICT|INTERRES
   235  119  120 1    
   236  119  240 1    
   237  120  121 1    
   238  120  124 1    
   239  120  241 1    
   240  121  122 am   BACKBONE|DICT|INTERRES
   241  121  123 2    
   242  122  242 1    
   243  122  243 1    
   244  124  125 1    
   245  124  244 1    
   246  124  245 1    
   247  125  126 1    
   248  126  246 1    
   249  126  247 1    
@<TRIPOS>SUBSTRUCTURE
     1 UNK         1 GROUP             0       ****    0 ROOT    
