@<TRIPOS>MOLECULE
3R540
247   249    1
SMALL
USER_CHARGES


@<TRIPOS>ATOM
      1 CA         -2.7956  -14.3271  -47.2720 C.3       0 UNK        -0.1800 
      2 C          -1.7873  -14.1656  -48.3995 C.2       0 UNK         0.5000 
      3 O          -2.0830  -13.4880  -49.3848 O.2       0 UNK        -0.5000 
      4 N          -0.5962  -14.7617  -48.2581 N.am      1 UNK        -0.5000 
      5 CA          0.5031  -14.6874  -49.2263 C.3       1 UNK         0.1400 
      6 C6          1.5514  -15.7978  -48.9742 C.3       23 UNK        -0.0398 
      7 S7          2.6782  -16.0736  -50.3869 S.3       23 UNK        -0.2404 
      8 C8          1.5900  -16.7962  -51.6610 C.3       23 UNK        -0.0205 
      9 C9          0.8140  -17.9997  -51.1503 C.ar      23 UNK        -0.0193 
     10 C10        -0.5343  -17.8735  -50.8101 C.ar      23 UNK        -0.1150 
     11 C11        -1.2605  -18.9667  -50.3144 C.ar      23 UNK        -0.0193 
     12 C12        -0.6124  -20.2008  -50.1987 C.ar      23 UNK        -0.1150 
     13 C13         0.7432  -20.3378  -50.5227 C.ar      23 UNK        -0.0193 
     14 C14         1.4482  -19.2325  -51.0018 C.ar      23 UNK        -0.1150 
     15 C15         1.4607  -21.6696  -50.3536 C.3       23 UNK        -0.0205 
     16 S16         1.8763  -21.9956  -48.6118 S.3       23 UNK        -0.2404 
     17 C17         0.2691  -22.5984  -48.0058 C.3       23 UNK        -0.0398 
     18 CA          0.4155  -23.6528  -46.8886 C.3       11 UNK         0.1400 
     19 N           0.7272  -23.0504  -45.5904 N.am      11 UNK        -0.5000 
     20 C           1.0033  -23.7398  -44.4749 C.2       10 UNK         0.5000 
     21 O           1.0939  -24.9670  -44.4337 O.2       10 UNK        -0.5000 
     22 CA          1.1364  -22.9263  -43.1745 C.3       10 UNK         0.1400 
     23 CB          2.5203  -22.2684  -43.0719 C.3       10 UNK        -0.1800 
     24 N           0.0898  -21.9103  -43.0434 N.am      10 UNK        -0.5000 
     25 C          -1.2200  -22.1846  -42.9496 C.2       9 UNK         0.5000 
     26 O          -1.6768  -23.3266  -42.9074 O.2       9 UNK        -0.5000 
     27 CA         -2.1879  -20.9884  -42.9492 C.3       9 UNK         0.1400 
     28 CB         -2.2793  -20.3604  -41.5507 C.3       9 UNK        -0.1800 
     29 N          -1.8243  -19.9651  -43.9297 N.am      9 UNK        -0.5000 
     30 C          -1.8015  -20.1536  -45.2565 C.2       8 UNK         0.5000 
     31 O          -2.1278  -21.2063  -45.8030 O.2       8 UNK        -0.5000 
     32 CA         -1.2808  -18.9889  -46.1181 C.3       8 UNK         0.1400 
     33 CB         -2.3732  -17.9374  -46.3393 C.3       8 UNK        -0.1800 
     34 N          -0.0911  -18.3532  -45.5546 N.am      8 UNK        -0.5000 
     35 C           1.0792  -18.9812  -45.3721 C.2       7 UNK         0.5000 
     36 O           1.2903  -20.1489  -45.6980 O.2       7 UNK        -0.5000 
     37 CA          2.1733  -18.1866  -44.6418 C.3       7 UNK         0.1400 
     38 CB          2.8734  -17.2087  -45.5957 C.3       7 UNK        -0.1800 
     39 N           1.6331  -17.4533  -43.4972 N.am      7 UNK        -0.5000 
     40 C           1.1730  -18.0345  -42.3801 C.2       6 UNK         0.5000 
     41 O           1.1947  -19.2492  -42.1813 O.2       6 UNK        -0.5000 
     42 CA          0.5443  -17.1024  -41.3280 C.3       6 UNK         0.1400 
     43 CB          1.6291  -16.4892  -40.4302 C.3       6 UNK        -0.1800 
     44 N          -0.2556  -16.0305  -41.9249 N.am      6 UNK        -0.5000 
     45 C          -1.3834  -16.2253  -42.6233 C.2       5 UNK         0.5000 
     46 O          -1.8763  -17.3333  -42.8246 O.2       5 UNK        -0.5000 
     47 CA         -2.0547  -14.9812  -43.2319 C.3       5 UNK         0.1400 
     48 CB         -3.0698  -14.3806  -42.2491 C.3       5 UNK        -0.1800 
     49 N          -1.1030  -13.9449  -43.6367 N.am      5 UNK        -0.5000 
     50 C          -0.1728  -14.0839  -44.5887 C.2       4 UNK         0.5000 
     51 O          -0.0221  -15.1126  -45.2562 O.2       4 UNK        -0.5000 
     52 CA          0.7097  -12.8504  -44.8495 C.3       4 UNK         0.1400 
     53 CB          2.1571  -13.2500  -45.1792 C.3       4 UNK        -0.1800 
     54 N           0.1404  -12.0434  -45.9321 N.am      4 UNK        -0.5000 
     55 C          -0.9021  -11.2104  -45.7742 C.2       3 UNK         0.5000 
     56 O          -1.4128  -10.9898  -44.6748 O.2       3 UNK        -0.5000 
     57 CA         -1.5267  -10.5441  -47.0216 C.3       3 UNK         0.1400 
     58 CB         -1.7768   -9.0348  -46.8212 C.3       3 UNK        -0.1800 
     59 N          -0.8346  -10.8237  -48.2839 N.am      3 UNK        -0.5000 
     60 C           0.3291  -10.3262  -48.7308 C.2       2 UNK         0.5000 
     61 O           0.9995   -9.4818  -48.1356 O.2       2 UNK        -0.5000 
     62 CA          0.8328  -10.9381  -50.0592 C.3       2 UNK         0.1400 
     63 CB          2.2970  -10.5764  -50.3856 C.3       2 UNK        -0.1800 
     64 N           0.6263  -12.3931  -50.0903 N.am      2 UNK        -0.5000 
     65 C           1.1120  -13.2729  -49.2017 C.2       1 UNK         0.5000 
     66 O           1.9183  -12.9757  -48.3222 O.2       1 UNK        -0.5000 
     67 C          -0.8453  -24.5357  -46.8295 C.2       11 UNK         0.5000 
     68 O          -0.8003  -25.6642  -47.3142 O.2       11 UNK        -0.5000 
     69 N          -1.9301  -24.0229  -46.2324 N.am      12 UNK        -0.5000 
     70 CA         -3.2062  -24.7265  -46.0798 C.3       12 UNK         0.1400 
     71 CB         -4.2634  -23.7511  -45.5412 C.3       12 UNK        -0.1800 
     72 C          -3.1145  -25.9763  -45.1842 C.2       12 UNK         0.5000 
     73 O          -3.8174  -26.9557  -45.4352 O.2       12 UNK        -0.5000 
     74 N          -2.2463  -25.9299  -44.1649 N.am      13 UNK        -0.5000 
     75 CA         -1.9232  -27.0697  -43.3089 C.3       13 UNK         0.1400 
     76 CB         -1.1795  -26.5762  -42.0585 C.3       13 UNK        -0.1800 
     77 C          -1.1003  -28.1414  -44.0489 C.2       13 UNK         0.5000 
     78 O          -1.3261  -29.3327  -43.8323 O.2       13 UNK        -0.5000 
     79 N          -0.1642  -27.7026  -44.9015 N.am      14 UNK        -0.5000 
     80 CA          0.7064  -28.5672  -45.6945 C.3       14 UNK         0.1400 
     81 CB          1.9199  -27.7617  -46.1871 C.3       14 UNK        -0.1800 
     82 C          -0.0265  -29.2384  -46.8704 C.2       14 UNK         0.5000 
     83 O           0.0234  -30.4636  -46.9914 O.2       14 UNK        -0.5000 
     84 N          -0.6763  -28.4321  -47.7185 N.am      15 UNK        -0.5000 
     85 CA         -1.3433  -28.8505  -48.9493 C.3       15 UNK         0.1400 
     86 CB         -0.3056  -29.3199  -49.9986 C.3       15 UNK        -0.1800 
     87 C          -2.2533  -27.7083  -49.4411 C.2       15 UNK         0.5000 
     88 O          -3.2192  -27.3699  -48.7565 O.2       15 UNK        -0.5000 
     89 N          -1.9445  -27.1411  -50.6125 N.am      16 UNK        -0.5000 
     90 CA         -2.6520  -26.0496  -51.2750 C.3       16 UNK         0.1400 
     91 CB         -3.9617  -26.5693  -51.9003 C.3       16 UNK        -0.1800 
     92 C          -1.7239  -25.4443  -52.3429 C.2       16 UNK         0.5000 
     93 O          -0.6586  -26.0051  -52.6187 O.2       16 UNK        -0.5000 
     94 N          -2.1446  -24.3213  -52.9326 N.am      17 UNK        -0.5000 
     95 CA         -1.4444  -23.5990  -53.9931 C.3       17 UNK         0.1400 
     96 CB         -0.3078  -22.7519  -53.3880 C.3       17 UNK        -0.1800 
     97 C          -2.4512  -22.7311  -54.7675 C.2       17 UNK         0.5000 
     98 O          -3.6420  -22.7343  -54.4426 O.2       17 UNK        -0.5000 
     99 N          -1.9521  -21.9883  -55.7666 N.am      18 UNK        -0.5000 
    100 CA        -2.7194  -21.0489  -56.5959 C.3       18 UNK         0.1400 
    101 CB        -1.8309  -20.5675  -57.7537 C.3       18 UNK        -0.1800 
    102 C         -3.2955  -19.8437  -55.8202 C.2       18 UNK         0.5000 
    103 O         -4.2838  -19.2607  -56.2685 O.2       18 UNK        -0.5000 
    104 N         -2.6855  -19.5307  -54.6672 N.am      19 UNK        -0.5000 
    105 CA        -3.0897  -18.5429  -53.6634 C.3       19 UNK         0.1400 
    106 CB        -4.5213  -18.8342  -53.1630 C.3       19 UNK        -0.1800 
    107 C         -2.9061  -17.0722  -54.0936 C.2       19 UNK         0.5000 
    108 O         -2.5021  -16.7840  -55.2226 O.2       19 UNK        -0.5000 
    109 N         -3.1795  -16.1692  -53.1462 N.am      20 UNK        -0.5000 
    110 CA        -3.1202  -14.7175  -53.2890 C.3       20 UNK         0.1400 
    111 CB        -1.7997  -14.2025  -52.6883 C.3       20 UNK        -0.1800 
    112 C         -4.3935  -14.1371  -52.6484 C.2       20 UNK         0.5000 
    113 O         -5.4842  -14.4464  -53.1319 O.2       20 UNK        -0.5000 
    114 N         -4.2765  -13.3657  -51.5539 N.am      21 UNK        -0.5000 
    115 CA        -5.4243  -12.8377  -50.7947 C.3       21 UNK         0.1400 
    116 CB        -4.9359  -11.8061  -49.7653 C.3       21 UNK        -0.1800 
    117 C         -6.2454  -13.9508  -50.1074 C.2       21 UNK         0.5000 
    118 O         -7.4446  -13.7912  -49.8806 O.2       21 UNK        -0.5000 
    119 N         -5.5716  -15.0735  -49.8436 N.am      22 UNK        -0.5000 
    120 CA        -6.1092  -16.3901  -49.4762 C.3       22 UNK         0.1400 
    121 C         -6.9592  -17.0958  -50.5769 C.2       22 UNK         0.5000 
    122 N         -7.0138  -16.6127  -51.8132 N.am      22 UNK        -0.7600 
    123 O         -7.5982  -18.1056  -50.2955 O.2       22 UNK        -0.5000 
    124 C124       -4.9742  -17.3143  -48.9440 C.3       23 UNK        -0.0398 
    125 S125       -3.4153  -17.1744  -49.8958 S.3       23 UNK        -0.2404 
    126 C126       -2.7297  -18.8668  -49.8834 C.3       23 UNK        -0.0205 
    127 H127       -2.4223  -14.9795  -46.4860 H         1 UNK         0.0600 
    128 H128       -3.7210  -14.7541  -47.6550 H         1 UNK         0.0600 
    129 H129       -3.0269  -13.3604  -46.8277 H         1 UNK         0.0600 
    130 H130       -0.3822  -15.2246  -47.3823 H         1 UNK         0.3000 
    131 H131        0.0731  -14.8537  -50.2127 H         1 UNK         0.0600 
    132 H132        2.1573  -15.5680  -48.0975 H         1 UNK         0.0800 
    133 H133        1.0573  -16.7412  -48.7393 H         1 UNK         0.0800 
    134 H134        0.9117  -16.0322  -52.0424 H         1 UNK         0.0800 
    135 H135        2.2025  -17.0988  -52.5115 H         1 UNK         0.0800 
    136 H136       -0.9994  -16.9074  -50.9262 H         1 UNK         0.1150 
    137 H137       -1.1663  -21.0537  -49.8361 H         1 UNK         0.1150 
    138 H138        2.4962  -19.3259  -51.2504 H         1 UNK         0.1150 
    139 H139        0.8528  -22.4809  -50.7517 H         1 UNK         0.0800 
    140 H140        2.3836  -21.6761  -50.9355 H         1 UNK         0.0800 
    141 H141       -0.3191  -21.7472  -47.6636 H         1 UNK         0.0800 
    142 H142       -0.2716  -23.0208  -48.8547 H         1 UNK         0.0800 
    143 H143        1.2454  -24.3148  -47.1457 H         1 UNK         0.0600 
    144 H144        0.7276  -22.0350  -45.5517 H         1 UNK         0.3000 
    145 H145        1.0304  -23.6208  -42.3385 H         1 UNK         0.0600 
    146 H146        2.6411  -21.7530  -42.1189 H         1 UNK         0.0600 
    147 H147        3.3126  -23.0146  -43.1415 H         1 UNK         0.0600 
    148 H148        2.6836  -21.5412  -43.8671 H         1 UNK         0.0600 
    149 H149        0.3922  -20.9419  -43.0286 H         1 UNK         0.3000 
    150 H150       -3.1779  -21.3639  -43.2154 H         1 UNK         0.0600 
    151 H151       -2.5658  -21.1044  -40.8064 H         1 UNK         0.0600 
    152 H152       -3.0274  -19.5681  -41.5232 H         1 UNK         0.0600 
    153 H153       -1.3270  -19.9319  -41.2380 H         1 UNK         0.0600 
    154 H154       -1.6065  -19.0425  -43.5619 H         1 UNK         0.3000 
    155 H155       -1.0069  -19.3997  -47.0920 H         1 UNK         0.0600 
    156 H156       -2.0755  -17.2317  -47.1136 H         1 UNK         0.0600 
    157 H157       -2.5912  -17.3773  -45.4311 H         1 UNK         0.0600 
    158 H158       -3.3026  -18.4065  -46.6618 H         1 UNK         0.0600 
    159 H159       -0.1793  -17.3917  -45.2515 H         1 UNK         0.3000 
    160 H160        2.9169  -18.8981  -44.2763 H         1 UNK         0.0600 
    161 H161        2.1884  -16.4405  -45.9506 H         1 UNK         0.0600 
    162 H162        3.2685  -17.7281  -46.4698 H         1 UNK         0.0600 
    163 H163        3.7098  -16.7101  -45.1059 H         1 UNK         0.0600 
    164 H164        1.5365  -16.4542  -43.6006 H         1 UNK         0.3000 
    165 H165       -0.1154  -17.7067  -40.7018 H         1 UNK         0.0600 
    166 H166        2.3065  -15.8476  -40.9949 H         1 UNK         0.0600 
    167 H167        1.1886  -15.8925  -39.6313 H         1 UNK         0.0600 
    168 H168        2.2306  -17.2676  -39.9587 H         1 UNK         0.0600 
    169 H169        0.0781  -15.0860  -41.8026 H         1 UNK         0.3000 
    170 H170       -2.5975  -15.3039  -44.1216 H         1 UNK         0.0600 
    171 H171       -3.8083  -15.1247  -41.9471 H         1 UNK         0.0600 
    172 H172       -2.5856  -14.0117  -41.3441 H         1 UNK         0.0600 
    173 H173       -3.6130  -13.5508  -42.7020 H         1 UNK         0.0600 
    174 H174       -1.1991  -13.0446  -43.1867 H         1 UNK         0.3000 
    175 H175        0.7459  -12.2460  -43.9405 H         1 UNK         0.0600 
    176 H176        2.7595  -12.3794  -45.4390 H         1 UNK         0.0600 
    177 H177        2.6294  -13.7293  -44.3212 H         1 UNK         0.0600 
    178 H178        2.2126  -13.9547  -46.0078 H         1 UNK         0.0600 
    179 H179        0.5383  -12.1845  -46.8525 H         1 UNK         0.3000 
    180 H180       -2.5074  -11.0079  -47.1334 H         1 UNK         0.0600 
    181 H181       -2.2193   -8.5853  -47.7102 H         1 UNK         0.0600 
    182 H182       -2.4669   -8.8612  -45.9948 H         1 UNK         0.0600 
    183 H183       -0.8583   -8.4952  -46.5907 H         1 UNK         0.0600 
    184 H184       -1.2743  -11.5381  -48.8533 H         1 UNK         0.3000 
    185 H185        0.2060  -10.5180  -50.8471 H         1 UNK         0.0600 
    186 H186        2.6138  -11.0283  -51.3254 H         1 UNK         0.0600 
    187 H187        2.4173   -9.4974  -50.4877 H         1 UNK         0.0600 
    188 H188        2.9837  -10.9076  -49.6062 H         1 UNK         0.0600 
    189 H189       -0.0808  -12.7164  -50.7356 H         1 UNK         0.3000 
    190 H190       -1.9024  -23.0618  -45.8992 H         1 UNK         0.3000 
    191 H191       -3.5219  -25.0571  -47.0716 H         1 UNK         0.0600 
    192 H192       -5.2332  -24.2404  -45.4427 H         1 UNK         0.0600 
    193 H193       -4.3941  -22.9014  -46.2115 H         1 UNK         0.0600 
    194 H194       -3.9885  -23.3642  -44.5596 H         1 UNK         0.0600 
    195 H195       -1.7699  -25.0559  -43.9670 H         1 UNK         0.3000 
    196 H196       -2.8586  -27.5308  -42.9848 H         1 UNK         0.0600 
    197 H197       -0.9435  -27.4061  -41.3913 H         1 UNK         0.0600 
    198 H198       -1.7856  -25.8670  -41.4945 H         1 UNK         0.0600 
    199 H199       -0.2415  -26.0829  -42.3146 H         1 UNK         0.0600 
    200 H200       -0.0176  -26.7039  -44.9926 H         1 UNK         0.3000 
    201 H201        1.0813  -29.3597  -45.0432 H         1 UNK         0.0600 
    202 H202        2.4960  -27.3684  -45.3493 H         1 UNK         0.0600 
    203 H203        1.6223  -26.9178  -46.8099 H         1 UNK         0.0600 
    204 H204        2.5902  -28.3868  -46.7784 H         1 UNK         0.0600 
    205 H205       -0.7187  -27.4311  -47.5212 H         1 UNK         0.3000 
    206 H206       -1.9999  -29.6907  -48.7155 H         1 UNK         0.0600 
    207 H207        0.2348  -30.2027  -49.6580 H         1 UNK         0.0600 
    208 H208       -0.7880  -29.5959  -50.9372 H         1 UNK         0.0600 
    209 H209        0.4331  -28.5464  -50.2124 H         1 UNK         0.0600 
    210 H210       -1.1065  -27.4304  -51.1028 H         1 UNK         0.3000 
    211 H211       -2.8751  -25.2742  -50.5392 H         1 UNK         0.0600 
    212 H212       -3.7698  -27.3496  -52.6377 H         1 UNK         0.0600 
    213 H213       -4.5070  -25.7693  -52.4021 H         1 UNK         0.0600 
    214 H214       -4.6286  -26.9825  -51.1436 H         1 UNK         0.0600 
    215 H215       -3.0620  -23.9472  -52.7223 H         1 UNK         0.3000 
    216 H216       -1.0247  -24.3191  -54.6986 H         1 UNK         0.0600 
    217 H217       -0.6924  -22.0199  -52.6772 H         1 UNK         0.0600 
    218 H218        0.2454  -22.2085  -54.1542 H         1 UNK         0.0600 
    219 H219        0.4146  -23.3816  -52.8698 H         1 UNK         0.0600 
    220 H220       -0.9661  -22.0557  -55.9741 H         1 UNK         0.3000 
    221 H221       -3.5651  -21.5947  -57.0193 H         1 UNK         0.0600 
    222 H222       -0.9527  -20.0322  -57.3905 H         1 UNK         0.0600 
    223 H223       -1.4884  -21.4035  -58.3639 H         1 UNK         0.0600 
    224 H224       -2.3784  -19.8906  -58.4109 H         1 UNK         0.0600 
    225 H225       -1.8571  -20.0584  -54.4366 H         1 UNK         0.3000 
    226 H226       -2.4088  -18.7007  -52.8290 H         1 UNK         0.0600 
    227 H227       -5.2741  -18.5808  -53.9097 H         1 UNK         0.0600 
    228 H228       -4.6440  -19.8867  -52.9067 H         1 UNK         0.0600 
    229 H229       -4.7550  -18.2614  -52.2683 H         1 UNK         0.0600 
    230 H230       -3.5187  -16.5009  -52.2534 H         1 UNK         0.3000 
    231 H231       -3.1523  -14.4390  -54.3443 H         1 UNK         0.0600 
    232 H232       -1.7523  -13.1129  -52.6940 H         1 UNK         0.0600 
    233 H233       -0.9476  -14.5647  -53.2636 H         1 UNK         0.0600 
    234 H234       -1.6724  -14.5488  -51.6654 H         1 UNK         0.0600 
    235 H235       -3.3606  -13.1993  -51.1535 H         1 UNK         0.3000 
    236 H236       -6.0846  -12.3274  -51.4990 H         1 UNK         0.0600 
    237 H237       -4.3480  -12.2689  -48.9736 H         1 UNK         0.0600 
    238 H238       -4.3242  -11.0348  -50.2335 H         1 UNK         0.0600 
    239 H239       -5.7806  -11.3069  -49.2892 H         1 UNK         0.0600 
    240 H240       -4.5843  -15.0747  -50.0542 H         1 UNK         0.3000 
    241 H241       -6.8041  -16.2214  -48.6516 H         1 UNK         0.0600 
    242 H242       -6.5074  -15.7795  -52.0905 H         1 UNK         0.3800 
    243 H243       -7.5841  -17.0883  -52.4935 H         1 UNK         0.3800 
    244 H244       -4.7496  -17.0276  -47.9169 H         1 UNK         0.0800 
    245 H245       -5.2897  -18.3580  -48.8922 H         1 UNK         0.0800 
    246 H246       -3.3365  -19.5003  -50.5308 H         1 UNK         0.0800 
    247 H247       -2.8254  -19.2761  -48.8779 H         1 UNK         0.0800 
@<TRIPOS>BOND
     1    1    2 1    
     2    1  127 1    
     3    1  128 1    
     4    1  129 1    
     5    2    3 2    
     6    2    4 am   BACKBONE|DICT|INTERRES
     7    4    5 1    
     8    4  130 1    
     9    5    6 1    
    10    5   65 1    
    11    5  131 1    
    12    6    7 1    
    13    6  132 1    
    14    6  133 1    
    15    7    8 1    
    16    8    9 1    
    17    8  134 1    
    18    8  135 1    
    19    9   10 ar   
    20    9   14 ar   
    21   10   11 ar   
    22   10  136 1    
    23   11   12 ar   
    24   11  126 1    
    25   12   13 ar   
    26   12  137 1    
    27   13   14 ar   
    28   13   15 1    
    29   14  138 1    
    30   15   16 1    
    31   15  139 1    
    32   15  140 1    
    33   16   17 1    
    34   17   18 1    
    35   17  141 1    
    36   17  142 1    
    37   18   19 1    
    38   18   67 1    
    39   18  143 1    
    40   19   20 am   BACKBONE|DICT|INTERRES
    41   19  144 1    
    42   20   21 2    
    43   20   22 1    
    44   22   23 1    
    45   22   24 1    
    46   22  145 1    
    47   23  146 1    
    48   23  147 1    
    49   23  148 1    
    50   24   25 am   BACKBONE|DICT|INTERRES
    51   24  149 1    
    52   25   26 2    
    53   25   27 1    
    54   27   28 1    
    55   27   29 1    
    56   27  150 1    
    57   28  151 1    
    58   28  152 1    
    59   28  153 1    
    60   29   30 am   BACKBONE|DICT|INTERRES
    61   29  154 1    
    62   30   31 2    
    63   30   32 1    
    64   32   33 1    
    65   32   34 1    
    66   32  155 1    
    67   33  156 1    
    68   33  157 1    
    69   33  158 1    
    70   34   35 am   BACKBONE|DICT|INTERRES
    71   34  159 1    
    72   35   36 2    
    73   35   37 1    
    74   37   38 1    
    75   37   39 1    
    76   37  160 1    
    77   38  161 1    
    78   38  162 1    
    79   38  163 1    
    80   39   40 am   BACKBONE|DICT|INTERRES
    81   39  164 1    
    82   40   41 2    
    83   40   42 1    
    84   42   43 1    
    85   42   44 1    
    86   42  165 1    
    87   43  166 1    
    88   43  167 1    
    89   43  168 1    
    90   44   45 am   BACKBONE|DICT|INTERRES
    91   44  169 1    
    92   45   46 2    
    93   45   47 1    
    94   47   48 1    
    95   47   49 1    
    96   47  170 1    
    97   48  171 1    
    98   48  172 1    
    99   48  173 1    
   100   49   50 am   BACKBONE|DICT|INTERRES
   101   49  174 1    
   102   50   51 2    
   103   50   52 1    
   104   52   53 1    
   105   52   54 1    
   106   52  175 1    
   107   53  176 1    
   108   53  177 1    
   109   53  178 1    
   110   54   55 am   BACKBONE|DICT|INTERRES
   111   54  179 1    
   112   55   56 2    
   113   55   57 1    
   114   57   58 1    
   115   57   59 1    
   116   57  180 1    
   117   58  181 1    
   118   58  182 1    
   119   58  183 1    
   120   59   60 am   BACKBONE|DICT|INTERRES
   121   59  184 1    
   122   60   61 2    
   123   60   62 1    
   124   62   63 1    
   125   62   64 1    
   126   62  185 1    
   127   63  186 1    
   128   63  187 1    
   129   63  188 1    
   130   64   65 am   BACKBONE|DICT|INTERRES
   131   64  189 1    
   132   65   66 2    
   133   67   68 2    
   134   67   69 am   BACKBONE|DICT|INTERRES
   135   69   70 1    
   136   69  190 1    
   137   70   71 1    
   138   70   72 1    
   139   70  191 1    
   140   71  192 1    
   141   71  193 1    
   142   71  194 1    
   143   72   73 2    
   144   72   74 am   BACKBONE|DICT|INTERRES
   145   74   75 1    
   146   74  195 1    
   147   75   76 1    
   148   75   77 1    
   149   75  196 1    
   150   76  197 1    
   151   76  198 1    
   152   76  199 1    
   153   77   78 2    
   154   77   79 am   BACKBONE|DICT|INTERRES
   155   79   80 1    
   156   79  200 1    
   157   80   81 1    
   158   80   82 1    
   159   80  201 1    
   160   81  202 1    
   161   81  203 1    
   162   81  204 1    
   163   82   83 2    
   164   82   84 am   BACKBONE|DICT|INTERRES
   165   84   85 1    
   166   84  205 1    
   167   85   86 1    
   168   85   87 1    
   169   85  206 1    
   170   86  207 1    
   171   86  208 1    
   172   86  209 1    
   173   87   88 2    
   174   87   89 am   BACKBONE|DICT|INTERRES
   175   89   90 1    
   176   89  210 1    
   177   90   91 1    
   178   90   92 1    
   179   90  211 1    
   180   91  212 1    
   181   91  213 1    
   182   91  214 1    
   183   92   93 2    
   184   92   94 am   BACKBONE|DICT|INTERRES
   185   94   95 1    
   186   94  215 1    
   187   95   96 1    
   188   95   97 1    
   189   95  216 1    
   190   96  217 1    
   191   96  218 1    
   192   96  219 1    
   193   97   98 2    
   194   97   99 am   BACKBONE|DICT|INTERRES
   195   99  100 1    
   196   99  220 1    
   197  100  101 1    
   198  100  102 1    
   199  100  221 1    
   200  101  222 1    
   201  101  223 1    
   202  101  224 1    
   203  102  103 2    
   204  102  104 am   BACKBONE|DICT|INTERRES
   205  104  105 1    
   206  104  225 1    
   207  105  106 1    
   208  105  107 1    
   209  105  226 1    
   210  106  227 1    
   211  106  228 1    
   212  106  229 1    
   213  107  108 2    
   214  107  109 am   BACKBONE|DICT|INTERRES
   215  109  110 1    
   216  109  230 1    
   217  110  111 1    
   218  110  112 1    
   219  110  231 1    
   220  111  232 1    
   221  111  233 1    
   222  111  234 1    
   223  112  113 2    
   224  112  114 am   BACKBONE|DICT|INTERRES
   225  114  115 1    
   226  114  235 1    
   227  115  116 1    
   228  115  117 1    
   229  115  236 1    
   230  116  237 1    
   231  116  238 1    
   232  116  239 1    
   233  117  118 2    
   234  117  119 am   BACKBONE|DICT|INTERRES
   235  119  120 1    
   236  119  240 1    
   237  120  121 1    
   238  120  124 1    
   239  120  241 1    
   240  121  122 am   BACKBONE|DICT|INTERRES
   241  121  123 2    
   242  122  242 1    
   243  122  243 1    
   244  124  125 1    
   245  124  244 1    
   246  124  245 1    
   247  125  126 1    
   248  126  246 1    
   249  126  247 1    
@<TRIPOS>SUBSTRUCTURE
     1 UNK         1 GROUP             0       ****    0 ROOT    
