@<TRIPOS>MOLECULE
3R540
247   249    1
SMALL
USER_CHARGES


@<TRIPOS>ATOM
      1 CA         -2.5912  -15.3265  -44.3140 C.3       0 UNK        -0.1800 
      2 C          -2.7414  -14.3015  -45.4294 C.2       0 UNK         0.5000 
      3 O          -2.7457  -13.1004  -45.1642 O.2       0 UNK        -0.5000 
      4 N          -2.8949  -14.7791  -46.6695 N.am      1 UNK        -0.5000 
      5 CA         -3.3054  -13.9756  -47.8295 C.3       1 UNK         0.1400 
      6 C6         -4.0560  -14.8359  -48.8765 C.3       23 UNK        -0.0398 
      7 S7         -5.4747  -15.7250  -48.1394 S.3       23 UNK        -0.2404 
      8 C8         -6.2068  -16.5500  -49.5937 C.3       23 UNK        -0.0205 
      9 C9         -5.4182  -17.7161  -50.1959 C.ar      23 UNK        -0.0193 
     10 C10        -5.9023  -18.2796  -51.3789 C.ar      23 UNK        -0.1150 
     11 C11        -5.2119  -19.3094  -52.0180 C.ar      23 UNK        -0.0193 
     12 C12        -4.0345  -19.7987  -51.4490 C.ar      23 UNK        -0.1150 
     13 C13        -3.5306  -19.2634  -50.2608 C.ar      23 UNK        -0.0193 
     14 C14        -4.2403  -18.2299  -49.6335 C.ar      23 UNK        -0.1150 
     15 C15        -2.1900  -19.7951  -49.7443 C.3       23 UNK        -0.0205 
     16 S16        -1.6450  -19.1964  -48.1063 S.3       23 UNK        -0.2404 
     17 C17        -2.5573  -20.3274  -47.0070 C.3       23 UNK        -0.0398 
     18 CA         -1.7615  -21.6263  -46.7367 C.3       11 UNK         0.1400 
     19 N          -0.4820  -21.3984  -46.0567 N.am      11 UNK        -0.5000 
     20 C           0.5117  -22.2974  -46.0306 C.2       10 UNK         0.5000 
     21 O           0.4301  -23.4110  -46.5467 O.2       10 UNK        -0.5000 
     22 CA          1.7946  -21.9192  -45.2736 C.3       10 UNK         0.1400 
     23 CB          2.6578  -20.9624  -46.1076 C.3       10 UNK        -0.1800 
     24 N           1.5477  -21.3455  -43.9509 N.am      10 UNK        -0.5000 
     25 C           0.9517  -21.9950  -42.9403 C.2       9 UNK         0.5000 
     26 O           0.4580  -23.1180  -43.0446 O.2       9 UNK        -0.5000 
     27 CA          0.8862  -21.2613  -41.5919 C.3       9 UNK         0.1400 
     28 CB          2.2609  -21.2464  -40.9052 C.3       9 UNK        -0.1800 
     29 N           0.4136  -19.8921  -41.7703 N.am      9 UNK        -0.5000 
     30 C          -0.8795  -19.5463  -41.8213 C.2       8 UNK         0.5000 
     31 O          -1.8068  -20.3300  -41.6200 O.2       8 UNK        -0.5000 
     32 CA         -1.1955  -18.0834  -42.1862 C.3       8 UNK         0.1400 
     33 CB         -1.3418  -17.2303  -40.9182 C.3       8 UNK        -0.1800 
     34 N          -0.2005  -17.4791  -43.0773 N.am      8 UNK        -0.5000 
     35 C           0.0316  -17.9040  -44.3283 C.2       7 UNK         0.5000 
     36 O          -0.5735  -18.8385  -44.8491 O.2       7 UNK        -0.5000 
     37 CA          1.1483  -17.2113  -45.1241 C.3       7 UNK         0.1400 
     38 CB          0.6033  -16.0151  -45.9151 C.3       7 UNK        -0.1800 
     39 N           2.2854  -16.7866  -44.3105 N.am      7 UNK        -0.5000 
     40 C           3.0765  -17.6016  -43.5984 C.2       6 UNK         0.5000 
     41 O           2.8686  -18.8078  -43.4583 O.2       6 UNK        -0.5000 
     42 CA          4.2947  -16.9545  -42.9241 C.3       6 UNK         0.1400 
     43 CB          5.3965  -16.6757  -43.9584 C.3       6 UNK        -0.1800 
     44 N           3.9170  -15.7017  -42.2741 N.am      6 UNK        -0.5000 
     45 C           3.6693  -15.5702  -40.9649 C.2       5 UNK         0.5000 
     46 O           3.8141  -16.4776  -40.1447 O.2       5 UNK        -0.5000 
     47 CA          3.1629  -14.1955  -40.4824 C.3       5 UNK         0.1400 
     48 CB          4.3391  -13.3250  -40.0145 C.3       5 UNK        -0.1800 
     49 N           2.3908  -13.4535  -41.4825 N.am      5 UNK        -0.5000 
     50 C           1.2353  -13.8653  -42.0209 C.2       4 UNK         0.5000 
     51 O           0.6987  -14.9417  -41.7613 O.2       4 UNK        -0.5000 
     52 CA          0.5894  -12.9387  -43.0648 C.3       4 UNK         0.1400 
     53 CB         -0.2426  -11.8479  -42.3752 C.3       4 UNK        -0.1800 
     54 N           1.5006  -12.3166  -44.0307 N.am      4 UNK        -0.5000 
     55 C           2.4685  -12.9222  -44.7320 C.2       3 UNK         0.5000 
     56 O           2.8820  -14.0620  -44.5111 O.2       3 UNK        -0.5000 
     57 CA          3.0021  -12.1503  -45.9499 C.3       3 UNK         0.1400 
     58 CB          4.5017  -12.4080  -46.1759 C.3       3 UNK        -0.1800 
     59 N           2.2622  -12.5626  -47.1430 N.am      3 UNK        -0.5000 
     60 C           0.9889  -12.2416  -47.4144 C.2       2 UNK         0.5000 
     61 O           0.3327  -11.4512  -46.7339 O.2       2 UNK        -0.5000 
     62 CA          0.3275  -12.9059  -48.6376 C.3       2 UNK         0.1400 
     63 CB          1.2371  -13.9020  -49.3872 C.3       2 UNK        -0.1800 
     64 N          -0.8930  -13.5895  -48.2033 N.am      2 UNK        -0.5000 
     65 C          -2.1426  -13.1917  -48.4800 C.2       1 UNK         0.5000 
     66 O          -2.4068  -12.2386  -49.2146 O.2       1 UNK        -0.5000 
     67 C          -2.6305  -22.6606  -46.0007 C.2       11 UNK         0.5000 
     68 O          -3.3918  -23.3674  -46.6599 O.2       11 UNK        -0.5000 
     69 N          -2.4818  -22.7682  -44.6724 N.am      12 UNK        -0.5000 
     70 CA         -3.1260  -23.8026  -43.8638 C.3       12 UNK         0.1400 
     71 CB         -3.0404  -23.4358  -42.3750 C.3       12 UNK        -0.1800 
     72 C          -2.5195  -25.1910  -44.1325 C.2       12 UNK         0.5000 
     73 O          -3.2672  -26.1513  -44.3166 O.2       12 UNK        -0.5000 
     74 N          -1.1818  -25.2624  -44.1954 N.am      13 UNK        -0.5000 
     75 CA         -0.4243  -26.4739  -44.5148 C.3       13 UNK         0.1400 
     76 CB          1.0692  -26.2251  -44.2542 C.3       13 UNK        -0.1800 
     77 C          -0.6541  -26.9601  -45.9583 C.2       13 UNK         0.5000 
     78 O          -0.8193  -28.1607  -46.1772 O.2       13 UNK        -0.5000 
     79 N          -0.6851  -26.0184  -46.9109 N.am      14 UNK        -0.5000 
     80 CA         -0.9495  -26.2714  -48.3291 C.3       14 UNK         0.1400 
     81 CB         -0.4441  -25.0720  -49.1463 C.3       14 UNK        -0.1800 
     82 C          -2.4354  -26.5397  -48.6426 C.2       14 UNK         0.5000 
     83 O          -2.7350  -27.0222  -49.7346 O.2       14 UNK        -0.5000 
     84 N          -3.3294  -26.2026  -47.7007 N.am      15 UNK        -0.5000 
     85 CA         -4.7922  -26.2632  -47.7896 C.3       15 UNK         0.1400 
     86 CB         -5.2775  -27.7253  -47.8747 C.3       15 UNK        -0.1800 
     87 C          -5.3468  -25.3640  -48.9160 C.2       15 UNK         0.5000 
     88 O          -6.2083  -25.7930  -49.6859 O.2       15 UNK        -0.5000 
     89 N          -4.8195  -24.1311  -48.9810 N.am      16 UNK        -0.5000 
     90 CA         -5.1039  -23.0789  -49.9628 C.3       16 UNK         0.1400 
     91 CB         -6.5061  -22.4829  -49.7268 C.3       16 UNK        -0.1800 
     92 C          -4.8791  -23.5496  -51.4156 C.2       16 UNK         0.5000 
     93 O          -5.7984  -23.5068  -52.2361 O.2       16 UNK        -0.5000 
     94 N          -3.6565  -24.0272  -51.6883 N.am      17 UNK        -0.5000 
     95 CA         -3.2167  -24.5212  -52.9949 C.3       17 UNK         0.1400 
     96 CB         -1.7931  -25.0822  -52.8664 C.3       17 UNK        -0.1800 
     97 C          -3.2691  -23.4419  -54.0927 C.2       17 UNK         0.5000 
     98 O          -3.0124  -22.2687  -53.8146 O.2       17 UNK        -0.5000 
     99 N          -3.5879  -23.8692  -55.3209 N.am      18 UNK        -0.5000 
    100 CA        -3.7581  -23.0134  -56.4942 C.3       18 UNK         0.1400 
    101 CB        -4.1640  -23.8790  -57.6972 C.3       18 UNK        -0.1800 
    102 C         -2.5036  -22.1809  -56.8189 C.2       18 UNK         0.5000 
    103 O         -1.4165  -22.7415  -56.9730 O.2       18 UNK        -0.5000 
    104 N         -2.7023  -20.8605  -56.9116 N.am      19 UNK        -0.5000 
    105 CA        -1.7192  -19.8128  -57.1990 C.3       19 UNK         0.1400 
    106 CB        -1.1055  -20.0035  -58.6023 C.3       19 UNK        -0.1800 
    107 C         -0.6465  -19.6109  -56.1056 C.2       19 UNK         0.5000 
    108 O          0.3545  -18.9445  -56.3745 O.2       19 UNK        -0.5000 
    109 N         -0.8586  -20.1502  -54.8937 N.am      20 UNK        -0.5000 
    110 CA         0.0715  -19.9988  -53.7704 C.3       20 UNK         0.1400 
    111 CB        -0.2267  -21.0508  -52.6923 C.3       20 UNK        -0.1800 
    112 C          0.0650  -18.5721  -53.1877 C.2       20 UNK         0.5000 
    113 O          1.1355  -18.0049  -52.9666 O.2       20 UNK        -0.5000 
    114 N         -1.1338  -18.0094  -52.9859 N.am      21 UNK        -0.5000 
    115 CA        -1.3569  -16.6318  -52.5331 C.3       21 UNK         0.1400 
    116 CB        -1.0224  -16.4764  -51.0343 C.3       21 UNK        -0.1800 
    117 C         -2.7915  -16.1776  -52.8617 C.2       21 UNK         0.5000 
    118 O         -3.3692  -15.3797  -52.1229 O.2       21 UNK        -0.5000 
    119 N         -3.3569  -16.7131  -53.9516 N.am      22 UNK        -0.5000 
    120 CA        -4.7783  -16.5597  -54.3092 C.3       22 UNK         0.1400 
    121 C         -5.1642  -15.1860  -54.9335 C.2       22 UNK         0.5000 
    122 N         -4.2212  -14.3054  -55.2442 N.am      22 UNK        -0.7600 
    123 O         -6.3439  -14.9131  -55.1378 O.2       22 UNK        -0.5000 
    124 C124       -5.3065  -17.7328  -55.1814 C.3       23 UNK        -0.0398 
    125 S125       -4.6794  -19.3914  -54.7350 S.3       23 UNK        -0.2404 
    126 C126       -5.7247  -19.8854  -53.3292 C.3       23 UNK        -0.0205 
    127 H127       -2.5395  -16.3428  -44.7050 H         1 UNK         0.0600 
    128 H128       -3.4459  -15.2697  -43.6402 H         1 UNK         0.0600 
    129 H129       -1.6929  -15.1388  -43.7299 H         1 UNK         0.0600 
    130 H130       -2.9008  -15.7783  -46.8159 H         1 UNK         0.3000 
    131 H131       -4.0127  -13.2222  -47.4747 H         1 UNK         0.0600 
    132 H132       -4.4283  -14.2102  -49.6898 H         1 UNK         0.0800 
    133 H133       -3.3788  -15.5579  -49.3332 H         1 UNK         0.0800 
    134 H134       -7.1918  -16.9198  -49.3062 H         1 UNK         0.0800 
    135 H135       -6.3742  -15.7981  -50.3666 H         1 UNK         0.0800 
    136 H136       -6.8114  -17.8948  -51.8195 H         1 UNK         0.1150 
    137 H137       -3.4994  -20.5904  -51.9516 H         1 UNK         0.1150 
    138 H138       -3.8597  -17.8067  -48.7188 H         1 UNK         0.1150 
    139 H139       -2.2027  -20.8855  -49.7449 H         1 UNK         0.0800 
    140 H140       -1.4204  -19.5023  -50.4575 H         1 UNK         0.0800 
    141 H141       -3.5256  -20.5463  -47.4618 H         1 UNK         0.0800 
    142 H142       -2.7713  -19.8058  -46.0729 H         1 UNK         0.0800 
    143 H143       -1.5325  -22.0682  -47.7085 H         1 UNK         0.0600 
    144 H144       -0.3700  -20.4943  -45.6014 H         1 UNK         0.3000 
    145 H145        2.3671  -22.8369  -45.1232 H         1 UNK         0.0600 
    146 H146        3.5810  -20.7046  -45.5882 H         1 UNK         0.0600 
    147 H147        2.9349  -21.4191  -47.0585 H         1 UNK         0.0600 
    148 H148        2.1286  -20.0384  -46.3335 H         1 UNK         0.0600 
    149 H149        1.9410  -20.4243  -43.7769 H         1 UNK         0.3000 
    150 H150        0.1957  -21.8060  -40.9441 H         1 UNK         0.0600 
    151 H151        2.6309  -22.2612  -40.7539 H         1 UNK         0.0600 
    152 H152        2.2047  -20.7716  -39.9255 H         1 UNK         0.0600 
    153 H153        3.0061  -20.7098  -41.4933 H         1 UNK         0.0600 
    154 H154        1.1105  -19.1963  -42.0000 H         1 UNK         0.3000 
    155 H155       -2.1549  -18.0794  -42.7077 H         1 UNK         0.0600 
    156 H156       -0.3988  -17.1528  -40.3756 H         1 UNK         0.0600 
    157 H157       -1.6748  -16.2209  -41.1599 H         1 UNK         0.0600 
    158 H158       -2.0791  -17.6602  -40.2389 H         1 UNK         0.0600 
    159 H159        0.3249  -16.6930  -42.7068 H         1 UNK         0.3000 
    160 H160        1.5238  -17.9333  -45.8488 H         1 UNK         0.0600 
    161 H161        1.3757  -15.5907  -46.5552 H         1 UNK         0.0600 
    162 H162        0.2489  -15.2251  -45.2556 H         1 UNK         0.0600 
    163 H163       -0.2255  -16.3175  -46.5566 H         1 UNK         0.0600 
    164 H164        2.5298  -15.8000  -44.3668 H         1 UNK         0.3000 
    165 H165        4.6904  -17.6632  -42.1936 H         1 UNK         0.0600 
    166 H166        6.2879  -16.2689  -43.4807 H         1 UNK         0.0600 
    167 H167        5.6915  -17.5920  -44.4714 H         1 UNK         0.0600 
    168 H168        5.0707  -15.9630  -44.7175 H         1 UNK         0.0600 
    169 H169        3.7177  -14.9182  -42.8868 H         1 UNK         0.3000 
    170 H170        2.5079  -14.3733  -39.6270 H         1 UNK         0.0600 
    171 H171        5.0145  -13.0867  -40.8373 H         1 UNK         0.0600 
    172 H172        3.9896  -12.3869  -39.5830 H         1 UNK         0.0600 
    173 H173        4.9231  -13.8359  -39.2478 H         1 UNK         0.0600 
    174 H174        2.7678  -12.5664  -41.7821 H         1 UNK         0.3000 
    175 H175       -0.0961  -13.5490  -43.6502 H         1 UNK         0.0600 
    176 H176       -0.8289  -11.2834  -43.1008 H         1 UNK         0.0600 
    177 H177        0.3880  -11.1444  -41.8303 H         1 UNK         0.0600 
    178 H178       -0.9452  -12.2823  -41.6626 H         1 UNK         0.0600 
    179 H179        1.2217  -11.3970  -44.3436 H         1 UNK         0.3000 
    180 H180        2.8596  -11.0798  -45.7872 H         1 UNK         0.0600 
    181 H181        4.7078  -13.4583  -46.3873 H         1 UNK         0.0600 
    182 H182        5.0811  -12.1315  -45.2942 H         1 UNK         0.0600 
    183 H183        4.8801  -11.8189  -47.0114 H         1 UNK         0.0600 
    184 H184        2.7261  -13.2294  -47.7423 H         1 UNK         0.3000 
    185 H185        0.0907  -12.0959  -49.3301 H         1 UNK         0.0600 
    186 H186        1.4730  -14.7808  -48.7872 H         1 UNK         0.0600 
    187 H187        0.7586  -14.2463  -50.3024 H         1 UNK         0.0600 
    188 H188        2.1754  -13.4367  -49.6917 H         1 UNK         0.0600 
    189 H189       -0.7768  -14.3439  -47.5439 H         1 UNK         0.3000 
    190 H190       -1.8147  -22.1704  -44.2058 H         1 UNK         0.3000 
    191 H191       -4.1827  -23.8421  -44.1376 H         1 UNK         0.0600 
    192 H192       -3.5406  -22.4881  -42.1755 H         1 UNK         0.0600 
    193 H193       -3.5244  -24.1941  -41.7584 H         1 UNK         0.0600 
    194 H194       -2.0089  -23.3462  -42.0346 H         1 UNK         0.0600 
    195 H195       -0.6361  -24.4308  -43.9868 H         1 UNK         0.3000 
    196 H196       -0.7588  -27.2651  -43.8407 H         1 UNK         0.0600 
    197 H197        1.6581  -27.1180  -44.4677 H         1 UNK         0.0600 
    198 H198        1.2475  -25.9586  -43.2122 H         1 UNK         0.0600 
    199 H199        1.4579  -25.4174  -44.8753 H         1 UNK         0.0600 
    200 H200       -0.4585  -25.0589  -46.6585 H         1 UNK         0.3000 
    201 H201       -0.3838  -27.1541  -48.6343 H         1 UNK         0.0600 
    202 H202        0.6095  -24.8747  -48.9479 H         1 UNK         0.0600 
    203 H203       -1.0039  -24.1646  -48.9176 H         1 UNK         0.0600 
    204 H204       -0.5386  -25.2590  -50.2151 H         1 UNK         0.0600 
    205 H205       -2.9706  -25.7885  -46.8511 H         1 UNK         0.3000 
    206 H206       -5.1694  -25.8467  -46.8544 H         1 UNK         0.0600 
    207 H207       -4.8763  -28.3203  -47.0542 H         1 UNK         0.0600 
    208 H208       -6.3649  -27.7790  -47.8128 H         1 UNK         0.0600 
    209 H209       -4.9799  -28.1996  -48.8102 H         1 UNK         0.0600 
    210 H210       -4.1625  -23.8796  -48.2449 H         1 UNK         0.3000 
    211 H211       -4.3797  -22.2843  -49.7796 H         1 UNK         0.0600 
    212 H212       -7.2935  -23.2183  -49.8948 H         1 UNK         0.0600 
    213 H213       -6.6897  -21.6439  -50.3994 H         1 UNK         0.0600 
    214 H214       -6.6072  -22.1087  -48.7081 H         1 UNK         0.0600 
    215 H215       -2.9699  -24.0455  -50.9509 H         1 UNK         0.3000 
    216 H216       -3.8857  -25.3362  -53.2784 H         1 UNK         0.0600 
    217 H217       -1.4240  -25.4415  -53.8279 H         1 UNK         0.0600 
    218 H218       -1.7648  -25.9255  -52.1766 H         1 UNK         0.0600 
    219 H219       -1.0935  -24.3255  -52.5095 H         1 UNK         0.0600 
    220 H220       -3.7444  -24.8555  -55.4667 H         1 UNK         0.3000 
    221 H221       -4.5845  -22.3335  -56.2754 H         1 UNK         0.0600 
    222 H222       -3.3984  -24.6180  -57.9375 H         1 UNK         0.0600 
    223 H223       -5.0966  -24.4103  -57.5062 H         1 UNK         0.0600 
    224 H224       -4.3172  -23.2648  -58.5855 H         1 UNK         0.0600 
    225 H225       -3.6301  -20.5154  -56.7025 H         1 UNK         0.3000 
    226 H226       -2.2871  -18.8816  -57.2208 H         1 UNK         0.0600 
    227 H227       -1.8804  -20.1298  -59.3584 H         1 UNK         0.0600 
    228 H228       -0.5118  -19.1359  -58.8927 H         1 UNK         0.0600 
    229 H229       -0.4501  -20.8738  -58.6438 H         1 UNK         0.0600 
    230 H230       -1.6892  -20.7094  -54.7335 H         1 UNK         0.3000 
    231 H231        1.0808  -20.1937  -54.1398 H         1 UNK         0.0600 
    232 H232       -1.2450  -20.9683  -52.3179 H         1 UNK         0.0600 
    233 H233        0.4482  -20.9454  -51.8419 H         1 UNK         0.0600 
    234 H234       -0.1002  -22.0593  -53.0860 H         1 UNK         0.0600 
    235 H235       -1.9660  -18.5528  -53.1696 H         1 UNK         0.3000 
    236 H236       -0.6940  -15.9749  -53.0994 H         1 UNK         0.0600 
    237 H237       -1.1586  -15.4449  -50.7103 H         1 UNK         0.0600 
    238 H238       -1.6703  -17.0909  -50.4137 H         1 UNK         0.0600 
    239 H239        0.0095  -16.7492  -50.8157 H         1 UNK         0.0600 
    240 H240       -2.8145  -17.3209  -54.5450 H         1 UNK         0.3000 
    241 H241       -5.3376  -16.5935  -53.3751 H         1 UNK         0.0600 
    242 H242       -3.2513  -14.5120  -55.0682 H         1 UNK         0.3800 
    243 H243       -4.4814  -13.4175  -55.6442 H         1 UNK         0.3800 
    244 H244       -6.3974  -17.7537  -55.1654 H         1 UNK         0.0800 
    245 H245       -5.0292  -17.5705  -56.2245 H         1 UNK         0.0800 
    246 H246       -5.7182  -20.9738  -53.2615 H         1 UNK         0.0800 
    247 H247       -6.7604  -19.5965  -53.5129 H         1 UNK         0.0800 
@<TRIPOS>BOND
     1    1    2 1    
     2    1  127 1    
     3    1  128 1    
     4    1  129 1    
     5    2    3 2    
     6    2    4 am   BACKBONE|DICT|INTERRES
     7    4    5 1    
     8    4  130 1    
     9    5    6 1    
    10    5   65 1    
    11    5  131 1    
    12    6    7 1    
    13    6  132 1    
    14    6  133 1    
    15    7    8 1    
    16    8    9 1    
    17    8  134 1    
    18    8  135 1    
    19    9   10 ar   
    20    9   14 ar   
    21   10   11 ar   
    22   10  136 1    
    23   11   12 ar   
    24   11  126 1    
    25   12   13 ar   
    26   12  137 1    
    27   13   14 ar   
    28   13   15 1    
    29   14  138 1    
    30   15   16 1    
    31   15  139 1    
    32   15  140 1    
    33   16   17 1    
    34   17   18 1    
    35   17  141 1    
    36   17  142 1    
    37   18   19 1    
    38   18   67 1    
    39   18  143 1    
    40   19   20 am   BACKBONE|DICT|INTERRES
    41   19  144 1    
    42   20   21 2    
    43   20   22 1    
    44   22   23 1    
    45   22   24 1    
    46   22  145 1    
    47   23  146 1    
    48   23  147 1    
    49   23  148 1    
    50   24   25 am   BACKBONE|DICT|INTERRES
    51   24  149 1    
    52   25   26 2    
    53   25   27 1    
    54   27   28 1    
    55   27   29 1    
    56   27  150 1    
    57   28  151 1    
    58   28  152 1    
    59   28  153 1    
    60   29   30 am   BACKBONE|DICT|INTERRES
    61   29  154 1    
    62   30   31 2    
    63   30   32 1    
    64   32   33 1    
    65   32   34 1    
    66   32  155 1    
    67   33  156 1    
    68   33  157 1    
    69   33  158 1    
    70   34   35 am   BACKBONE|DICT|INTERRES
    71   34  159 1    
    72   35   36 2    
    73   35   37 1    
    74   37   38 1    
    75   37   39 1    
    76   37  160 1    
    77   38  161 1    
    78   38  162 1    
    79   38  163 1    
    80   39   40 am   BACKBONE|DICT|INTERRES
    81   39  164 1    
    82   40   41 2    
    83   40   42 1    
    84   42   43 1    
    85   42   44 1    
    86   42  165 1    
    87   43  166 1    
    88   43  167 1    
    89   43  168 1    
    90   44   45 am   BACKBONE|DICT|INTERRES
    91   44  169 1    
    92   45   46 2    
    93   45   47 1    
    94   47   48 1    
    95   47   49 1    
    96   47  170 1    
    97   48  171 1    
    98   48  172 1    
    99   48  173 1    
   100   49   50 am   BACKBONE|DICT|INTERRES
   101   49  174 1    
   102   50   51 2    
   103   50   52 1    
   104   52   53 1    
   105   52   54 1    
   106   52  175 1    
   107   53  176 1    
   108   53  177 1    
   109   53  178 1    
   110   54   55 am   BACKBONE|DICT|INTERRES
   111   54  179 1    
   112   55   56 2    
   113   55   57 1    
   114   57   58 1    
   115   57   59 1    
   116   57  180 1    
   117   58  181 1    
   118   58  182 1    
   119   58  183 1    
   120   59   60 am   BACKBONE|DICT|INTERRES
   121   59  184 1    
   122   60   61 2    
   123   60   62 1    
   124   62   63 1    
   125   62   64 1    
   126   62  185 1    
   127   63  186 1    
   128   63  187 1    
   129   63  188 1    
   130   64   65 am   BACKBONE|DICT|INTERRES
   131   64  189 1    
   132   65   66 2    
   133   67   68 2    
   134   67   69 am   BACKBONE|DICT|INTERRES
   135   69   70 1    
   136   69  190 1    
   137   70   71 1    
   138   70   72 1    
   139   70  191 1    
   140   71  192 1    
   141   71  193 1    
   142   71  194 1    
   143   72   73 2    
   144   72   74 am   BACKBONE|DICT|INTERRES
   145   74   75 1    
   146   74  195 1    
   147   75   76 1    
   148   75   77 1    
   149   75  196 1    
   150   76  197 1    
   151   76  198 1    
   152   76  199 1    
   153   77   78 2    
   154   77   79 am   BACKBONE|DICT|INTERRES
   155   79   80 1    
   156   79  200 1    
   157   80   81 1    
   158   80   82 1    
   159   80  201 1    
   160   81  202 1    
   161   81  203 1    
   162   81  204 1    
   163   82   83 2    
   164   82   84 am   BACKBONE|DICT|INTERRES
   165   84   85 1    
   166   84  205 1    
   167   85   86 1    
   168   85   87 1    
   169   85  206 1    
   170   86  207 1    
   171   86  208 1    
   172   86  209 1    
   173   87   88 2    
   174   87   89 am   BACKBONE|DICT|INTERRES
   175   89   90 1    
   176   89  210 1    
   177   90   91 1    
   178   90   92 1    
   179   90  211 1    
   180   91  212 1    
   181   91  213 1    
   182   91  214 1    
   183   92   93 2    
   184   92   94 am   BACKBONE|DICT|INTERRES
   185   94   95 1    
   186   94  215 1    
   187   95   96 1    
   188   95   97 1    
   189   95  216 1    
   190   96  217 1    
   191   96  218 1    
   192   96  219 1    
   193   97   98 2    
   194   97   99 am   BACKBONE|DICT|INTERRES
   195   99  100 1    
   196   99  220 1    
   197  100  101 1    
   198  100  102 1    
   199  100  221 1    
   200  101  222 1    
   201  101  223 1    
   202  101  224 1    
   203  102  103 2    
   204  102  104 am   BACKBONE|DICT|INTERRES
   205  104  105 1    
   206  104  225 1    
   207  105  106 1    
   208  105  107 1    
   209  105  226 1    
   210  106  227 1    
   211  106  228 1    
   212  106  229 1    
   213  107  108 2    
   214  107  109 am   BACKBONE|DICT|INTERRES
   215  109  110 1    
   216  109  230 1    
   217  110  111 1    
   218  110  112 1    
   219  110  231 1    
   220  111  232 1    
   221  111  233 1    
   222  111  234 1    
   223  112  113 2    
   224  112  114 am   BACKBONE|DICT|INTERRES
   225  114  115 1    
   226  114  235 1    
   227  115  116 1    
   228  115  117 1    
   229  115  236 1    
   230  116  237 1    
   231  116  238 1    
   232  116  239 1    
   233  117  118 2    
   234  117  119 am   BACKBONE|DICT|INTERRES
   235  119  120 1    
   236  119  240 1    
   237  120  121 1    
   238  120  124 1    
   239  120  241 1    
   240  121  122 am   BACKBONE|DICT|INTERRES
   241  121  123 2    
   242  122  242 1    
   243  122  243 1    
   244  124  125 1    
   245  124  244 1    
   246  124  245 1    
   247  125  126 1    
   248  126  246 1    
   249  126  247 1    
@<TRIPOS>SUBSTRUCTURE
     1 UNK         1 GROUP             0       ****    0 ROOT    
