@<TRIPOS>MOLECULE
3R540
247   249    1
SMALL
USER_CHARGES


@<TRIPOS>ATOM
      1 CA          6.8665  -18.4728  -46.8442 C.3       0 UNK        -0.1800 
      2 C           5.6348  -17.5944  -46.6813 C.2       0 UNK         0.5000 
      3 O           5.2098  -17.3372  -45.5566 O.2       0 UNK        -0.5000 
      4 N           5.0614  -17.1288  -47.7976 N.am      1 UNK        -0.5000 
      5 CA          3.8760  -16.2661  -47.8654 C.3       1 UNK         0.1400 
      6 C6          3.1578  -16.4479  -49.2287 C.3       23 UNK        -0.0398 
      7 S7          1.3926  -15.9839  -49.1887 S.3       23 UNK        -0.2404 
      8 C8          0.5905  -17.6008  -49.4082 C.3       23 UNK        -0.0205 
      9 C9         -0.8725  -17.4497  -49.7925 C.ar      23 UNK        -0.0193 
     10 C10        -1.2260  -17.2542  -51.1312 C.ar      23 UNK        -0.1150 
     11 C11        -2.5696  -17.1641  -51.5054 C.ar      23 UNK        -0.0193 
     12 C12        -3.5630  -17.2907  -50.5317 C.ar      23 UNK        -0.1150 
     13 C13        -3.2239  -17.4844  -49.1893 C.ar      23 UNK        -0.0193 
     14 C14        -1.8750  -17.5399  -48.8234 C.ar      23 UNK        -0.1150 
     15 C15        -4.3198  -17.6264  -48.1428 C.3       23 UNK        -0.0205 
     16 S16        -4.5845  -19.3645  -47.6610 S.3       23 UNK        -0.2404 
     17 C17        -3.3156  -19.5972  -46.3699 C.3       23 UNK        -0.0398 
     18 CA         -2.1034  -20.4240  -46.8638 C.3       11 UNK         0.1400 
     19 N          -0.8861  -20.1412  -46.1038 N.am      11 UNK        -0.5000 
     20 C           0.3302  -20.6022  -46.4279 C.2       10 UNK         0.5000 
     21 O           0.5689  -21.2335  -47.4573 O.2       10 UNK        -0.5000 
     22 CA          1.4595  -20.3584  -45.4150 C.3       10 UNK         0.1400 
     23 CB          2.2797  -19.1236  -45.8054 C.3       10 UNK        -0.1800 
     24 N           0.9544  -20.2053  -44.0497 N.am      10 UNK        -0.5000 
     25 C           0.5158  -21.2202  -43.2960 C.2       9 UNK         0.5000 
     26 O           0.4908  -22.3913  -43.6742 O.2       9 UNK        -0.5000 
     27 CA         -0.0389  -20.8554  -41.9084 C.3       9 UNK         0.1400 
     28 CB          1.0814  -20.3735  -40.9734 C.3       9 UNK        -0.1800 
     29 N          -1.1112  -19.8564  -41.9402 N.am      9 UNK        -0.5000 
     30 C          -2.2685  -19.9920  -42.6013 C.2       8 UNK         0.5000 
     31 O          -2.5138  -20.9173  -43.3740 O.2       8 UNK        -0.5000 
     32 CA         -3.3389  -18.9260  -42.3477 C.3       8 UNK         0.1400 
     33 CB         -3.8717  -19.0226  -40.9037 C.3       8 UNK        -0.1800 
     34 N          -2.8502  -17.5771  -42.6386 N.am      8 UNK        -0.5000 
     35 C          -3.6637  -16.5290  -42.8423 C.2       7 UNK         0.5000 
     36 O          -4.8928  -16.6120  -42.8323 O.2       7 UNK        -0.5000 
     37 CA         -3.0243  -15.1484  -43.0874 C.3       7 UNK         0.1400 
     38 CB         -2.9756  -14.3450  -41.7789 C.3       7 UNK        -0.1800 
     39 N          -1.6811  -15.2034  -43.6592 N.am      7 UNK        -0.5000 
     40 C          -1.3973  -15.6072  -44.9058 C.2       6 UNK         0.5000 
     41 O          -2.2491  -15.9896  -45.7052 O.2       6 UNK        -0.5000 
     42 CA          0.0825  -15.5845  -45.3393 C.3       6 UNK         0.1400 
     43 CB          0.3615  -14.3315  -46.1822 C.3       6 UNK        -0.1800 
     44 N           1.0376  -15.6119  -44.2292 N.am      6 UNK        -0.5000 
     45 C           1.1304  -16.5542  -43.2806 C.2       5 UNK         0.5000 
     46 O           0.4406  -17.5733  -43.2625 O.2       5 UNK        -0.5000 
     47 CA          2.1178  -16.2831  -42.1313 C.3       5 UNK         0.1400 
     48 CB          3.4275  -17.0501  -42.3575 C.3       5 UNK        -0.1800 
     49 N           2.3959  -14.8518  -41.9567 N.am      5 UNK        -0.5000 
     50 C           1.5013  -13.9691  -41.4817 C.2       4 UNK         0.5000 
     51 O           0.3688  -14.3004  -41.1291 O.2       4 UNK        -0.5000 
     52 CA          1.8742  -12.4702  -41.4526 C.3       4 UNK         0.1400 
     53 CB          1.5960  -11.8332  -40.0755 C.3       4 UNK        -0.1800 
     54 N           3.2268  -12.1566  -41.9296 N.am      4 UNK        -0.5000 
     55 C           4.4009  -12.4388  -41.3463 C.2       3 UNK         0.5000 
     56 O           4.5109  -12.9996  -40.2551 O.2       3 UNK        -0.5000 
     57 CA          5.6596  -12.0498  -42.1554 C.3       3 UNK         0.1400 
     58 CB          6.9265  -12.7867  -41.6720 C.3       3 UNK        -0.1800 
     59 N           5.5047  -12.2130  -43.6109 N.am      3 UNK        -0.5000 
     60 C           5.1748  -13.3411  -44.2578 C.2       2 UNK         0.5000 
     61 O           4.8552  -14.3856  -43.6861 O.2       2 UNK        -0.5000 
     62 CA          5.1979  -13.2882  -45.7941 C.3       2 UNK         0.1400 
     63 CB          6.6196  -13.0150  -46.3238 C.3       2 UNK        -0.1800 
     64 N           4.7160  -14.5625  -46.3174 N.am      2 UNK        -0.5000 
     65 C           4.2522  -14.7974  -47.5482 C.2       1 UNK         0.5000 
     66 O           4.1587  -13.9234  -48.4118 O.2       1 UNK        -0.5000 
     67 C          -2.3944  -21.9357  -46.8796 C.2       11 UNK         0.5000 
     68 O          -2.5754  -22.5092  -47.9509 O.2       11 UNK        -0.5000 
     69 N          -2.3697  -22.5654  -45.6997 N.am      12 UNK        -0.5000 
     70 CA         -2.5157  -24.0072  -45.5370 C.3       12 UNK         0.1400 
     71 CB         -2.7383  -24.3293  -44.0513 C.3       12 UNK        -0.1800 
     72 C          -1.3146  -24.7899  -46.0983 C.2       12 UNK         0.5000 
     73 O          -1.5148  -25.7239  -46.8751 O.2       12 UNK        -0.5000 
     74 N          -0.0978  -24.4094  -45.6842 N.am      13 UNK        -0.5000 
     75 CA          1.1245  -25.1667  -45.9522 C.3       13 UNK         0.1400 
     76 CB          2.2330  -24.7206  -44.9860 C.3       13 UNK        -0.1800 
     77 C           1.6181  -25.0835  -47.4060 C.2       13 UNK         0.5000 
     78 O           1.9625  -26.1188  -47.9780 O.2       13 UNK        -0.5000 
     79 N           1.6848  -23.8676  -47.9638 N.am      14 UNK        -0.5000 
     80 CA          2.2977  -23.6102  -49.2675 C.3       14 UNK         0.1400 
     81 CB          3.1991  -22.3660  -49.1821 C.3       14 UNK        -0.1800 
     82 C           1.2431  -23.4459  -50.3688 C.2       14 UNK         0.5000 
     83 O           1.3991  -24.0304  -51.4416 O.2       14 UNK        -0.5000 
     84 N           0.1944  -22.6565  -50.0976 N.am      15 UNK        -0.5000 
     85 CA         -0.8343  -22.3203  -51.0876 C.3       15 UNK         0.1400 
     86 CB         -1.4235  -20.9383  -50.7647 C.3       15 UNK        -0.1800 
     87 C          -1.9402  -23.3872  -51.2196 C.2       15 UNK         0.5000 
     88 O          -2.7474  -23.2849  -52.1418 O.2       15 UNK        -0.5000 
     89 N          -1.9678  -24.3745  -50.3100 N.am      16 UNK        -0.5000 
     90 CA         -2.9268  -25.4847  -50.2264 C.3       16 UNK         0.1400 
     91 CB         -2.7802  -26.4275  -51.4393 C.3       16 UNK        -0.1800 
     92 C          -4.3755  -24.9985  -50.0073 C.2       16 UNK         0.5000 
     93 O          -5.2874  -25.3893  -50.7386 O.2       16 UNK        -0.5000 
     94 N          -4.5412  -24.1106  -49.0162 N.am      17 UNK        -0.5000 
     95 CA         -5.7590  -23.3690  -48.6650 C.3       17 UNK         0.1400 
     96 CB         -6.8758  -24.3188  -48.1856 C.3       17 UNK        -0.1800 
     97 C          -6.1992  -22.4243  -49.8022 C.2       17 UNK         0.5000 
     98 O          -7.3935  -22.2593  -50.0511 O.2       17 UNK        -0.5000 
     99 N          -5.1972  -21.8690  -50.4983 N.am      18 UNK        -0.5000 
    100 CA        -5.2500  -21.0489  -51.7127 C.3       18 UNK         0.1400 
    101 CB        -6.1171  -19.7911  -51.5088 C.3       18 UNK        -0.1800 
    102 C         -5.6596  -21.8142  -52.9883 C.2       18 UNK         0.5000 
    103 O         -5.5638  -21.2381  -54.0704 O.2       18 UNK        -0.5000 
    104 N         -6.0987  -23.0774  -52.8723 N.am      19 UNK        -0.5000 
    105 CA        -6.6042  -23.9341  -53.9488 C.3       19 UNK         0.1400 
    106 CB        -5.4345  -24.4160  -54.8357 C.3       19 UNK        -0.1800 
    107 C         -7.7496  -23.2403  -54.7216 C.2       19 UNK         0.5000 
    108 O         -8.7605  -22.8890  -54.1102 O.2       19 UNK        -0.5000 
    109 N         -7.5625  -22.9961  -56.0246 N.am      20 UNK        -0.5000 
    110 CA        -8.4630  -22.2240  -56.8838 C.3       20 UNK         0.1400 
    111 CB        -8.3266  -22.7423  -58.3271 C.3       20 UNK        -0.1800 
    112 C         -8.1939  -20.7058  -56.7680 C.2       20 UNK         0.5000 
    113 O         -7.9700  -20.0390  -57.7811 O.2       20 UNK        -0.5000 
    114 N         -8.1824  -20.1942  -55.5270 N.am      21 UNK        -0.5000 
    115 CA        -7.9385  -18.7988  -55.1279 C.3       21 UNK         0.1400 
    116 CB        -9.1656  -17.9320  -55.4765 C.3       21 UNK        -0.1800 
    117 C         -6.6178  -18.2097  -55.6793 C.2       21 UNK         0.5000 
    118 O         -6.5602  -17.0279  -56.0244 O.2       21 UNK        -0.5000 
    119 N         -5.5930  -19.0644  -55.7778 N.am      22 UNK        -0.5000 
    120 CA        -4.2783  -18.8213  -56.3914 C.3       22 UNK         0.1400 
    121 C         -4.3190  -18.4770  -57.9143 C.2       22 UNK         0.5000 
    122 N         -5.3985  -18.7625  -58.6347 N.am      22 UNK        -0.7600 
    123 O         -3.3445  -17.9745  -58.4682 O.2       22 UNK        -0.5000 
    124 C124       -3.3959  -17.8457  -55.5646 C.3       23 UNK        -0.0398 
    125 S125       -3.0554  -18.4777  -53.8847 S.3       23 UNK        -0.2404 
    126 C126       -2.9469  -16.9202  -52.9577 C.3       23 UNK        -0.0205 
    127 H127        7.7193  -18.0188  -46.3396 H         1 UNK         0.0600 
    128 H128        7.1274  -18.6163  -47.8929 H         1 UNK         0.0600 
    129 H129        6.6881  -19.4523  -46.4006 H         1 UNK         0.0600 
    130 H130        5.4875  -17.3471  -48.6870 H         1 UNK         0.3000 
    131 H131        3.1858  -16.5907  -47.0838 H         1 UNK         0.0600 
    132 H132        3.2244  -17.4920  -49.5372 H         1 UNK         0.0800 
    133 H133        3.6549  -15.8872  -50.0221 H         1 UNK         0.0800 
    134 H134        0.6881  -18.1829  -48.4906 H         1 UNK         0.0800 
    135 H135        1.1024  -18.1670  -50.1879 H         1 UNK         0.0800 
    136 H136       -0.4539  -17.1758  -51.8836 H         1 UNK         0.1150 
    137 H137       -4.6024  -17.2323  -50.8213 H         1 UNK         0.1150 
    138 H138       -1.6048  -17.6751  -47.7864 H         1 UNK         0.1150 
    139 H139       -4.0919  -17.0157  -47.2693 H         1 UNK         0.0800 
    140 H140       -5.2599  -17.2370  -48.5361 H         1 UNK         0.0800 
    141 H141       -3.7920  -20.0616  -45.5059 H         1 UNK         0.0800 
    142 H142       -2.9868  -18.6177  -46.0223 H         1 UNK         0.0800 
    143 H143       -1.8881  -20.1300  -47.8909 H         1 UNK         0.0600 
    144 H144       -0.9961  -19.6769  -45.2150 H         1 UNK         0.3000 
    145 H145        2.1232  -21.2248  -45.4444 H         1 UNK         0.0600 
    146 H146        3.0891  -18.9523  -45.0961 H         1 UNK         0.0600 
    147 H147        2.7296  -19.2483  -46.7913 H         1 UNK         0.0600 
    148 H148        1.6668  -18.2254  -45.8360 H         1 UNK         0.0600 
    149 H149        0.8664  -19.2567  -43.6895 H         1 UNK         0.3000 
    150 H150       -0.4597  -21.7683  -41.4818 H         1 UNK         0.0600 
    151 H151        1.9054  -21.0879  -40.9475 H         1 UNK         0.0600 
    152 H152        0.7189  -20.2607  -39.9516 H         1 UNK         0.0600 
    153 H153        1.4878  -19.4133  -41.2907 H         1 UNK         0.0600 
    154 H154       -0.9850  -19.0528  -41.3434 H         1 UNK         0.3000 
    155 H155       -4.1637  -19.1468  -43.0291 H         1 UNK         0.0600 
    156 H156       -3.1220  -18.7136  -40.1746 H         1 UNK         0.0600 
    157 H157       -4.1649  -20.0451  -40.6617 H         1 UNK         0.0600 
    158 H158       -4.7521  -18.3966  -40.7596 H         1 UNK         0.0600 
    159 H159       -1.8483  -17.4537  -42.7202 H         1 UNK         0.3000 
    160 H160       -3.6651  -14.6119  -43.7905 H         1 UNK         0.0600 
    161 H161       -2.5744  -13.3446  -41.9423 H         1 UNK         0.0600 
    162 H162       -2.3548  -14.8370  -41.0291 H         1 UNK         0.0600 
    163 H163       -3.9733  -14.2295  -41.3534 H         1 UNK         0.0600 
    164 H164       -0.9232  -14.9182  -43.0538 H         1 UNK         0.3000 
    165 H165        0.2520  -16.4636  -45.9617 H         1 UNK         0.0600 
    166 H166        0.1989  -13.4169  -45.6105 H         1 UNK         0.0600 
    167 H167        1.3876  -14.3193  -46.5484 H         1 UNK         0.0600 
    168 H168       -0.2930  -14.2946  -47.0543 H         1 UNK         0.0600 
    169 H169        1.6528  -14.8163  -44.1496 H         1 UNK         0.3000 
    170 H170        1.6627  -16.6569  -41.2118 H         1 UNK         0.0600 
    171 H171        3.2506  -18.1253  -42.3986 H         1 UNK         0.0600 
    172 H172        3.9013  -16.7678  -43.2968 H         1 UNK         0.0600 
    173 H173        4.1396  -16.8661  -41.5530 H         1 UNK         0.0600 
    174 H174        3.3060  -14.5267  -42.2651 H         1 UNK         0.3000 
    175 H175        1.2009  -11.9926  -42.1658 H         1 UNK         0.0600 
    176 H176        2.1662  -12.3135  -39.2801 H         1 UNK         0.0600 
    177 H177        1.8428  -10.7716  -40.0736 H         1 UNK         0.0600 
    178 H178        0.5411  -11.9196  -39.8122 H         1 UNK         0.0600 
    179 H179        3.2668  -11.7064  -42.8334 H         1 UNK         0.3000 
    180 H180        5.8120  -10.9841  -41.9789 H         1 UNK         0.0600 
    181 H181        6.8268  -13.8683  -41.7712 H         1 UNK         0.0600 
    182 H182        7.1310  -12.5711  -40.6227 H         1 UNK         0.0600 
    183 H183        7.8032  -12.4779  -42.2412 H         1 UNK         0.0600 
    184 H184        5.7256  -11.3944  -44.1612 H         1 UNK         0.3000 
    185 H185        4.5238  -12.4915  -46.1146 H         1 UNK         0.0600 
    186 H186        7.0045  -12.0610  -45.9626 H         1 UNK         0.0600 
    187 H187        7.3178  -13.7920  -46.0097 H         1 UNK         0.0600 
    188 H188        6.6376  -12.9725  -47.4128 H         1 UNK         0.0600 
    189 H189        4.7771  -15.3362  -45.6588 H         1 UNK         0.3000 
    190 H190       -2.2380  -22.0209  -44.8501 H         1 UNK         0.3000 
    191 H191       -3.4059  -24.3229  -46.0854 H         1 UNK         0.0600 
    192 H192       -1.9036  -23.9925  -43.4350 H         1 UNK         0.0600 
    193 H193       -2.8524  -25.4028  -43.8956 H         1 UNK         0.0600 
    194 H194       -3.6417  -23.8475  -43.6769 H         1 UNK         0.0600 
    195 H195       -0.0151  -23.6351  -45.0298 H         1 UNK         0.3000 
    196 H196        0.9143  -26.2176  -45.7409 H         1 UNK         0.0600 
    197 H197        3.1425  -25.3032  -45.1379 H         1 UNK         0.0600 
    198 H198        1.9296  -24.8577  -43.9479 H         1 UNK         0.0600 
    199 H199        2.4903  -23.6701  -45.1234 H         1 UNK         0.0600 
    200 H200        1.3222  -23.0599  -47.4694 H         1 UNK         0.3000 
    201 H201        2.9401  -24.4466  -49.5518 H         1 UNK         0.0600 
    202 H202        3.9527  -22.4788  -48.4026 H         1 UNK         0.0600 
    203 H203        2.6347  -21.4580  -48.9721 H         1 UNK         0.0600 
    204 H204        3.7271  -22.2069  -50.1230 H         1 UNK         0.0600 
    205 H205        0.1399  -22.1972  -49.1939 H         1 UNK         0.3000 
    206 H206       -0.3534  -22.2382  -52.0648 H         1 UNK         0.0600 
    207 H207       -0.6497  -20.2384  -50.4516 H         1 UNK         0.0600 
    208 H208       -1.9019  -20.5108  -51.6458 H         1 UNK         0.0600 
    209 H209       -2.1773  -20.9819  -49.9816 H         1 UNK         0.0600 
    210 H210       -1.2856  -24.3292  -49.5661 H         1 UNK         0.3000 
    211 H211       -2.6596  -26.0559  -49.3368 H         1 UNK         0.0600 
    212 H212       -3.0730  -25.9423  -52.3708 H         1 UNK         0.0600 
    213 H213       -3.4071  -27.3121  -51.3222 H         1 UNK         0.0600 
    214 H214       -1.7515  -26.7707  -51.5488 H         1 UNK         0.0600 
    215 H215       -3.7012  -23.7759  -48.5463 H         1 UNK         0.3000 
    216 H216       -5.4924  -22.7259  -47.8249 H         1 UNK         0.0600 
    217 H217       -7.7224  -23.7556  -47.7915 H         1 UNK         0.0600 
    218 H218       -6.5216  -24.9717  -47.3880 H         1 UNK         0.0600 
    219 H219       -7.2515  -24.9475  -48.9931 H         1 UNK         0.0600 
    220 H220       -4.2631  -22.1237  -50.2103 H         1 UNK         0.3000 
    221 H221       -4.2276  -20.7120  -51.8816 H         1 UNK         0.0600 
    222 H222       -7.1808  -20.0288  -51.4884 H         1 UNK         0.0600 
    223 H223       -5.8679  -19.2863  -50.5760 H         1 UNK         0.0600 
    224 H224       -5.9571  -19.0781  -52.3183 H         1 UNK         0.0600 
    225 H225       -6.1332  -23.4809  -51.9462 H         1 UNK         0.3000 
    226 H226       -7.0415  -24.8104  -53.4685 H         1 UNK         0.0600 
    227 H227       -4.6882  -24.9381  -54.2361 H         1 UNK         0.0600 
    228 H228       -5.7781  -25.1157  -55.5985 H         1 UNK         0.0600 
    229 H229       -4.9279  -23.5909  -55.3376 H         1 UNK         0.0600 
    230 H230       -6.6809  -23.2676  -56.4352 H         1 UNK         0.3000 
    231 H231       -9.4952  -22.3918  -56.5696 H         1 UNK         0.0600 
    232 H232       -8.5563  -23.8063  -58.3868 H         1 UNK         0.0600 
    233 H233       -7.3178  -22.5945  -58.7149 H         1 UNK         0.0600 
    234 H234       -9.0161  -22.2256  -58.9960 H         1 UNK         0.0600 
    235 H235       -8.3375  -20.8458  -54.7670 H         1 UNK         0.3000 
    236 H236       -7.8351  -18.8056  -54.0422 H         1 UNK         0.0600 
    237 H237       -9.3054  -17.8487  -56.5548 H         1 UNK         0.0600 
    238 H238      -10.0777  -18.3510  -55.0514 H         1 UNK         0.0600 
    239 H239       -9.0596  -16.9218  -55.0795 H         1 UNK         0.0600 
    240 H240       -5.7079  -19.9887  -55.3657 H         1 UNK         0.3000 
    241 H241       -3.7797  -19.7907  -56.3637 H         1 UNK         0.0600 
    242 H242       -6.2222  -19.1765  -58.2093 H         1 UNK         0.3800 
    243 H243       -5.4059  -18.5452  -59.6184 H         1 UNK         0.3800 
    244 H244       -3.8696  -16.8648  -55.5070 H         1 UNK         0.0800 
    245 H245       -2.4300  -17.6904  -56.0475 H         1 UNK         0.0800 
    246 H246       -3.9028  -16.3972  -53.0160 H         1 UNK         0.0800 
    247 H247       -2.2077  -16.2690  -53.4269 H         1 UNK         0.0800 
@<TRIPOS>BOND
     1    1    2 1    
     2    1  127 1    
     3    1  128 1    
     4    1  129 1    
     5    2    3 2    
     6    2    4 am   BACKBONE|DICT|INTERRES
     7    4    5 1    
     8    4  130 1    
     9    5    6 1    
    10    5   65 1    
    11    5  131 1    
    12    6    7 1    
    13    6  132 1    
    14    6  133 1    
    15    7    8 1    
    16    8    9 1    
    17    8  134 1    
    18    8  135 1    
    19    9   10 ar   
    20    9   14 ar   
    21   10   11 ar   
    22   10  136 1    
    23   11   12 ar   
    24   11  126 1    
    25   12   13 ar   
    26   12  137 1    
    27   13   14 ar   
    28   13   15 1    
    29   14  138 1    
    30   15   16 1    
    31   15  139 1    
    32   15  140 1    
    33   16   17 1    
    34   17   18 1    
    35   17  141 1    
    36   17  142 1    
    37   18   19 1    
    38   18   67 1    
    39   18  143 1    
    40   19   20 am   BACKBONE|DICT|INTERRES
    41   19  144 1    
    42   20   21 2    
    43   20   22 1    
    44   22   23 1    
    45   22   24 1    
    46   22  145 1    
    47   23  146 1    
    48   23  147 1    
    49   23  148 1    
    50   24   25 am   BACKBONE|DICT|INTERRES
    51   24  149 1    
    52   25   26 2    
    53   25   27 1    
    54   27   28 1    
    55   27   29 1    
    56   27  150 1    
    57   28  151 1    
    58   28  152 1    
    59   28  153 1    
    60   29   30 am   BACKBONE|DICT|INTERRES
    61   29  154 1    
    62   30   31 2    
    63   30   32 1    
    64   32   33 1    
    65   32   34 1    
    66   32  155 1    
    67   33  156 1    
    68   33  157 1    
    69   33  158 1    
    70   34   35 am   BACKBONE|DICT|INTERRES
    71   34  159 1    
    72   35   36 2    
    73   35   37 1    
    74   37   38 1    
    75   37   39 1    
    76   37  160 1    
    77   38  161 1    
    78   38  162 1    
    79   38  163 1    
    80   39   40 am   BACKBONE|DICT|INTERRES
    81   39  164 1    
    82   40   41 2    
    83   40   42 1    
    84   42   43 1    
    85   42   44 1    
    86   42  165 1    
    87   43  166 1    
    88   43  167 1    
    89   43  168 1    
    90   44   45 am   BACKBONE|DICT|INTERRES
    91   44  169 1    
    92   45   46 2    
    93   45   47 1    
    94   47   48 1    
    95   47   49 1    
    96   47  170 1    
    97   48  171 1    
    98   48  172 1    
    99   48  173 1    
   100   49   50 am   BACKBONE|DICT|INTERRES
   101   49  174 1    
   102   50   51 2    
   103   50   52 1    
   104   52   53 1    
   105   52   54 1    
   106   52  175 1    
   107   53  176 1    
   108   53  177 1    
   109   53  178 1    
   110   54   55 am   BACKBONE|DICT|INTERRES
   111   54  179 1    
   112   55   56 2    
   113   55   57 1    
   114   57   58 1    
   115   57   59 1    
   116   57  180 1    
   117   58  181 1    
   118   58  182 1    
   119   58  183 1    
   120   59   60 am   BACKBONE|DICT|INTERRES
   121   59  184 1    
   122   60   61 2    
   123   60   62 1    
   124   62   63 1    
   125   62   64 1    
   126   62  185 1    
   127   63  186 1    
   128   63  187 1    
   129   63  188 1    
   130   64   65 am   BACKBONE|DICT|INTERRES
   131   64  189 1    
   132   65   66 2    
   133   67   68 2    
   134   67   69 am   BACKBONE|DICT|INTERRES
   135   69   70 1    
   136   69  190 1    
   137   70   71 1    
   138   70   72 1    
   139   70  191 1    
   140   71  192 1    
   141   71  193 1    
   142   71  194 1    
   143   72   73 2    
   144   72   74 am   BACKBONE|DICT|INTERRES
   145   74   75 1    
   146   74  195 1    
   147   75   76 1    
   148   75   77 1    
   149   75  196 1    
   150   76  197 1    
   151   76  198 1    
   152   76  199 1    
   153   77   78 2    
   154   77   79 am   BACKBONE|DICT|INTERRES
   155   79   80 1    
   156   79  200 1    
   157   80   81 1    
   158   80   82 1    
   159   80  201 1    
   160   81  202 1    
   161   81  203 1    
   162   81  204 1    
   163   82   83 2    
   164   82   84 am   BACKBONE|DICT|INTERRES
   165   84   85 1    
   166   84  205 1    
   167   85   86 1    
   168   85   87 1    
   169   85  206 1    
   170   86  207 1    
   171   86  208 1    
   172   86  209 1    
   173   87   88 2    
   174   87   89 am   BACKBONE|DICT|INTERRES
   175   89   90 1    
   176   89  210 1    
   177   90   91 1    
   178   90   92 1    
   179   90  211 1    
   180   91  212 1    
   181   91  213 1    
   182   91  214 1    
   183   92   93 2    
   184   92   94 am   BACKBONE|DICT|INTERRES
   185   94   95 1    
   186   94  215 1    
   187   95   96 1    
   188   95   97 1    
   189   95  216 1    
   190   96  217 1    
   191   96  218 1    
   192   96  219 1    
   193   97   98 2    
   194   97   99 am   BACKBONE|DICT|INTERRES
   195   99  100 1    
   196   99  220 1    
   197  100  101 1    
   198  100  102 1    
   199  100  221 1    
   200  101  222 1    
   201  101  223 1    
   202  101  224 1    
   203  102  103 2    
   204  102  104 am   BACKBONE|DICT|INTERRES
   205  104  105 1    
   206  104  225 1    
   207  105  106 1    
   208  105  107 1    
   209  105  226 1    
   210  106  227 1    
   211  106  228 1    
   212  106  229 1    
   213  107  108 2    
   214  107  109 am   BACKBONE|DICT|INTERRES
   215  109  110 1    
   216  109  230 1    
   217  110  111 1    
   218  110  112 1    
   219  110  231 1    
   220  111  232 1    
   221  111  233 1    
   222  111  234 1    
   223  112  113 2    
   224  112  114 am   BACKBONE|DICT|INTERRES
   225  114  115 1    
   226  114  235 1    
   227  115  116 1    
   228  115  117 1    
   229  115  236 1    
   230  116  237 1    
   231  116  238 1    
   232  116  239 1    
   233  117  118 2    
   234  117  119 am   BACKBONE|DICT|INTERRES
   235  119  120 1    
   236  119  240 1    
   237  120  121 1    
   238  120  124 1    
   239  120  241 1    
   240  121  122 am   BACKBONE|DICT|INTERRES
   241  121  123 2    
   242  122  242 1    
   243  122  243 1    
   244  124  125 1    
   245  124  244 1    
   246  124  245 1    
   247  125  126 1    
   248  126  246 1    
   249  126  247 1    
@<TRIPOS>SUBSTRUCTURE
     1 UNK         1 GROUP             0       ****    0 ROOT    
