@<TRIPOS>MOLECULE
3R540
247   249    1
SMALL
USER_CHARGES


@<TRIPOS>ATOM
      1 CA         -6.1364  -13.7422  -48.4821 C.3       0 UNK        -0.1800 
      2 C          -4.7036  -14.0675  -48.0879 C.2       0 UNK         0.5000 
      3 O          -3.7760  -13.6267  -48.7648 O.2       0 UNK        -0.5000 
      4 N          -4.5335  -14.8146  -46.9862 N.am      1 UNK        -0.5000 
      5 CA         -3.2805  -15.3881  -46.4648 C.3       1 UNK         0.1400 
      6 C6         -3.4903  -16.0410  -45.0738 C.3       23 UNK        -0.0398 
      7 S7         -4.8503  -17.2572  -45.0165 S.3       23 UNK        -0.2404 
      8 C8         -3.9648  -18.8067  -44.6573 C.3       23 UNK        -0.0205 
      9 C9         -3.3237  -19.3826  -45.9084 C.ar      23 UNK        -0.0193 
     10 C10        -4.0941  -20.1296  -46.8015 C.ar      23 UNK        -0.1150 
     11 C11        -3.5318  -20.6578  -47.9662 C.ar      23 UNK        -0.0193 
     12 C12        -2.1713  -20.4387  -48.2201 C.ar      23 UNK        -0.1150 
     13 C13        -1.3898  -19.6856  -47.3391 C.ar      23 UNK        -0.0193 
     14 C14        -1.9705  -19.1708  -46.1779 C.ar      23 UNK        -0.1150 
     15 C15         0.0628  -19.3724  -47.6701 C.3       23 UNK        -0.0205 
     16 S16         1.1009  -20.8510  -47.8920 S.3       23 UNK        -0.2404 
     17 C17         1.2092  -21.4782  -46.1842 C.3       23 UNK        -0.0398 
     18 CA          0.8199  -22.9700  -46.0436 C.3       11 UNK         0.1400 
     19 N           1.1798  -23.4961  -44.7245 N.am      11 UNK        -0.5000 
     20 C           1.1614  -24.7919  -44.3789 C.2       10 UNK         0.5000 
     21 O           0.8952  -25.7070  -45.1573 O.2       10 UNK        -0.5000 
     22 CA          1.4349  -25.1079  -42.8966 C.3       10 UNK         0.1400 
     23 CB          2.9453  -25.1770  -42.6275 C.3       10 UNK        -0.1800 
     24 N           0.8258  -24.1248  -41.9980 N.am      10 UNK        -0.5000 
     25 C          -0.4960  -23.9532  -41.8469 C.2       9 UNK         0.5000 
     26 O          -1.3391  -24.6597  -42.3960 O.2       9 UNK        -0.5000 
     27 CA         -0.9508  -22.7607  -40.9834 C.3       9 UNK         0.1400 
     28 CB         -1.1005  -23.1833  -39.5148 C.3       9 UNK        -0.1800 
     29 N          -0.0378  -21.6175  -41.0716 N.am      9 UNK        -0.5000 
     30 C           0.1747  -20.9032  -42.1846 C.2       8 UNK         0.5000 
     31 O          -0.4108  -21.1087  -43.2499 O.2       8 UNK        -0.5000 
     32 CA          1.3054  -19.8638  -42.1078 C.3       8 UNK         0.1400 
     33 CB          2.6589  -20.5357  -42.3918 C.3       8 UNK        -0.1800 
     34 N           1.1396  -18.7544  -43.0441 N.am      8 UNK        -0.5000 
     35 C           0.2693  -17.7473  -42.8965 C.2       7 UNK         0.5000 
     36 O          -0.5907  -17.7198  -42.0147 O.2       7 UNK        -0.5000 
     37 CA          0.4036  -16.5575  -43.8797 C.3       7 UNK         0.1400 
     38 CB         -0.0516  -15.2243  -43.2508 C.3       7 UNK        -0.1800 
     39 N           1.7366  -16.3997  -44.4793 N.am      7 UNK        -0.5000 
     40 C           2.9078  -16.2340  -43.8427 C.2       6 UNK         0.5000 
     41 O           3.0430  -16.2266  -42.6190 O.2       6 UNK        -0.5000 
     42 CA          4.1394  -16.0424  -44.7441 C.3       6 UNK         0.1400 
     43 CB          4.5683  -17.3793  -45.3703 C.3       6 UNK        -0.1800 
     44 N           3.9035  -15.0625  -45.8042 N.am      6 UNK        -0.5000 
     45 C           3.7348  -13.7486  -45.6117 C.2       5 UNK         0.5000 
     46 O           3.7838  -13.2115  -44.5046 O.2       5 UNK        -0.5000 
     47 CA          3.4642  -12.8782  -46.8533 C.3       5 UNK         0.1400 
     48 CB          4.7764  -12.4861  -47.5585 C.3       5 UNK        -0.1800 
     49 N           2.4901  -13.4383  -47.7987 N.am      5 UNK        -0.5000 
     50 C           2.5905  -14.5112  -48.5996 C.2       4 UNK         0.5000 
     51 O           3.5718  -15.2551  -48.6191 O.2       4 UNK        -0.5000 
     52 CA          1.3898  -14.8305  -49.5164 C.3       4 UNK         0.1400 
     53 CB          0.8131  -16.2170  -49.1957 C.3       4 UNK        -0.1800 
     54 N           0.3216  -13.8347  -49.4125 N.am      4 UNK        -0.5000 
     55 C           0.2975  -12.6723  -50.0811 C.2       3 UNK         0.5000 
     56 O           1.1240  -12.3646  -50.9401 O.2       3 UNK        -0.5000 
     57 CA         -0.8041  -11.6628  -49.7027 C.3       3 UNK         0.1400 
     58 CB         -1.9199  -11.6449  -50.7558 C.3       3 UNK        -0.1800 
     59 N          -1.3809  -11.9118  -48.3783 N.am      3 UNK        -0.5000 
     60 C          -0.7384  -11.6686  -47.2257 C.2       2 UNK         0.5000 
     61 O           0.4015  -11.2066  -47.1740 O.2       2 UNK        -0.5000 
     62 CA         -1.4575  -12.0301  -45.9120 C.3       2 UNK         0.1400 
     63 CB         -2.1793  -10.8015  -45.3395 C.3       2 UNK        -0.1800 
     64 N          -2.4157  -13.1275  -46.0414 N.am      2 UNK        -0.5000 
     65 C          -2.1064  -14.3893  -46.3713 C.2       1 UNK         0.5000 
     66 O          -0.9583  -14.7713  -46.5986 O.2       1 UNK        -0.5000 
     67 C          -0.6700  -23.2234  -46.3462 C.2       11 UNK         0.5000 
     68 O          -0.9926  -23.6721  -47.4467 O.2       11 UNK        -0.5000 
     69 N          -1.5320  -22.9908  -45.3453 N.am      12 UNK        -0.5000 
     70 CA         -2.9679  -23.2584  -45.4037 C.3       12 UNK         0.1400 
     71 CB         -3.6539  -22.6693  -44.1619 C.3       12 UNK        -0.1800 
     72 C          -3.2976  -24.7523  -45.5626 C.2       12 UNK         0.5000 
     73 O          -4.1562  -25.0969  -46.3746 O.2       12 UNK        -0.5000 
     74 N          -2.5964  -25.6085  -44.8067 N.am      13 UNK        -0.5000 
     75 CA         -2.7297  -27.0650  -44.8519 C.3       13 UNK         0.1400 
     76 CB         -1.9458  -27.6882  -43.6868 C.3       13 UNK        -0.1800 
     77 C          -2.2786  -27.6660  -46.1953 C.2       13 UNK         0.5000 
     78 O          -2.9576  -28.5470  -46.7244 O.2       13 UNK        -0.5000 
     79 N          -1.1535  -27.1711  -46.7287 N.am      14 UNK        -0.5000 
     80 CA         -0.6162  -27.5683  -48.0311 C.3       14 UNK         0.1400 
     81 CB          0.8551  -27.1331  -48.1133 C.3       14 UNK        -0.1800 
     82 C          -1.4047  -26.9827  -49.2184 C.2       14 UNK         0.5000 
     83 O          -1.3795  -27.5667  -50.3022 O.2       14 UNK        -0.5000 
     84 N          -2.0507  -25.8283  -48.9965 N.am      15 UNK        -0.5000 
     85 CA         -2.6776  -24.9439  -49.9835 C.3       15 UNK         0.1400 
     86 CB         -3.9156  -25.6020  -50.6242 C.3       15 UNK        -0.1800 
     87 C          -1.6486  -24.4275  -51.0106 C.2       15 UNK         0.5000 
     88 O          -1.9116  -24.4181  -52.2144 O.2       15 UNK        -0.5000 
     89 N          -0.4658  -24.0524  -50.5033 N.am      16 UNK        -0.5000 
     90 CA          0.7416  -23.8196  -51.2969 C.3       16 UNK         0.1400 
     91 CB          1.9623  -23.8045  -50.3650 C.3       16 UNK        -0.1800 
     92 C           0.7021  -22.5575  -52.1774 C.2       16 UNK         0.5000 
     93 O           1.3778  -22.5295  -53.2070 O.2       16 UNK        -0.5000 
     94 N          -0.0769  -21.5429  -51.7757 N.am      17 UNK        -0.5000 
     95 CA         -0.2508  -20.3061  -52.5438 C.3       17 UNK         0.1400 
     96 CB         -0.7955  -19.1973  -51.6344 C.3       17 UNK        -0.1800 
     97 C          -1.1418  -20.4917  -53.7866 C.2       17 UNK         0.5000 
     98 O          -0.9210  -19.8086  -54.7869 O.2       17 UNK        -0.5000 
     99 N          -2.1108  -21.4163  -53.7004 N.am      18 UNK        -0.5000 
    100 CA        -3.0436  -21.9103  -54.7253 C.3       18 UNK         0.1400 
    101 CB        -2.2756  -22.6431  -55.8405 C.3       18 UNK        -0.1800 
    102 C         -4.0251  -20.8796  -55.3279 C.2       18 UNK         0.5000 
    103 O         -5.1945  -21.2110  -55.5278 O.2       18 UNK        -0.5000 
    104 N         -3.5403  -19.6712  -55.6276 N.am      19 UNK        -0.5000 
    105 CA        -4.2805  -18.5544  -56.2128 C.3       19 UNK         0.1400 
    106 CB        -3.2820  -17.6859  -57.0029 C.3       19 UNK        -0.1800 
    107 C         -5.0478  -17.7478  -55.1423 C.2       19 UNK         0.5000 
    108 O         -5.3018  -18.2481  -54.0459 O.2       19 UNK        -0.5000 
    109 N         -5.3877  -16.4901  -55.4591 N.am      20 UNK        -0.5000 
    110 CA        -6.1080  -15.5533  -54.5853 C.3       20 UNK         0.1400 
    111 CB        -6.4023  -14.2677  -55.3737 C.3       20 UNK        -0.1800 
    112 C         -5.3849  -15.2200  -53.2615 C.2       20 UNK         0.5000 
    113 O         -6.0369  -14.7987  -52.3064 O.2       20 UNK        -0.5000 
    114 N         -4.0624  -15.4346  -53.2211 N.am      21 UNK        -0.5000 
    115 CA        -3.2275  -15.3274  -52.0241 C.3       21 UNK         0.1400 
    116 CB        -1.7609  -15.1742  -52.4582 C.3       21 UNK        -0.1800 
    117 C         -3.3944  -16.5047  -51.0405 C.2       21 UNK         0.5000 
    118 O         -2.8829  -16.4265  -49.9242 O.2       21 UNK        -0.5000 
    119 N         -4.0880  -17.5740  -51.4542 N.am      22 UNK        -0.5000 
    120 CA        -4.5088  -18.6674  -50.5754 C.3       22 UNK         0.1400 
    121 C         -5.7859  -18.2387  -49.8011 C.2       22 UNK         0.5000 
    122 N         -5.6856  -17.9650  -48.5087 N.am      22 UNK        -0.7600 
    123 O         -6.8737  -18.1593  -50.3664 O.2       22 UNK        -0.5000 
    124 C124       -4.7008  -19.9954  -51.3679 C.3       23 UNK        -0.0398 
    125 S125       -3.8989  -21.4739  -50.6558 S.3       23 UNK        -0.2404 
    126 C126       -4.4212  -21.4728  -48.9056 C.3       23 UNK        -0.0205 
    127 H127       -6.8571  -14.1621  -47.7802 H         1 UNK         0.0600 
    128 H128       -6.3493  -14.1481  -49.4714 H         1 UNK         0.0600 
    129 H129       -6.2811  -12.6625  -48.5165 H         1 UNK         0.0600 
    130 H130       -5.3575  -15.1184  -46.4872 H         1 UNK         0.3000 
    131 H131       -2.9787  -16.1683  -47.1664 H         1 UNK         0.0600 
    132 H132       -3.7130  -15.2770  -44.3265 H         1 UNK         0.0800 
    133 H133       -2.5730  -16.5232  -44.7383 H         1 UNK         0.0800 
    134 H134       -3.2216  -18.6490  -43.8736 H         1 UNK         0.0800 
    135 H135       -4.6783  -19.5265  -44.2538 H         1 UNK         0.0800 
    136 H136       -5.1414  -20.2948  -46.5890 H         1 UNK         0.1150 
    137 H137       -1.7100  -20.8454  -49.1065 H         1 UNK         0.1150 
    138 H138       -1.3738  -18.5959  -45.4880 H         1 UNK         0.1150 
    139 H139        0.0773  -18.8034  -48.5965 H         1 UNK         0.0800 
    140 H140        0.5115  -18.7295  -46.9115 H         1 UNK         0.0800 
    141 H141        0.6038  -20.8532  -45.5292 H         1 UNK         0.0800 
    142 H142        2.2415  -21.3375  -45.8618 H         1 UNK         0.0800 
    143 H143        1.3982  -23.5349  -46.7784 H         1 UNK         0.0600 
    144 H144        1.3528  -22.8141  -44.0029 H         1 UNK         0.3000 
    145 H145        1.0021  -26.0862  -42.6772 H         1 UNK         0.0600 
    146 H146        3.1489  -25.4709  -41.5977 H         1 UNK         0.0600 
    147 H147        3.4229  -25.9138  -43.2748 H         1 UNK         0.0600 
    148 H148        3.4330  -24.2178  -42.8059 H         1 UNK         0.0600 
    149 H149        1.4520  -23.5158  -41.4934 H         1 UNK         0.3000 
    150 H150       -1.9287  -22.4407  -41.3490 H         1 UNK         0.0600 
    151 H151       -0.1477  -23.4945  -39.0845 H         1 UNK         0.0600 
    152 H152       -1.7932  -24.0205  -39.4190 H         1 UNK         0.0600 
    153 H153       -1.4934  -22.3674  -38.9077 H         1 UNK         0.0600 
    154 H154        0.4858  -21.3957  -40.2368 H         1 UNK         0.3000 
    155 H155        1.3283  -19.4528  -41.0961 H         1 UNK         0.0600 
    156 H156        2.7036  -20.9475  -43.4003 H         1 UNK         0.0600 
    157 H157        2.8508  -21.3518  -41.6941 H         1 UNK         0.0600 
    158 H158        3.4791  -19.8251  -42.2860 H         1 UNK         0.0600 
    159 H159        1.7984  -18.7045  -43.8051 H         1 UNK         0.3000 
    160 H160       -0.2639  -16.7721  -44.7123 H         1 UNK         0.0600 
    161 H161        0.5359  -14.9761  -42.3664 H         1 UNK         0.0600 
    162 H162       -1.0986  -15.2658  -42.9488 H         1 UNK         0.0600 
    163 H163        0.0481  -14.4015  -43.9582 H         1 UNK         0.0600 
    164 H164        1.7528  -16.3663  -45.4883 H         1 UNK         0.3000 
    165 H165        4.9591  -15.6794  -44.1204 H         1 UNK         0.0600 
    166 H166        5.4923  -17.2675  -45.9380 H         1 UNK         0.0600 
    167 H167        4.7495  -18.1314  -44.6012 H         1 UNK         0.0600 
    168 H168        3.8087  -17.7749  -46.0459 H         1 UNK         0.0600 
    169 H169        3.8704  -15.4007  -46.7623 H         1 UNK         0.3000 
    170 H170        3.0096  -11.9561  -46.4877 H         1 UNK         0.0600 
    171 H171        5.4449  -11.9660  -46.8713 H         1 UNK         0.0600 
    172 H172        5.3145  -13.3554  -47.9372 H         1 UNK         0.0600 
    173 H173        4.5875  -11.8161  -48.3973 H         1 UNK         0.0600 
    174 H174        1.6228  -12.9182  -47.8418 H         1 UNK         0.3000 
    175 H175        1.7606  -14.8522  -50.5432 H         1 UNK         0.0600 
    176 H176        0.4867  -16.2892  -48.1586 H         1 UNK         0.0600 
    177 H177       -0.0410  -16.4503  -49.8313 H         1 UNK         0.0600 
    178 H178        1.5598  -16.9949  -49.3592 H         1 UNK         0.0600 
    179 H179       -0.3867  -14.0112  -48.7105 H         1 UNK         0.3000 
    180 H180       -0.3437  -10.6725  -49.6914 H         1 UNK         0.0600 
    181 H181       -2.4194  -12.6087  -50.8195 H         1 UNK         0.0600 
    182 H182       -1.5226  -11.4153  -51.7453 H         1 UNK         0.0600 
    183 H183       -2.6726  -10.8918  -50.5225 H         1 UNK         0.0600 
    184 H184       -2.2922  -12.3617  -48.3584 H         1 UNK         0.3000 
    185 H185       -0.6919  -12.3396  -45.1977 H         1 UNK         0.0600 
    186 H186       -1.4872   -9.9690  -45.2047 H         1 UNK         0.0600 
    187 H187       -2.9782  -10.4610  -45.9995 H         1 UNK         0.0600 
    188 H188       -2.6169  -11.0189  -44.3650 H         1 UNK         0.0600 
    189 H189       -3.3886  -12.8978  -45.8999 H         1 UNK         0.3000 
    190 H190       -1.1812  -22.5702  -44.4921 H         1 UNK         0.3000 
    191 H191       -3.3581  -22.7500  -46.2829 H         1 UNK         0.0600 
    192 H192       -3.3680  -21.6296  -44.0078 H         1 UNK         0.0600 
    193 H193       -4.7387  -22.6999  -44.2683 H         1 UNK         0.0600 
    194 H194       -3.3989  -23.2192  -43.2567 H         1 UNK         0.0600 
    195 H195       -1.9594  -25.2323  -44.1097 H         1 UNK         0.3000 
    196 H196       -3.7859  -27.3074  -44.7175 H         1 UNK         0.0600 
    197 H197       -2.0434  -28.7744  -43.6862 H         1 UNK         0.0600 
    198 H198       -2.3149  -27.3279  -42.7264 H         1 UNK         0.0600 
    199 H199       -0.8827  -27.4531  -43.7456 H         1 UNK         0.0600 
    200 H200       -0.6151  -26.4890  -46.2027 H         1 UNK         0.3000 
    201 H201       -0.6559  -28.6568  -48.1087 H         1 UNK         0.0600 
    202 H202        1.2966  -27.4142  -49.0703 H         1 UNK         0.0600 
    203 H203        1.4493  -27.6033  -47.3296 H         1 UNK         0.0600 
    204 H204        0.9584  -26.0524  -48.0067 H         1 UNK         0.0600 
    205 H205       -1.9460  -25.4139  -48.0776 H         1 UNK         0.3000 
    206 H206       -3.0154  -24.0730  -49.4250 H         1 UNK         0.0600 
    207 H207       -4.6167  -25.9426  -49.8622 H         1 UNK         0.0600 
    208 H208       -4.4457  -24.8916  -51.2596 H         1 UNK         0.0600 
    209 H209       -3.6478  -26.4585  -51.2432 H         1 UNK         0.0600 
    210 H210       -0.3657  -24.0426  -49.4947 H         1 UNK         0.3000 
    211 H211        0.8550  -24.6701  -51.9727 H         1 UNK         0.0600 
    212 H212        1.8921  -23.0121  -49.6220 H         1 UNK         0.0600 
    213 H213        2.8831  -23.6455  -50.9276 H         1 UNK         0.0600 
    214 H214        2.0670  -24.7518  -49.8364 H         1 UNK         0.0600 
    215 H215       -0.5943  -21.6407  -50.9154 H         1 UNK         0.3000 
    216 H216        0.7300  -19.9824  -52.8993 H         1 UNK         0.0600 
    217 H217       -0.9843  -18.2841  -52.1989 H         1 UNK         0.0600 
    218 H218       -0.0772  -18.9487  -50.8555 H         1 UNK         0.0600 
    219 H219       -1.7291  -19.4850  -51.1557 H         1 UNK         0.0600 
    220 H220       -2.1834  -21.9046  -52.8181 H         1 UNK         0.3000 
    221 H221       -3.6581  -22.6531  -54.2137 H         1 UNK         0.0600 
    222 H222       -1.6198  -21.9690  -56.3924 H         1 UNK         0.0600 
    223 H223       -1.6630  -23.4467  -55.4311 H         1 UNK         0.0600 
    224 H224       -2.9630  -23.0916  -56.5589 H         1 UNK         0.0600 
    225 H225       -2.5592  -19.5075  -55.4110 H         1 UNK         0.3000 
    226 H226       -5.0191  -18.9495  -56.9130 H         1 UNK         0.0600 
    227 H227       -2.7117  -18.2906  -57.7086 H         1 UNK         0.0600 
    228 H228       -3.7882  -16.9174  -57.5878 H         1 UNK         0.0600 
    229 H229       -2.5692  -17.1902  -56.3424 H         1 UNK         0.0600 
    230 H230       -5.1414  -16.1418  -56.3744 H         1 UNK         0.3000 
    231 H231       -7.0602  -16.0177  -54.3209 H         1 UNK         0.0600 
    232 H232       -5.4840  -13.7725  -55.6917 H         1 UNK         0.0600 
    233 H233       -6.9654  -13.5568  -54.7674 H         1 UNK         0.0600 
    234 H234       -6.9981  -14.4763  -56.2624 H         1 UNK         0.0600 
    235 H235       -3.6115  -15.7718  -54.0581 H         1 UNK         0.3000 
    236 H236       -3.5253  -14.4289  -51.4831 H         1 UNK         0.0600 
    237 H237       -1.6195  -14.2739  -53.0563 H         1 UNK         0.0600 
    238 H238       -1.1028  -15.0914  -51.5934 H         1 UNK         0.0600 
    239 H239       -1.4233  -16.0269  -53.0477 H         1 UNK         0.0600 
    240 H240       -4.5036  -17.5744  -52.3802 H         1 UNK         0.3000 
    241 H241       -3.7042  -18.8134  -49.8573 H         1 UNK         0.0600 
    242 H242       -4.8004  -18.0212  -48.0293 H         1 UNK         0.3800 
    243 H243       -6.5124  -17.6965  -48.0006 H         1 UNK         0.3800 
    244 H244       -5.7526  -20.2235  -51.5485 H         1 UNK         0.0800 
    245 H245       -4.2666  -19.8994  -52.3625 H         1 UNK         0.0800 
    246 H246       -5.4537  -21.1248  -48.8492 H         1 UNK         0.0800 
    247 H247       -4.4341  -22.5011  -48.5452 H         1 UNK         0.0800 
@<TRIPOS>BOND
     1    1    2 1    
     2    1  127 1    
     3    1  128 1    
     4    1  129 1    
     5    2    3 2    
     6    2    4 am   BACKBONE|DICT|INTERRES
     7    4    5 1    
     8    4  130 1    
     9    5    6 1    
    10    5   65 1    
    11    5  131 1    
    12    6    7 1    
    13    6  132 1    
    14    6  133 1    
    15    7    8 1    
    16    8    9 1    
    17    8  134 1    
    18    8  135 1    
    19    9   10 ar   
    20    9   14 ar   
    21   10   11 ar   
    22   10  136 1    
    23   11   12 ar   
    24   11  126 1    
    25   12   13 ar   
    26   12  137 1    
    27   13   14 ar   
    28   13   15 1    
    29   14  138 1    
    30   15   16 1    
    31   15  139 1    
    32   15  140 1    
    33   16   17 1    
    34   17   18 1    
    35   17  141 1    
    36   17  142 1    
    37   18   19 1    
    38   18   67 1    
    39   18  143 1    
    40   19   20 am   BACKBONE|DICT|INTERRES
    41   19  144 1    
    42   20   21 2    
    43   20   22 1    
    44   22   23 1    
    45   22   24 1    
    46   22  145 1    
    47   23  146 1    
    48   23  147 1    
    49   23  148 1    
    50   24   25 am   BACKBONE|DICT|INTERRES
    51   24  149 1    
    52   25   26 2    
    53   25   27 1    
    54   27   28 1    
    55   27   29 1    
    56   27  150 1    
    57   28  151 1    
    58   28  152 1    
    59   28  153 1    
    60   29   30 am   BACKBONE|DICT|INTERRES
    61   29  154 1    
    62   30   31 2    
    63   30   32 1    
    64   32   33 1    
    65   32   34 1    
    66   32  155 1    
    67   33  156 1    
    68   33  157 1    
    69   33  158 1    
    70   34   35 am   BACKBONE|DICT|INTERRES
    71   34  159 1    
    72   35   36 2    
    73   35   37 1    
    74   37   38 1    
    75   37   39 1    
    76   37  160 1    
    77   38  161 1    
    78   38  162 1    
    79   38  163 1    
    80   39   40 am   BACKBONE|DICT|INTERRES
    81   39  164 1    
    82   40   41 2    
    83   40   42 1    
    84   42   43 1    
    85   42   44 1    
    86   42  165 1    
    87   43  166 1    
    88   43  167 1    
    89   43  168 1    
    90   44   45 am   BACKBONE|DICT|INTERRES
    91   44  169 1    
    92   45   46 2    
    93   45   47 1    
    94   47   48 1    
    95   47   49 1    
    96   47  170 1    
    97   48  171 1    
    98   48  172 1    
    99   48  173 1    
   100   49   50 am   BACKBONE|DICT|INTERRES
   101   49  174 1    
   102   50   51 2    
   103   50   52 1    
   104   52   53 1    
   105   52   54 1    
   106   52  175 1    
   107   53  176 1    
   108   53  177 1    
   109   53  178 1    
   110   54   55 am   BACKBONE|DICT|INTERRES
   111   54  179 1    
   112   55   56 2    
   113   55   57 1    
   114   57   58 1    
   115   57   59 1    
   116   57  180 1    
   117   58  181 1    
   118   58  182 1    
   119   58  183 1    
   120   59   60 am   BACKBONE|DICT|INTERRES
   121   59  184 1    
   122   60   61 2    
   123   60   62 1    
   124   62   63 1    
   125   62   64 1    
   126   62  185 1    
   127   63  186 1    
   128   63  187 1    
   129   63  188 1    
   130   64   65 am   BACKBONE|DICT|INTERRES
   131   64  189 1    
   132   65   66 2    
   133   67   68 2    
   134   67   69 am   BACKBONE|DICT|INTERRES
   135   69   70 1    
   136   69  190 1    
   137   70   71 1    
   138   70   72 1    
   139   70  191 1    
   140   71  192 1    
   141   71  193 1    
   142   71  194 1    
   143   72   73 2    
   144   72   74 am   BACKBONE|DICT|INTERRES
   145   74   75 1    
   146   74  195 1    
   147   75   76 1    
   148   75   77 1    
   149   75  196 1    
   150   76  197 1    
   151   76  198 1    
   152   76  199 1    
   153   77   78 2    
   154   77   79 am   BACKBONE|DICT|INTERRES
   155   79   80 1    
   156   79  200 1    
   157   80   81 1    
   158   80   82 1    
   159   80  201 1    
   160   81  202 1    
   161   81  203 1    
   162   81  204 1    
   163   82   83 2    
   164   82   84 am   BACKBONE|DICT|INTERRES
   165   84   85 1    
   166   84  205 1    
   167   85   86 1    
   168   85   87 1    
   169   85  206 1    
   170   86  207 1    
   171   86  208 1    
   172   86  209 1    
   173   87   88 2    
   174   87   89 am   BACKBONE|DICT|INTERRES
   175   89   90 1    
   176   89  210 1    
   177   90   91 1    
   178   90   92 1    
   179   90  211 1    
   180   91  212 1    
   181   91  213 1    
   182   91  214 1    
   183   92   93 2    
   184   92   94 am   BACKBONE|DICT|INTERRES
   185   94   95 1    
   186   94  215 1    
   187   95   96 1    
   188   95   97 1    
   189   95  216 1    
   190   96  217 1    
   191   96  218 1    
   192   96  219 1    
   193   97   98 2    
   194   97   99 am   BACKBONE|DICT|INTERRES
   195   99  100 1    
   196   99  220 1    
   197  100  101 1    
   198  100  102 1    
   199  100  221 1    
   200  101  222 1    
   201  101  223 1    
   202  101  224 1    
   203  102  103 2    
   204  102  104 am   BACKBONE|DICT|INTERRES
   205  104  105 1    
   206  104  225 1    
   207  105  106 1    
   208  105  107 1    
   209  105  226 1    
   210  106  227 1    
   211  106  228 1    
   212  106  229 1    
   213  107  108 2    
   214  107  109 am   BACKBONE|DICT|INTERRES
   215  109  110 1    
   216  109  230 1    
   217  110  111 1    
   218  110  112 1    
   219  110  231 1    
   220  111  232 1    
   221  111  233 1    
   222  111  234 1    
   223  112  113 2    
   224  112  114 am   BACKBONE|DICT|INTERRES
   225  114  115 1    
   226  114  235 1    
   227  115  116 1    
   228  115  117 1    
   229  115  236 1    
   230  116  237 1    
   231  116  238 1    
   232  116  239 1    
   233  117  118 2    
   234  117  119 am   BACKBONE|DICT|INTERRES
   235  119  120 1    
   236  119  240 1    
   237  120  121 1    
   238  120  124 1    
   239  120  241 1    
   240  121  122 am   BACKBONE|DICT|INTERRES
   241  121  123 2    
   242  122  242 1    
   243  122  243 1    
   244  124  125 1    
   245  124  244 1    
   246  124  245 1    
   247  125  126 1    
   248  126  246 1    
   249  126  247 1    
@<TRIPOS>SUBSTRUCTURE
     1 UNK         1 GROUP             0       ****    0 ROOT    
