@<TRIPOS>MOLECULE
3R540
247   249    1
SMALL
USER_CHARGES


@<TRIPOS>ATOM
      1 CA          5.4966  -10.4268  -46.8257 C.3       0 UNK        -0.1800 
      2 C           4.5285  -11.6007  -46.8004 C.2       0 UNK         0.5000 
      3 O           4.3345  -12.2108  -45.7506 O.2       0 UNK        -0.5000 
      4 N           3.9169  -11.9158  -47.9501 N.am      1 UNK        -0.5000 
      5 CA          2.9460  -13.0074  -48.1129 C.3       1 UNK         0.1400 
      6 C6          2.7833  -13.3940  -49.6044 C.3       23 UNK        -0.0398 
      7 S7          2.3887  -15.1588  -49.8559 S.3       23 UNK        -0.2404 
      8 C8          0.6052  -15.0833  -50.2071 C.3       23 UNK        -0.0205 
      9 C9          0.1411  -16.3192  -50.9588 C.ar      23 UNK        -0.0193 
     10 C10         0.2899  -16.3790  -52.3474 C.ar      23 UNK        -0.1150 
     11 C11        -0.1468  -17.4971  -53.0620 C.ar      23 UNK        -0.0193 
     12 C12        -0.7423  -18.5586  -52.3769 C.ar      23 UNK        -0.1150 
     13 C13        -0.9015  -18.5086  -50.9884 C.ar      23 UNK        -0.0193 
     14 C14        -0.4516  -17.3895  -50.2808 C.ar      23 UNK        -0.1150 
     15 C15        -1.5943  -19.6554  -50.2736 C.3       23 UNK        -0.0205 
     16 S16        -0.4781  -21.0716  -50.0352 S.3       23 UNK        -0.2404 
     17 C17         0.1235  -20.8308  -48.3304 C.3       23 UNK        -0.0398 
     18 CA         -0.2326  -22.0342  -47.4204 C.3       11 UNK         0.1400 
     19 N           0.6552  -22.1260  -46.2618 N.am      11 UNK        -0.5000 
     20 C           0.8618  -23.2427  -45.5491 C.2       10 UNK         0.5000 
     21 O           0.3794  -24.3379  -45.8365 O.2       10 UNK        -0.5000 
     22 CA          1.7330  -23.1054  -44.2848 C.3       10 UNK         0.1400 
     23 CB          3.2151  -23.3218  -44.6241 C.3       10 UNK        -0.1800 
     24 N           1.5751  -21.8090  -43.6219 N.am      10 UNK        -0.5000 
     25 C           0.4397  -21.3903  -43.0463 C.2       9 UNK         0.5000 
     26 O          -0.5798  -22.0731  -42.9746 O.2       9 UNK        -0.5000 
     27 CA          0.4136  -19.9485  -42.5150 C.3       9 UNK         0.1400 
     28 CB          0.8360  -19.9140  -41.0403 C.3       9 UNK        -0.1800 
     29 N           1.2220  -19.0108  -43.3033 N.am      9 UNK        -0.5000 
     30 C           0.9975  -18.7281  -44.5973 C.2       8 UNK         0.5000 
     31 O           0.1049  -19.2686  -45.2542 O.2       8 UNK        -0.5000 
     32 CA          1.9176  -17.7077  -45.2924 C.3       8 UNK         0.1400 
     33 CB          1.1185  -16.6906  -46.1214 C.3       8 UNK        -0.1800 
     34 N           2.7766  -16.9905  -44.3483 N.am      8 UNK        -0.5000 
     35 C           4.0953  -17.1861  -44.2249 C.2       7 UNK         0.5000 
     36 O           4.7342  -17.9890  -44.9063 O.2       7 UNK        -0.5000 
     37 CA          4.8381  -16.3644  -43.1524 C.3       7 UNK         0.1400 
     38 CB          5.4279  -15.0897  -43.7735 C.3       7 UNK        -0.1800 
     39 N           4.0468  -16.0008  -41.9717 N.am      7 UNK        -0.5000 
     40 C           3.4405  -16.8632  -41.1445 C.2       6 UNK         0.5000 
     41 O           3.3607  -18.0709  -41.3657 O.2       6 UNK        -0.5000 
     42 CA          2.8385  -16.2993  -39.8477 C.3       6 UNK         0.1400 
     43 CB          3.4807  -14.9774  -39.3792 C.3       6 UNK        -0.1800 
     44 N           1.3973  -16.1189  -39.9980 N.am      6 UNK        -0.5000 
     45 C           0.4998  -16.3358  -39.0244 C.2       5 UNK         0.5000 
     46 O           0.8021  -16.7791  -37.9153 O.2       5 UNK        -0.5000 
     47 CA         -0.9780  -15.9800  -39.2970 C.3       5 UNK         0.1400 
     48 CB         -1.4257  -14.8198  -38.3925 C.3       5 UNK        -0.1800 
     49 N          -1.2266  -15.5986  -40.6858 N.am      5 UNK        -0.5000 
     50 C          -1.5401  -16.4452  -41.6739 C.2       4 UNK         0.5000 
     51 O          -1.7685  -17.6397  -41.4950 O.2       4 UNK        -0.5000 
     52 CA         -1.6004  -15.8666  -43.1048 C.3       4 UNK         0.1400 
     53 CB         -3.0520  -15.8020  -43.6029 C.3       4 UNK        -0.1800 
     54 N          -0.9895  -14.5373  -43.2457 N.am      4 UNK        -0.5000 
     55 C           0.3092  -14.2625  -43.0683 C.2       3 UNK         0.5000 
     56 O           1.1509  -15.1225  -42.8008 O.2       3 UNK        -0.5000 
     57 CA          0.7123  -12.7891  -43.2116 C.3       3 UNK         0.1400 
     58 CB          2.1873  -12.5307  -42.8520 C.3       3 UNK        -0.1800 
     59 N           0.4510  -12.3660  -44.5800 N.am      3 UNK        -0.5000 
     60 C           0.2204  -11.1153  -44.9893 C.2       2 UNK         0.5000 
     61 O           0.1331  -10.1545  -44.2223 O.2       2 UNK        -0.5000 
     62 CA          0.1005  -10.9130  -46.5176 C.3       2 UNK         0.1400 
     63 CB         -0.1312   -9.4420  -46.9080 C.3       2 UNK        -0.1800 
     64 N           1.2863  -11.4039  -47.2259 N.am      2 UNK        -0.5000 
     65 C           1.5829  -12.6915  -47.4540 C.2       1 UNK         0.5000 
     66 O           0.8334  -13.6119  -47.1286 O.2       1 UNK        -0.5000 
     67 C          -1.7037  -22.0100  -46.9634 C.2       11 UNK         0.5000 
     68 O          -2.5222  -22.7574  -47.5015 O.2       11 UNK        -0.5000 
     69 N          -2.0045  -21.1855  -45.9486 N.am      12 UNK        -0.5000 
     70 CA         -3.3335  -21.0377  -45.3512 C.3       12 UNK         0.1400 
     71 CB         -3.3042  -19.9153  -44.3036 C.3       12 UNK        -0.1800 
     72 C          -3.8735  -22.3467  -44.7437 C.2       12 UNK         0.5000 
     73 O          -5.0301  -22.6927  -44.9859 O.2       12 UNK        -0.5000 
     74 N          -3.0129  -23.0832  -44.0255 N.am      13 UNK        -0.5000 
     75 CA         -3.3045  -24.3970  -43.4415 C.3       13 UNK         0.1400 
     76 CB         -2.1404  -24.8182  -42.5321 C.3       13 UNK        -0.1800 
     77 C          -3.5852  -25.4938  -44.4873 C.2       13 UNK         0.5000 
     78 O          -4.2855  -26.4582  -44.1792 O.2       13 UNK        -0.5000 
     79 N          -3.0698  -25.3115  -45.7097 N.am      14 UNK        -0.5000 
     80 CA         -3.3236  -26.1601  -46.8733 C.3       14 UNK         0.1400 
     81 CB         -2.0531  -26.1990  -47.7412 C.3       14 UNK        -0.1800 
     82 C          -4.5560  -25.6951  -47.6799 C.2       14 UNK         0.5000 
     83 O          -4.6933  -26.0828  -48.8402 O.2       14 UNK        -0.5000 
     84 N          -5.4169  -24.8583  -47.0776 N.am      15 UNK        -0.5000 
     85 CA         -6.6229  -24.2531  -47.6536 C.3       15 UNK         0.1400 
     86 CB         -7.6783  -25.3284  -47.9885 C.3       15 UNK        -0.1800 
     87 C          -6.2870  -23.3394  -48.8470 C.2       15 UNK         0.5000 
     88 O          -6.9006  -23.4490  -49.9095 O.2       15 UNK        -0.5000 
     89 N          -5.2693  -22.4883  -48.6527 N.am      16 UNK        -0.5000 
     90 CA         -4.6415  -21.6223  -49.6550 C.3       16 UNK         0.1400 
     91 CB         -5.6126  -20.5217  -50.1300 C.3       16 UNK        -0.1800 
     92 C          -4.0312  -22.4440  -50.8084 C.2       16 UNK         0.5000 
     93 O          -4.2433  -22.1186  -51.9768 O.2       16 UNK        -0.5000 
     94 N          -3.3222  -23.5222  -50.4385 N.am      17 UNK        -0.5000 
     95 CA         -2.7515  -24.5540  -51.3133 C.3       17 UNK         0.1400 
     96 CB         -1.5191  -24.0095  -52.0625 C.3       17 UNK        -0.1800 
     97 C          -3.8100  -25.1855  -52.2440 C.2       17 UNK         0.5000 
     98 O          -3.6206  -25.2396  -53.4602 O.2       17 UNK        -0.5000 
     99 N          -4.9217  -25.6223  -51.6338 N.am      18 UNK        -0.5000 
    100 CA        -6.1395  -26.1447  -52.2600 C.3       18 UNK         0.1400 
    101 CB        -5.8720  -27.5192  -52.9076 C.3       18 UNK        -0.1800 
    102 C         -6.7874  -25.1277  -53.2249 C.2       18 UNK         0.5000 
    103 O         -7.1185  -25.4742  -54.3607 O.2       18 UNK        -0.5000 
    104 N         -6.9452  -23.8874  -52.7386 N.am      19 UNK        -0.5000 
    105 CA        -7.4798  -22.7116  -53.4314 C.3       19 UNK         0.1400 
    106 CB        -8.9979  -22.8666  -53.6578 C.3       19 UNK        -0.1800 
    107 C         -6.7031  -22.3749  -54.7221 C.2       19 UNK         0.5000 
    108 O         -7.2924  -22.3022  -55.8033 O.2       19 UNK        -0.5000 
    109 N         -5.3823  -22.2007  -54.5854 N.am      20 UNK        -0.5000 
    110 CA        -4.4654  -21.8664  -55.6740 C.3       20 UNK         0.1400 
    111 CB        -3.0197  -21.9477  -55.1605 C.3       20 UNK        -0.1800 
    112 C         -4.7419  -20.4748  -56.2739 C.2       20 UNK         0.5000 
    113 O         -5.0396  -19.5312  -55.5377 O.2       20 UNK        -0.5000 
    114 N         -4.6059  -20.3738  -57.6016 N.am      21 UNK        -0.5000 
    115 CA        -4.7835  -19.1360  -58.3666 C.3       21 UNK         0.1400 
    116 CB        -5.2450  -19.5028  -59.7866 C.3       21 UNK        -0.1800 
    117 C         -3.5094  -18.2675  -58.4215 C.2       21 UNK         0.5000 
    118 O         -3.5844  -17.1242  -58.8730 O.2       21 UNK        -0.5000 
    119 N         -2.3701  -18.8265  -57.9879 N.am      22 UNK        -0.5000 
    120 CA        -1.0278  -18.2120  -57.9846 C.3       22 UNK         0.1400 
    121 C         -0.3866  -18.0422  -59.3976 C.2       22 UNK         0.5000 
    122 N         -0.9075  -18.6717  -60.4440 N.am      22 UNK        -0.7600 
    123 O          0.6209  -17.3562  -59.5487 O.2       22 UNK        -0.5000 
    124 C124       -0.9327  -16.9095  -57.1374 C.3       23 UNK        -0.0398 
    125 S125       -1.5228  -17.1037  -55.4205 S.3       23 UNK        -0.2404 
    126 C126        0.0214  -17.5538  -54.5716 C.3       23 UNK        -0.0205 
    127 H127        5.5704   -9.9823  -47.8184 H         1 UNK         0.0600 
    128 H128        6.4915  -10.7555  -46.5253 H         1 UNK         0.0600 
    129 H129        5.1672   -9.6547  -46.1304 H         1 UNK         0.0600 
    130 H130        4.1212  -11.3772  -48.7804 H         1 UNK         0.3000 
    131 H131        3.3557  -13.8701  -47.5822 H         1 UNK         0.0600 
    132 H132        2.0602  -12.7535  -50.1123 H         1 UNK         0.0800 
    133 H133        3.7254  -13.2319  -50.1302 H         1 UNK         0.0800 
    134 H134        0.0542  -14.9782  -49.2717 H         1 UNK         0.0800 
    135 H135        0.3754  -14.1982  -50.8018 H         1 UNK         0.0800 
    136 H136        0.7463  -15.5511  -52.8719 H         1 UNK         0.1150 
    137 H137       -1.0919  -19.4217  -52.9266 H         1 UNK         0.1150 
    138 H138       -0.5736  -17.3449  -49.2077 H         1 UNK         0.1150 
    139 H139       -2.0182  -19.3291  -49.3229 H         1 UNK         0.0800 
    140 H140       -2.4366  -19.9776  -50.8859 H         1 UNK         0.0800 
    141 H141       -0.2353  -19.8872  -47.9159 H         1 UNK         0.0800 
    142 H142        1.2073  -20.7279  -48.3979 H         1 UNK         0.0800 
    143 H143       -0.0916  -22.9468  -48.0047 H         1 UNK         0.0600 
    144 H144        1.0334  -21.2557  -45.9158 H         1 UNK         0.3000 
    145 H145        1.4238  -23.8838  -43.5840 H         1 UNK         0.0600 
    146 H146        3.3684  -24.2902  -45.1023 H         1 UNK         0.0600 
    147 H147        3.5892  -22.5562  -45.3050 H         1 UNK         0.0600 
    148 H148        3.8322  -23.3033  -43.7256 H         1 UNK         0.0600 
    149 H149        2.3682  -21.1846  -43.6348 H         1 UNK         0.3000 
    150 H150       -0.6203  -19.6125  -42.5768 H         1 UNK         0.0600 
    151 H151        0.7521  -18.9082  -40.6313 H         1 UNK         0.0600 
    152 H152        1.8645  -20.2505  -40.9068 H         1 UNK         0.0600 
    153 H153        0.1978  -20.5611  -40.4373 H         1 UNK         0.0600 
    154 H154        1.9937  -18.5619  -42.8211 H         1 UNK         0.3000 
    155 H155        2.5214  -18.2854  -45.9946 H         1 UNK         0.0600 
    156 H156        0.4973  -16.0506  -45.4968 H         1 UNK         0.0600 
    157 H157        0.4650  -17.1845  -46.8412 H         1 UNK         0.0600 
    158 H158        1.7908  -16.0499  -46.6914 H         1 UNK         0.0600 
    159 H159        2.3180  -16.3188  -43.7371 H         1 UNK         0.3000 
    160 H160        5.6678  -16.9799  -42.7991 H         1 UNK         0.0600 
    161 H161        6.0838  -15.3303  -44.6112 H         1 UNK         0.0600 
    162 H162        6.0197  -14.5295  -43.0496 H         1 UNK         0.0600 
    163 H163        4.6463  -14.4321  -44.1528 H         1 UNK         0.0600 
    164 H164        4.0319  -15.0211  -41.7317 H         1 UNK         0.3000 
    165 H165        3.0377  -17.0537  -39.0836 H         1 UNK         0.0600 
    166 H166        3.1281  -14.7075  -38.3836 H         1 UNK         0.0600 
    167 H167        4.5665  -15.0642  -39.3210 H         1 UNK         0.0600 
    168 H168        3.2446  -14.1478  -40.0448 H         1 UNK         0.0600 
    169 H169        1.0876  -15.8044  -40.9116 H         1 UNK         0.3000 
    170 H170       -1.5772  -16.8574  -39.0448 H         1 UNK         0.0600 
    171 H171       -2.4789  -14.5840  -38.5462 H         1 UNK         0.0600 
    172 H172       -1.3029  -15.0731  -37.3386 H         1 UNK         0.0600 
    173 H173       -0.8471  -13.9148  -38.5819 H         1 UNK         0.0600 
    174 H174       -1.0830  -14.6277  -40.9185 H         1 UNK         0.3000 
    175 H175       -1.0540  -16.5599  -43.7462 H         1 UNK         0.0600 
    176 H176       -3.6468  -15.1001  -43.0173 H         1 UNK         0.0600 
    177 H177       -3.5347  -16.7777  -43.5342 H         1 UNK         0.0600 
    178 H178       -3.0966  -15.4931  -44.6474 H         1 UNK         0.0600 
    179 H179       -1.6152  -13.7794  -43.4798 H         1 UNK         0.3000 
    180 H180        0.0837  -12.2153  -42.5277 H         1 UNK         0.0600 
    181 H181        2.4346  -11.4716  -42.9248 H         1 UNK         0.0600 
    182 H182        2.8591  -13.0740  -43.5157 H         1 UNK         0.0600 
    183 H183        2.4016  -12.8432  -41.8306 H         1 UNK         0.0600 
    184 H184        0.5122  -13.0890  -45.2930 H         1 UNK         0.3000 
    185 H185       -0.7684  -11.4846  -46.8505 H         1 UNK         0.0600 
    186 H186        0.7043   -8.8086  -46.6073 H         1 UNK         0.0600 
    187 H187       -0.2617   -9.3362  -47.9852 H         1 UNK         0.0600 
    188 H188       -1.0312   -9.0479  -46.4342 H         1 UNK         0.0600 
    189 H189        1.9727  -10.7096  -47.4819 H         1 UNK         0.3000 
    190 H190       -1.2715  -20.5888  -45.5753 H         1 UNK         0.3000 
    191 H191       -4.0154  -20.7360  -46.1488 H         1 UNK         0.0600 
    192 H192       -2.6855  -20.1804  -43.4469 H         1 UNK         0.0600 
    193 H193       -4.3068  -19.7070  -43.9284 H         1 UNK         0.0600 
    194 H194       -2.9139  -18.9886  -44.7250 H         1 UNK         0.0600 
    195 H195       -2.0881  -22.7048  -43.8300 H         1 UNK         0.3000 
    196 H196       -4.2005  -24.2962  -42.8258 H         1 UNK         0.0600 
    197 H197       -2.3290  -25.7908  -42.0759 H         1 UNK         0.0600 
    198 H198       -1.9952  -24.1037  -41.7218 H         1 UNK         0.0600 
    199 H199       -1.2045  -24.8902  -43.0880 H         1 UNK         0.0600 
    200 H200       -2.5262  -24.4763  -45.8835 H         1 UNK         0.3000 
    201 H201       -3.5290  -27.1796  -46.5415 H         1 UNK         0.0600 
    202 H202       -1.1930  -26.5354  -47.1620 H         1 UNK         0.0600 
    203 H203       -1.8111  -25.2194  -48.1527 H         1 UNK         0.0600 
    204 H204       -2.1670  -26.8897  -48.5775 H         1 UNK         0.0600 
    205 H205       -5.1911  -24.5449  -46.1416 H         1 UNK         0.3000 
    206 H206       -7.0439  -23.6075  -46.8816 H         1 UNK         0.0600 
    207 H207       -8.6152  -24.8678  -48.3037 H         1 UNK         0.0600 
    208 H208       -7.3525  -25.9854  -48.7953 H         1 UNK         0.0600 
    209 H209       -7.8979  -25.9482  -47.1194 H         1 UNK         0.0600 
    210 H210       -4.7795  -22.5419  -47.7689 H         1 UNK         0.3000 
    211 H211       -3.8109  -21.1262  -49.1544 H         1 UNK         0.0600 
    212 H212       -6.4658  -20.9331  -50.6685 H         1 UNK         0.0600 
    213 H213       -5.1114  -19.8223  -50.8002 H         1 UNK         0.0600 
    214 H214       -5.9951  -19.9457  -49.2876 H         1 UNK         0.0600 
    215 H215       -3.2021  -23.6711  -49.4445 H         1 UNK         0.3000 
    216 H216       -2.4072  -25.3594  -50.6639 H         1 UNK         0.0600 
    217 H217       -1.1001  -24.7593  -52.7342 H         1 UNK         0.0600 
    218 H218       -0.7313  -23.7328  -51.3630 H         1 UNK         0.0600 
    219 H219       -1.7603  -23.1293  -52.6576 H         1 UNK         0.0600 
    220 H220       -4.9439  -25.5813  -50.6168 H         1 UNK         0.3000 
    221 H221       -6.8554  -26.2963  -51.4508 H         1 UNK         0.0600 
    222 H222       -5.1876  -27.4441  -53.7531 H         1 UNK         0.0600 
    223 H223       -5.4412  -28.2155  -52.1881 H         1 UNK         0.0600 
    224 H224       -6.7976  -27.9638  -53.2747 H         1 UNK         0.0600 
    225 H225       -6.6778  -23.7255  -51.7705 H         1 UNK         0.3000 
    226 H226       -7.3338  -21.8668  -52.7575 H         1 UNK         0.0600 
    227 H227       -9.5180  -23.0518  -52.7180 H         1 UNK         0.0600 
    228 H228       -9.4221  -21.9596  -54.0900 H         1 UNK         0.0600 
    229 H229       -9.2262  -23.6900  -54.3352 H         1 UNK         0.0600 
    230 H230       -4.9747  -22.2499  -53.6530 H         1 UNK         0.3000 
    231 H231       -4.5946  -22.6183  -56.4552 H         1 UNK         0.0600 
    232 H232       -2.8478  -21.2589  -54.3320 H         1 UNK         0.0600 
    233 H233       -2.7858  -22.9543  -54.8150 H         1 UNK         0.0600 
    234 H234       -2.3055  -21.7022  -55.9471 H         1 UNK         0.0600 
    235 H235       -4.3679  -21.1981  -58.1349 H         1 UNK         0.3000 
    236 H236       -5.5675  -18.5347  -57.9013 H         1 UNK         0.0600 
    237 H237       -4.5010  -20.1038  -60.3108 H         1 UNK         0.0600 
    238 H238       -6.1775  -20.0671  -59.7641 H         1 UNK         0.0600 
    239 H239       -5.4244  -18.6081  -60.3844 H         1 UNK         0.0600 
    240 H240       -2.4166  -19.7719  -57.6401 H         1 UNK         0.3000 
    241 H241       -0.3884  -18.9468  -57.4946 H         1 UNK         0.0600 
    242 H242       -0.4792  -18.5648  -61.3504 H         1 UNK         0.3800 
    243 H243       -1.7255  -19.2499  -60.3413 H         1 UNK         0.3800 
    244 H244        0.0949  -16.5443  -57.1088 H         1 UNK         0.0800 
    245 H245       -1.5108  -16.1110  -57.6035 H         1 UNK         0.0800 
    246 H246        0.3238  -18.5571  -54.8752 H         1 UNK         0.0800 
    247 H247        0.8231  -16.8813  -54.8806 H         1 UNK         0.0800 
@<TRIPOS>BOND
     1    1    2 1    
     2    1  127 1    
     3    1  128 1    
     4    1  129 1    
     5    2    3 2    
     6    2    4 am   BACKBONE|DICT|INTERRES
     7    4    5 1    
     8    4  130 1    
     9    5    6 1    
    10    5   65 1    
    11    5  131 1    
    12    6    7 1    
    13    6  132 1    
    14    6  133 1    
    15    7    8 1    
    16    8    9 1    
    17    8  134 1    
    18    8  135 1    
    19    9   10 ar   
    20    9   14 ar   
    21   10   11 ar   
    22   10  136 1    
    23   11   12 ar   
    24   11  126 1    
    25   12   13 ar   
    26   12  137 1    
    27   13   14 ar   
    28   13   15 1    
    29   14  138 1    
    30   15   16 1    
    31   15  139 1    
    32   15  140 1    
    33   16   17 1    
    34   17   18 1    
    35   17  141 1    
    36   17  142 1    
    37   18   19 1    
    38   18   67 1    
    39   18  143 1    
    40   19   20 am   BACKBONE|DICT|INTERRES
    41   19  144 1    
    42   20   21 2    
    43   20   22 1    
    44   22   23 1    
    45   22   24 1    
    46   22  145 1    
    47   23  146 1    
    48   23  147 1    
    49   23  148 1    
    50   24   25 am   BACKBONE|DICT|INTERRES
    51   24  149 1    
    52   25   26 2    
    53   25   27 1    
    54   27   28 1    
    55   27   29 1    
    56   27  150 1    
    57   28  151 1    
    58   28  152 1    
    59   28  153 1    
    60   29   30 am   BACKBONE|DICT|INTERRES
    61   29  154 1    
    62   30   31 2    
    63   30   32 1    
    64   32   33 1    
    65   32   34 1    
    66   32  155 1    
    67   33  156 1    
    68   33  157 1    
    69   33  158 1    
    70   34   35 am   BACKBONE|DICT|INTERRES
    71   34  159 1    
    72   35   36 2    
    73   35   37 1    
    74   37   38 1    
    75   37   39 1    
    76   37  160 1    
    77   38  161 1    
    78   38  162 1    
    79   38  163 1    
    80   39   40 am   BACKBONE|DICT|INTERRES
    81   39  164 1    
    82   40   41 2    
    83   40   42 1    
    84   42   43 1    
    85   42   44 1    
    86   42  165 1    
    87   43  166 1    
    88   43  167 1    
    89   43  168 1    
    90   44   45 am   BACKBONE|DICT|INTERRES
    91   44  169 1    
    92   45   46 2    
    93   45   47 1    
    94   47   48 1    
    95   47   49 1    
    96   47  170 1    
    97   48  171 1    
    98   48  172 1    
    99   48  173 1    
   100   49   50 am   BACKBONE|DICT|INTERRES
   101   49  174 1    
   102   50   51 2    
   103   50   52 1    
   104   52   53 1    
   105   52   54 1    
   106   52  175 1    
   107   53  176 1    
   108   53  177 1    
   109   53  178 1    
   110   54   55 am   BACKBONE|DICT|INTERRES
   111   54  179 1    
   112   55   56 2    
   113   55   57 1    
   114   57   58 1    
   115   57   59 1    
   116   57  180 1    
   117   58  181 1    
   118   58  182 1    
   119   58  183 1    
   120   59   60 am   BACKBONE|DICT|INTERRES
   121   59  184 1    
   122   60   61 2    
   123   60   62 1    
   124   62   63 1    
   125   62   64 1    
   126   62  185 1    
   127   63  186 1    
   128   63  187 1    
   129   63  188 1    
   130   64   65 am   BACKBONE|DICT|INTERRES
   131   64  189 1    
   132   65   66 2    
   133   67   68 2    
   134   67   69 am   BACKBONE|DICT|INTERRES
   135   69   70 1    
   136   69  190 1    
   137   70   71 1    
   138   70   72 1    
   139   70  191 1    
   140   71  192 1    
   141   71  193 1    
   142   71  194 1    
   143   72   73 2    
   144   72   74 am   BACKBONE|DICT|INTERRES
   145   74   75 1    
   146   74  195 1    
   147   75   76 1    
   148   75   77 1    
   149   75  196 1    
   150   76  197 1    
   151   76  198 1    
   152   76  199 1    
   153   77   78 2    
   154   77   79 am   BACKBONE|DICT|INTERRES
   155   79   80 1    
   156   79  200 1    
   157   80   81 1    
   158   80   82 1    
   159   80  201 1    
   160   81  202 1    
   161   81  203 1    
   162   81  204 1    
   163   82   83 2    
   164   82   84 am   BACKBONE|DICT|INTERRES
   165   84   85 1    
   166   84  205 1    
   167   85   86 1    
   168   85   87 1    
   169   85  206 1    
   170   86  207 1    
   171   86  208 1    
   172   86  209 1    
   173   87   88 2    
   174   87   89 am   BACKBONE|DICT|INTERRES
   175   89   90 1    
   176   89  210 1    
   177   90   91 1    
   178   90   92 1    
   179   90  211 1    
   180   91  212 1    
   181   91  213 1    
   182   91  214 1    
   183   92   93 2    
   184   92   94 am   BACKBONE|DICT|INTERRES
   185   94   95 1    
   186   94  215 1    
   187   95   96 1    
   188   95   97 1    
   189   95  216 1    
   190   96  217 1    
   191   96  218 1    
   192   96  219 1    
   193   97   98 2    
   194   97   99 am   BACKBONE|DICT|INTERRES
   195   99  100 1    
   196   99  220 1    
   197  100  101 1    
   198  100  102 1    
   199  100  221 1    
   200  101  222 1    
   201  101  223 1    
   202  101  224 1    
   203  102  103 2    
   204  102  104 am   BACKBONE|DICT|INTERRES
   205  104  105 1    
   206  104  225 1    
   207  105  106 1    
   208  105  107 1    
   209  105  226 1    
   210  106  227 1    
   211  106  228 1    
   212  106  229 1    
   213  107  108 2    
   214  107  109 am   BACKBONE|DICT|INTERRES
   215  109  110 1    
   216  109  230 1    
   217  110  111 1    
   218  110  112 1    
   219  110  231 1    
   220  111  232 1    
   221  111  233 1    
   222  111  234 1    
   223  112  113 2    
   224  112  114 am   BACKBONE|DICT|INTERRES
   225  114  115 1    
   226  114  235 1    
   227  115  116 1    
   228  115  117 1    
   229  115  236 1    
   230  116  237 1    
   231  116  238 1    
   232  116  239 1    
   233  117  118 2    
   234  117  119 am   BACKBONE|DICT|INTERRES
   235  119  120 1    
   236  119  240 1    
   237  120  121 1    
   238  120  124 1    
   239  120  241 1    
   240  121  122 am   BACKBONE|DICT|INTERRES
   241  121  123 2    
   242  122  242 1    
   243  122  243 1    
   244  124  125 1    
   245  124  244 1    
   246  124  245 1    
   247  125  126 1    
   248  126  246 1    
   249  126  247 1    
@<TRIPOS>SUBSTRUCTURE
     1 UNK         1 GROUP             0       ****    0 ROOT    
