@<TRIPOS>MOLECULE
3R540
247   249    1
SMALL
USER_CHARGES


@<TRIPOS>ATOM
      1 CA          2.4733  -11.5072  -51.7534 C.3       0 UNK        -0.1800 
      2 C           2.7474  -12.2026  -50.4279 C.2       0 UNK         0.5000 
      3 O           3.6861  -11.8338  -49.7218 O.2       0 UNK        -0.5000 
      4 N           1.9251  -13.2006  -50.0815 N.am      1 UNK        -0.5000 
      5 CA          2.0283  -13.9973  -48.8528 C.3       1 UNK         0.1400 
      6 C6          1.1744  -15.2839  -48.9612 C.3       23 UNK        -0.0398 
      7 S7          1.7880  -16.6475  -47.9135 S.3       23 UNK        -0.2404 
      8 C8          1.9816  -17.9840  -49.1389 C.3       23 UNK        -0.0205 
      9 C9          0.6893  -18.5355  -49.7498 C.ar      23 UNK        -0.0193 
     10 C10        -0.5918  -18.0999  -49.3768 C.ar      23 UNK        -0.1150 
     11 C11        -1.7307  -18.5997  -50.0133 C.ar      23 UNK        -0.0193 
     12 C12        -1.5914  -19.5740  -51.0012 C.ar      23 UNK        -0.1150 
     13 C13        -0.3272  -20.0257  -51.3808 C.ar      23 UNK        -0.0193 
     14 C14         0.8049  -19.5041  -50.7514 C.ar      23 UNK        -0.1150 
     15 C15        -0.1824  -21.0444  -52.4998 C.3       23 UNK        -0.0205 
     16 S16         0.1399  -22.7194  -51.8696 S.3       23 UNK        -0.2404 
     17 C17        -1.4370  -23.1201  -51.0459 C.3       23 UNK        -0.0398 
     18 CA         -1.2241  -23.6281  -49.6044 C.3       11 UNK         0.1400 
     19 N          -0.6045  -22.6279  -48.7289 N.am      11 UNK        -0.5000 
     20 C           0.0497  -22.9375  -47.6018 C.2       10 UNK         0.5000 
     21 O           0.1686  -24.0873  -47.1816 O.2       10 UNK        -0.5000 
     22 CA          0.6122  -21.7689  -46.7733 C.3       10 UNK         0.1400 
     23 CB          1.9730  -21.3302  -47.3296 C.3       10 UNK        -0.1800 
     24 N          -0.2849  -20.6115  -46.6857 N.am      10 UNK        -0.5000 
     25 C          -1.5388  -20.6500  -46.2111 C.2       9 UNK         0.5000 
     26 O          -2.1024  -21.6941  -45.8774 O.2       9 UNK        -0.5000 
     27 CA         -2.2674  -19.3030  -46.0788 C.3       9 UNK         0.1400 
     28 CB         -3.5536  -19.3886  -45.2334 C.3       9 UNK        -0.1800 
     29 N          -1.3670  -18.2967  -45.5223 N.am      9 UNK        -0.5000 
     30 C          -1.4831  -16.9752  -45.6806 C.2       8 UNK         0.5000 
     31 O          -2.3659  -16.4565  -46.3657 O.2       8 UNK        -0.5000 
     32 CA         -0.4468  -16.0902  -44.9497 C.3       8 UNK         0.1400 
     33 CB         -0.7428  -14.5911  -45.1250 C.3       8 UNK        -0.1800 
     34 N          -0.3144  -16.3872  -43.5182 N.am      8 UNK        -0.5000 
     35 C           0.2953  -17.4621  -42.9935 C.2       7 UNK         0.5000 
     36 O           0.7858  -18.3553  -43.6864 O.2       7 UNK        -0.5000 
     37 CA          0.3737  -17.5836  -41.4574 C.3       7 UNK         0.1400 
     38 CB          1.8116  -17.8579  -40.9850 C.3       7 UNK        -0.1800 
     39 N          -0.1278  -16.3973  -40.7636 N.am      7 UNK        -0.5000 
     40 C          -1.3777  -16.2510  -40.3029 C.2       6 UNK         0.5000 
     41 O          -2.2494  -17.1137  -40.4126 O.2       6 UNK        -0.5000 
     42 CA         -1.7241  -14.9167  -39.6096 C.3       6 UNK         0.1400 
     43 CB         -1.6712  -15.0766  -38.0825 C.3       6 UNK        -0.1800 
     44 N          -0.8582  -13.8007  -39.9980 N.am      6 UNK        -0.5000 
     45 C          -0.7894  -13.2751  -41.2278 C.2       5 UNK         0.5000 
     46 O          -1.4685  -13.6783  -42.1713 O.2       5 UNK        -0.5000 
     47 CA          0.2189  -12.1319  -41.4598 C.3       5 UNK         0.1400 
     48 CB          0.7481  -11.4846  -40.1605 C.3       5 UNK        -0.1800 
     49 N           1.3386  -12.5493  -42.3080 N.am      5 UNK        -0.5000 
     50 C           2.1920  -13.5649  -42.0954 C.2       4 UNK         0.5000 
     51 O           2.0968  -14.3428  -41.1443 O.2       4 UNK        -0.5000 
     52 CA          3.3509  -13.7539  -43.0996 C.3       4 UNK         0.1400 
     53 CB          3.2471  -15.1102  -43.8135 C.3       4 UNK        -0.1800 
     54 N           3.4247  -12.6953  -44.1089 N.am      4 UNK        -0.5000 
     55 C           3.9603  -11.4809  -43.9124 C.2       3 UNK         0.5000 
     56 O           4.5203  -11.1483  -42.8674 O.2       3 UNK        -0.5000 
     57 CA          3.8297  -10.4504  -45.0566 C.3       3 UNK         0.1400 
     58 CB          5.1272  -10.3927  -45.8768 C.3       3 UNK        -0.1800 
     59 N           2.7095  -10.7046  -45.9662 N.am      3 UNK        -0.5000 
     60 C           1.4157  -10.7387  -45.6175 C.2       2 UNK         0.5000 
     61 O           1.0102  -10.4712  -44.4860 O.2       2 UNK        -0.5000 
     62 CA          0.4073  -11.2043  -46.6883 C.3       2 UNK         0.1400 
     63 CB         -0.2683   -9.9917  -47.3455 C.3       2 UNK        -0.1800 
     64 N           0.9510  -12.0701  -47.7434 N.am      2 UNK        -0.5000 
     65 C           1.6627  -13.1976  -47.5814 C.2       1 UNK         0.5000 
     66 O           2.0361  -13.6093  -46.4842 O.2       1 UNK        -0.5000 
     67 C          -2.5331  -24.2069  -49.0285 C.2       11 UNK         0.5000 
     68 O          -2.9591  -25.2644  -49.4934 O.2       11 UNK        -0.5000 
     69 N          -3.1449  -23.5443  -48.0362 N.am      12 UNK        -0.5000 
     70 CA         -4.2789  -24.0794  -47.2805 C.3       12 UNK         0.1400 
     71 CB         -5.1573  -22.9324  -46.7608 C.3       12 UNK        -0.1800 
     72 C          -3.7939  -24.9808  -46.1365 C.2       12 UNK         0.5000 
     73 O          -4.3819  -26.0390  -45.9163 O.2       12 UNK        -0.5000 
     74 N          -2.6987  -24.5826  -45.4729 N.am      13 UNK        -0.5000 
     75 CA         -2.0138  -25.3734  -44.4478 C.3       13 UNK         0.1400 
     76 CB         -0.9323  -24.5128  -43.7770 C.3       13 UNK        -0.1800 
     77 C          -1.4149  -26.6780  -45.0106 C.2       13 UNK         0.5000 
     78 O          -1.5298  -27.7262  -44.3747 O.2       13 UNK        -0.5000 
     79 N          -0.8238  -26.5955  -46.2107 N.am      14 UNK        -0.5000 
     80 CA         -0.2909  -27.7329  -46.9642 C.3       14 UNK         0.1400 
     81 CB          0.7031  -27.2088  -48.0128 C.3       14 UNK        -0.1800 
     82 C          -1.3785  -28.5847  -47.6508 C.2       14 UNK         0.5000 
     83 O          -1.0788  -29.7033  -48.0697 O.2       14 UNK        -0.5000 
     84 N          -2.6001  -28.0403  -47.7719 N.am      15 UNK        -0.5000 
     85 CA         -3.7647  -28.6022  -48.4678 C.3       15 UNK         0.1400 
     86 CB         -4.2945  -29.8502  -47.7319 C.3       15 UNK        -0.1800 
     87 C          -3.4868  -28.8450  -49.9677 C.2       15 UNK         0.5000 
     88 O          -3.7728  -29.9218  -50.4954 O.2       15 UNK        -0.5000 
     89 N          -2.9039  -27.8276  -50.6101 N.am      16 UNK        -0.5000 
     90 CA         -2.5268  -27.7974  -52.0172 C.3       16 UNK         0.1400 
     91 CB         -1.0753  -27.2828  -52.1175 C.3       16 UNK        -0.1800 
     92 C          -3.5543  -26.9392  -52.7791 C.2       16 UNK         0.5000 
     93 O          -4.7081  -27.3513  -52.9053 O.2       16 UNK        -0.5000 
     94 N          -3.1353  -25.7598  -53.2596 N.am      17 UNK        -0.5000 
     95 CA         -3.9574  -24.7967  -54.0017 C.3       17 UNK         0.1400 
     96 CB         -3.0331  -23.7451  -54.6396 C.3       17 UNK        -0.1800 
     97 C          -5.0561  -24.1035  -53.1667 C.2       17 UNK         0.5000 
     98 O          -5.9299  -23.4645  -53.7530 O.2       17 UNK        -0.5000 
     99 N          -4.9970  -24.2336  -51.8326 N.am      18 UNK        -0.5000 
    100 CA        -5.8787  -23.6017  -50.8491 C.3       18 UNK         0.1400 
    101 CB        -7.3295  -24.1177  -50.9803 C.3       18 UNK        -0.1800 
    102 C         -5.7346  -22.0660  -50.8578 C.2       18 UNK         0.5000 
    103 O         -4.6120  -21.5674  -50.9513 O.2       18 UNK        -0.5000 
    104 N         -6.8510  -21.3372  -50.7463 N.am      19 UNK        -0.5000 
    105 CA        -6.9094  -19.8753  -50.7691 C.3       19 UNK         0.1400 
    106 CB        -8.1426  -19.4192  -49.9689 C.3       19 UNK        -0.1800 
    107 C         -6.8939  -19.3297  -52.2134 C.2       19 UNK         0.5000 
    108 O         -7.8125  -18.6148  -52.6192 O.2       19 UNK        -0.5000 
    109 N         -5.8543  -19.6900  -52.9693 N.am      20 UNK        -0.5000 
    110 CA        -5.5814  -19.2353  -54.3260 C.3       20 UNK         0.1400 
    111 CB        -6.2562  -20.1727  -55.3406 C.3       20 UNK        -0.1800 
    112 C         -4.0613  -19.2075  -54.5218 C.2       20 UNK         0.5000 
    113 O         -3.3579  -20.0061  -53.9016 O.2       20 UNK        -0.5000 
    114 N         -3.5919  -18.2932  -55.3827 N.am      21 UNK        -0.5000 
    115 CA        -2.1797  -18.0043  -55.6736 C.3       21 UNK         0.1400 
    116 CB        -1.4724  -19.2263  -56.2994 C.3       21 UNK        -0.1800 
    117 C         -1.4176  -17.4165  -54.4632 C.2       21 UNK         0.5000 
    118 O         -0.2126  -17.6332  -54.3267 O.2       21 UNK        -0.5000 
    119 N         -2.1362  -16.6640  -53.6187 N.am      22 UNK        -0.5000 
    120 CA        -1.6227  -16.0367  -52.3875 C.3       22 UNK         0.1400 
    121 C         -0.7871  -14.7401  -52.6154 C.2       22 UNK         0.5000 
    122 N         -0.6505  -14.2357  -53.8352 N.am      22 UNK        -0.7600 
    123 O         -0.2523  -14.1741  -51.6661 O.2       22 UNK        -0.5000 
    124 C124       -2.7467  -15.7855  -51.3415 C.3       23 UNK        -0.0398 
    125 S125       -3.8768  -17.2012  -51.0822 S.3       23 UNK        -0.2404 
    126 C126       -3.1110  -18.0604  -49.6700 C.3       23 UNK        -0.0205 
    127 H127        1.6054  -11.9308  -52.2596 H         1 UNK         0.0600 
    128 H128        3.3345  -11.6061  -52.4141 H         1 UNK         0.0600 
    129 H129        2.2871  -10.4459  -51.5893 H         1 UNK         0.0600 
    130 H130        1.1622  -13.4611  -50.7054 H         1 UNK         0.3000 
    131 H131        3.0763  -14.2890  -48.7548 H         1 UNK         0.0600 
    132 H132        1.1791  -15.6378  -49.9926 H         1 UNK         0.0800 
    133 H133        0.1262  -15.0881  -48.7270 H         1 UNK         0.0800 
    134 H134        2.6284  -17.6251  -49.9410 H         1 UNK         0.0800 
    135 H135        2.5229  -18.7984  -48.6595 H         1 UNK         0.0800 
    136 H136       -0.7208  -17.3498  -48.6125 H         1 UNK         0.1150 
    137 H137       -2.4728  -19.9538  -51.4978 H         1 UNK         0.1150 
    138 H138        1.7842  -19.8467  -51.0555 H         1 UNK         0.1150 
    139 H139       -1.0750  -21.0599  -53.1261 H         1 UNK         0.0800 
    140 H140        0.6381  -20.7462  -53.1539 H         1 UNK         0.0800 
    141 H141       -1.9246  -23.8830  -51.6499 H         1 UNK         0.0800 
    142 H142       -2.1061  -22.2617  -51.0561 H         1 UNK         0.0800 
    143 H143       -0.5358  -24.4732  -49.6708 H         1 UNK         0.0600 
    144 H144       -0.6565  -21.6632  -49.0237 H         1 UNK         0.3000 
    145 H145        0.7650  -22.1323  -45.7551 H         1 UNK         0.0600 
    146 H146        2.3915  -20.5038  -46.7547 H         1 UNK         0.0600 
    147 H147        1.8967  -21.0198  -48.3715 H         1 UNK         0.0600 
    148 H148        2.6905  -22.1507  -47.2884 H         1 UNK         0.0600 
    149 H149        0.1038  -19.7182  -46.9510 H         1 UNK         0.3000 
    150 H150       -2.5438  -19.0079  -47.0903 H         1 UNK         0.0600 
    151 H151       -4.2708  -20.0764  -45.6800 H         1 UNK         0.0600 
    152 H152       -4.0483  -18.4202  -45.1594 H         1 UNK         0.0600 
    153 H153       -3.3442  -19.7356  -44.2209 H         1 UNK         0.0600 
    154 H154       -0.6039  -18.6376  -44.9412 H         1 UNK         0.3000 
    155 H155        0.5175  -16.2881  -45.4156 H         1 UNK         0.0600 
    156 H156       -0.7496  -14.3174  -46.1801 H         1 UNK         0.0600 
    157 H157        0.0113  -13.9759  -44.6343 H         1 UNK         0.0600 
    158 H158       -1.7166  -14.3232  -44.7149 H         1 UNK         0.0600 
    159 H159       -0.7210  -15.7075  -42.8876 H         1 UNK         0.3000 
    160 H160       -0.2288  -18.4523  -41.1848 H         1 UNK         0.0600 
    161 H161        2.4784  -17.0270  -41.2115 H         1 UNK         0.0600 
    162 H162        2.2226  -18.7495  -41.4600 H         1 UNK         0.0600 
    163 H163        1.8438  -18.0240  -39.9081 H         1 UNK         0.0600 
    164 H164        0.5270  -15.6273  -40.6666 H         1 UNK         0.3000 
    165 H165       -2.7473  -14.6599  -39.8914 H         1 UNK         0.0600 
    166 H166       -1.9944  -14.1658  -37.5782 H         1 UNK         0.0600 
    167 H167       -2.3290  -15.8809  -37.7502 H         1 UNK         0.0600 
    168 H168       -0.6636  -15.3132  -37.7381 H         1 UNK         0.0600 
    169 H169       -0.2444  -13.4344  -39.2849 H         1 UNK         0.3000 
    170 H170       -0.3181  -11.3620  -42.0158 H         1 UNK         0.0600 
    171 H171        1.3482  -12.1746  -39.5664 H         1 UNK         0.0600 
    172 H172        1.3738  -10.6213  -40.3877 H         1 UNK         0.0600 
    173 H173       -0.0716  -11.1286  -39.5351 H         1 UNK         0.0600 
    174 H174        1.4743  -11.9794  -43.1352 H         1 UNK         0.3000 
    175 H175        4.2781  -13.7512  -42.5231 H         1 UNK         0.0600 
    176 H176        2.3108  -15.2023  -44.3609 H         1 UNK         0.0600 
    177 H177        4.0623  -15.2473  -44.5240 H         1 UNK         0.0600 
    178 H178        3.2954  -15.9355  -43.1042 H         1 UNK         0.0600 
    179 H179        2.9762  -12.9008  -44.9991 H         1 UNK         0.3000 
    180 H180        3.6685   -9.4730  -44.5976 H         1 UNK         0.0600 
    181 H181        5.0825   -9.6079  -46.6322 H         1 UNK         0.0600 
    182 H182        5.3221  -11.3378  -46.3855 H         1 UNK         0.0600 
    183 H183        5.9855  -10.1793  -45.2383 H         1 UNK         0.0600 
    184 H184        2.9486  -10.9607  -46.9137 H         1 UNK         0.3000 
    185 H185       -0.3609  -11.7791  -46.1683 H         1 UNK         0.0600 
    186 H186       -1.0707  -10.3008  -48.0157 H         1 UNK         0.0600 
    187 H187       -0.7102   -9.3342  -46.5954 H         1 UNK         0.0600 
    188 H188        0.4436   -9.4001  -47.9225 H         1 UNK         0.0600 
    189 H189        0.7151  -11.8117  -48.6904 H         1 UNK         0.3000 
    190 H190       -2.7178  -22.7033  -47.6697 H         1 UNK         0.3000 
    191 H191       -4.8953  -24.7014  -47.9305 H         1 UNK         0.0600 
    192 H192       -4.6479  -22.3478  -45.9963 H         1 UNK         0.0600 
    193 H193       -6.0727  -23.3206  -46.3130 H         1 UNK         0.0600 
    194 H194       -5.4482  -22.2572  -47.5658 H         1 UNK         0.0600 
    195 H195       -2.3065  -23.6707  -45.6847 H         1 UNK         0.3000 
    196 H196       -2.7503  -25.6454  -43.6889 H         1 UNK         0.0600 
    197 H197       -1.3616  -23.6120  -43.3379 H         1 UNK         0.0600 
    198 H198       -0.1632  -24.2045  -44.4852 H         1 UNK         0.0600 
    199 H199       -0.4382  -25.0632  -42.9755 H         1 UNK         0.0600 
    200 H200       -0.6839  -25.6755  -46.6214 H         1 UNK         0.3000 
    201 H201        0.2515  -28.3832  -46.2746 H         1 UNK         0.0600 
    202 H202        1.5014  -26.6305  -47.5472 H         1 UNK         0.0600 
    203 H203        0.2109  -26.5711  -48.7474 H         1 UNK         0.0600 
    204 H204        1.1715  -28.0310  -48.5551 H         1 UNK         0.0600 
    205 H205       -2.7372  -27.1217  -47.3758 H         1 UNK         0.3000 
    206 H206       -4.5438  -27.8395  -48.4218 H         1 UNK         0.0600 
    207 H207       -4.4999  -29.6298  -46.6843 H         1 UNK         0.0600 
    208 H208       -5.2260  -30.1995  -48.1786 H         1 UNK         0.0600 
    209 H209       -3.5847  -30.6770  -47.7680 H         1 UNK         0.0600 
    210 H210       -2.7921  -26.9512  -50.1042 H         1 UNK         0.3000 
    211 H211       -2.5605  -28.8006  -52.4468 H         1 UNK         0.0600 
    212 H212       -0.7454  -27.2238  -53.1556 H         1 UNK         0.0600 
    213 H213       -0.9525  -26.2983  -51.6645 H         1 UNK         0.0600 
    214 H214       -0.3922  -27.9608  -51.6052 H         1 UNK         0.0600 
    215 H215       -2.1639  -25.5155  -53.1377 H         1 UNK         0.3000 
    216 H216       -4.4606  -25.3380  -54.8055 H         1 UNK         0.0600 
    217 H217       -3.6007  -23.0519  -55.2622 H         1 UNK         0.0600 
    218 H218       -2.2814  -24.2100  -55.2775 H         1 UNK         0.0600 
    219 H219       -2.5160  -23.1488  -53.8874 H         1 UNK         0.0600 
    220 H220       -4.2393  -24.7776  -51.4450 H         1 UNK         0.3000 
    221 H221       -5.5142  -23.9231  -49.8784 H         1 UNK         0.0600 
    222 H222       -7.8112  -23.7679  -51.8940 H         1 UNK         0.0600 
    223 H223       -7.3538  -25.2075  -50.9919 H         1 UNK         0.0600 
    224 H224       -7.9415  -23.7967  -50.1366 H         1 UNK         0.0600 
    225 H225       -7.7381  -21.8177  -50.7126 H         1 UNK         0.3000 
    226 H226       -6.0275  -19.4740  -50.2658 H         1 UNK         0.0600 
    227 H227       -8.1001  -19.7795  -48.9409 H         1 UNK         0.0600 
    228 H228       -8.2005  -18.3307  -49.9269 H         1 UNK         0.0600 
    229 H229       -9.0698  -19.7822  -50.4141 H         1 UNK         0.0600 
    230 H230       -5.1196  -20.2609  -52.5596 H         1 UNK         0.3000 
    231 H231       -5.9662  -18.2212  -54.4529 H         1 UNK         0.0600 
    232 H232       -6.0778  -19.8367  -56.3625 H         1 UNK         0.0600 
    233 H233       -7.3355  -20.2067  -55.1919 H         1 UNK         0.0600 
    234 H234       -5.8748  -21.1911  -55.2583 H         1 UNK         0.0600 
    235 H235       -4.2576  -17.6985  -55.8568 H         1 UNK         0.3000 
    236 H236       -2.1860  -17.2166  -56.4282 H         1 UNK         0.0600 
    237 H237       -1.3332  -20.0315  -55.5776 H         1 UNK         0.0600 
    238 H238       -2.0403  -19.6237  -57.1405 H         1 UNK         0.0600 
    239 H239       -0.4852  -18.9549  -56.6749 H         1 UNK         0.0600 
    240 H240       -3.1215  -16.5439  -53.7971 H         1 UNK         0.3000 
    241 H241       -0.9224  -16.7444  -51.9424 H         1 UNK         0.0600 
    242 H242       -0.1102  -13.3960  -53.9681 H         1 UNK         0.3800 
    243 H243       -1.0806  -14.6858  -54.6265 H         1 UNK         0.3800 
    244 H244       -2.3138  -15.5013  -50.3806 H         1 UNK         0.0800 
    245 H245       -3.3615  -14.9397  -51.6534 H         1 UNK         0.0800 
    246 H246       -3.0696  -17.3774  -48.8208 H         1 UNK         0.0800 
    247 H247       -3.7514  -18.8915  -49.3720 H         1 UNK         0.0800 
@<TRIPOS>BOND
     1    1    2 1    
     2    1  127 1    
     3    1  128 1    
     4    1  129 1    
     5    2    3 2    
     6    2    4 am   BACKBONE|DICT|INTERRES
     7    4    5 1    
     8    4  130 1    
     9    5    6 1    
    10    5   65 1    
    11    5  131 1    
    12    6    7 1    
    13    6  132 1    
    14    6  133 1    
    15    7    8 1    
    16    8    9 1    
    17    8  134 1    
    18    8  135 1    
    19    9   10 ar   
    20    9   14 ar   
    21   10   11 ar   
    22   10  136 1    
    23   11   12 ar   
    24   11  126 1    
    25   12   13 ar   
    26   12  137 1    
    27   13   14 ar   
    28   13   15 1    
    29   14  138 1    
    30   15   16 1    
    31   15  139 1    
    32   15  140 1    
    33   16   17 1    
    34   17   18 1    
    35   17  141 1    
    36   17  142 1    
    37   18   19 1    
    38   18   67 1    
    39   18  143 1    
    40   19   20 am   BACKBONE|DICT|INTERRES
    41   19  144 1    
    42   20   21 2    
    43   20   22 1    
    44   22   23 1    
    45   22   24 1    
    46   22  145 1    
    47   23  146 1    
    48   23  147 1    
    49   23  148 1    
    50   24   25 am   BACKBONE|DICT|INTERRES
    51   24  149 1    
    52   25   26 2    
    53   25   27 1    
    54   27   28 1    
    55   27   29 1    
    56   27  150 1    
    57   28  151 1    
    58   28  152 1    
    59   28  153 1    
    60   29   30 am   BACKBONE|DICT|INTERRES
    61   29  154 1    
    62   30   31 2    
    63   30   32 1    
    64   32   33 1    
    65   32   34 1    
    66   32  155 1    
    67   33  156 1    
    68   33  157 1    
    69   33  158 1    
    70   34   35 am   BACKBONE|DICT|INTERRES
    71   34  159 1    
    72   35   36 2    
    73   35   37 1    
    74   37   38 1    
    75   37   39 1    
    76   37  160 1    
    77   38  161 1    
    78   38  162 1    
    79   38  163 1    
    80   39   40 am   BACKBONE|DICT|INTERRES
    81   39  164 1    
    82   40   41 2    
    83   40   42 1    
    84   42   43 1    
    85   42   44 1    
    86   42  165 1    
    87   43  166 1    
    88   43  167 1    
    89   43  168 1    
    90   44   45 am   BACKBONE|DICT|INTERRES
    91   44  169 1    
    92   45   46 2    
    93   45   47 1    
    94   47   48 1    
    95   47   49 1    
    96   47  170 1    
    97   48  171 1    
    98   48  172 1    
    99   48  173 1    
   100   49   50 am   BACKBONE|DICT|INTERRES
   101   49  174 1    
   102   50   51 2    
   103   50   52 1    
   104   52   53 1    
   105   52   54 1    
   106   52  175 1    
   107   53  176 1    
   108   53  177 1    
   109   53  178 1    
   110   54   55 am   BACKBONE|DICT|INTERRES
   111   54  179 1    
   112   55   56 2    
   113   55   57 1    
   114   57   58 1    
   115   57   59 1    
   116   57  180 1    
   117   58  181 1    
   118   58  182 1    
   119   58  183 1    
   120   59   60 am   BACKBONE|DICT|INTERRES
   121   59  184 1    
   122   60   61 2    
   123   60   62 1    
   124   62   63 1    
   125   62   64 1    
   126   62  185 1    
   127   63  186 1    
   128   63  187 1    
   129   63  188 1    
   130   64   65 am   BACKBONE|DICT|INTERRES
   131   64  189 1    
   132   65   66 2    
   133   67   68 2    
   134   67   69 am   BACKBONE|DICT|INTERRES
   135   69   70 1    
   136   69  190 1    
   137   70   71 1    
   138   70   72 1    
   139   70  191 1    
   140   71  192 1    
   141   71  193 1    
   142   71  194 1    
   143   72   73 2    
   144   72   74 am   BACKBONE|DICT|INTERRES
   145   74   75 1    
   146   74  195 1    
   147   75   76 1    
   148   75   77 1    
   149   75  196 1    
   150   76  197 1    
   151   76  198 1    
   152   76  199 1    
   153   77   78 2    
   154   77   79 am   BACKBONE|DICT|INTERRES
   155   79   80 1    
   156   79  200 1    
   157   80   81 1    
   158   80   82 1    
   159   80  201 1    
   160   81  202 1    
   161   81  203 1    
   162   81  204 1    
   163   82   83 2    
   164   82   84 am   BACKBONE|DICT|INTERRES
   165   84   85 1    
   166   84  205 1    
   167   85   86 1    
   168   85   87 1    
   169   85  206 1    
   170   86  207 1    
   171   86  208 1    
   172   86  209 1    
   173   87   88 2    
   174   87   89 am   BACKBONE|DICT|INTERRES
   175   89   90 1    
   176   89  210 1    
   177   90   91 1    
   178   90   92 1    
   179   90  211 1    
   180   91  212 1    
   181   91  213 1    
   182   91  214 1    
   183   92   93 2    
   184   92   94 am   BACKBONE|DICT|INTERRES
   185   94   95 1    
   186   94  215 1    
   187   95   96 1    
   188   95   97 1    
   189   95  216 1    
   190   96  217 1    
   191   96  218 1    
   192   96  219 1    
   193   97   98 2    
   194   97   99 am   BACKBONE|DICT|INTERRES
   195   99  100 1    
   196   99  220 1    
   197  100  101 1    
   198  100  102 1    
   199  100  221 1    
   200  101  222 1    
   201  101  223 1    
   202  101  224 1    
   203  102  103 2    
   204  102  104 am   BACKBONE|DICT|INTERRES
   205  104  105 1    
   206  104  225 1    
   207  105  106 1    
   208  105  107 1    
   209  105  226 1    
   210  106  227 1    
   211  106  228 1    
   212  106  229 1    
   213  107  108 2    
   214  107  109 am   BACKBONE|DICT|INTERRES
   215  109  110 1    
   216  109  230 1    
   217  110  111 1    
   218  110  112 1    
   219  110  231 1    
   220  111  232 1    
   221  111  233 1    
   222  111  234 1    
   223  112  113 2    
   224  112  114 am   BACKBONE|DICT|INTERRES
   225  114  115 1    
   226  114  235 1    
   227  115  116 1    
   228  115  117 1    
   229  115  236 1    
   230  116  237 1    
   231  116  238 1    
   232  116  239 1    
   233  117  118 2    
   234  117  119 am   BACKBONE|DICT|INTERRES
   235  119  120 1    
   236  119  240 1    
   237  120  121 1    
   238  120  124 1    
   239  120  241 1    
   240  121  122 am   BACKBONE|DICT|INTERRES
   241  121  123 2    
   242  122  242 1    
   243  122  243 1    
   244  124  125 1    
   245  124  244 1    
   246  124  245 1    
   247  125  126 1    
   248  126  246 1    
   249  126  247 1    
@<TRIPOS>SUBSTRUCTURE
     1 UNK         1 GROUP             0       ****    0 ROOT    
