@<TRIPOS>MOLECULE
3R540
247   249    1
SMALL
USER_CHARGES


@<TRIPOS>ATOM
      1 CA         -5.2996  -14.9137  -48.1582 C.3       0 UNK        -0.1800 
      2 C          -3.8738  -14.3881  -48.1109 C.2       0 UNK         0.5000 
      3 O          -3.6623  -13.2041  -47.8524 O.2       0 UNK        -0.5000 
      4 N          -2.8884  -15.2589  -48.3746 N.am      1 UNK        -0.5000 
      5 CA         -1.4572  -14.9181  -48.3958 C.3       1 UNK         0.1400 
      6 C6         -0.6112  -15.9819  -49.1437 C.3       23 UNK        -0.0398 
      7 S7         -0.2735  -17.5261  -48.2256 S.3       23 UNK        -0.2404 
      8 C8         -1.3834  -18.7275  -49.0278 C.3       23 UNK        -0.0205 
      9 C9         -2.8416  -18.5818  -48.6170 C.ar      23 UNK        -0.0193 
     10 C10        -3.8431  -18.7337  -49.5767 C.ar      23 UNK        -0.1150 
     11 C11        -5.1959  -18.6324  -49.2274 C.ar      23 UNK        -0.0193 
     12 C12        -5.5330  -18.4004  -47.8907 C.ar      23 UNK        -0.1150 
     13 C13        -4.5428  -18.2496  -46.9169 C.ar      23 UNK        -0.0193 
     14 C14        -3.1996  -18.3406  -47.2872 C.ar      23 UNK        -0.1150 
     15 C15        -4.9274  -17.9699  -45.4721 C.3       23 UNK        -0.0205 
     16 S16        -5.0824  -19.4952  -44.4905 S.3       23 UNK        -0.2404 
     17 C17        -3.3405  -20.0019  -44.2773 C.3       23 UNK        -0.0398 
     18 CA         -2.9417  -21.1774  -45.2052 C.3       11 UNK         0.1400 
     19 N          -1.5011  -21.1860  -45.4877 N.am      11 UNK        -0.5000 
     20 C          -0.9211  -21.8979  -46.4677 C.2       10 UNK         0.5000 
     21 O          -1.5603  -22.5391  -47.3040 O.2       10 UNK        -0.5000 
     22 CA          0.6214  -21.9587  -46.4999 C.3       10 UNK         0.1400 
     23 CB          1.1927  -21.2082  -47.7094 C.3       10 UNK        -0.1800 
     24 N           1.2536  -21.4465  -45.2834 N.am      10 UNK        -0.5000 
     25 C           1.2958  -22.1029  -44.1149 C.2       9 UNK         0.5000 
     26 O           0.8147  -23.2238  -43.9561 O.2       9 UNK        -0.5000 
     27 CA          1.9331  -21.3766  -42.9108 C.3       9 UNK         0.1400 
     28 CB          3.4100  -21.7720  -42.7669 C.3       9 UNK        -0.1800 
     29 N           1.8361  -19.9167  -42.9820 N.am      9 UNK        -0.5000 
     30 C           0.6912  -19.2240  -43.0496 C.2       8 UNK         0.5000 
     31 O          -0.4221  -19.7461  -42.9857 O.2       8 UNK        -0.5000 
     32 CA          0.7943  -17.7074  -43.2985 C.3       8 UNK         0.1400 
     33 CB          0.6436  -16.9314  -41.9822 C.3       8 UNK        -0.1800 
     34 N           2.0077  -17.2534  -43.9875 N.am      8 UNK        -0.5000 
     35 C           2.4527  -17.6916  -45.1755 C.2       7 UNK         0.5000 
     36 O           1.9597  -18.6460  -45.7735 O.2       7 UNK        -0.5000 
     37 CA          3.6518  -16.9607  -45.8031 C.3       7 UNK         0.1400 
     38 CB          3.1850  -16.0890  -46.9787 C.3       7 UNK        -0.1800 
     39 N           4.3653  -16.1205  -44.8402 N.am      7 UNK        -0.5000 
     40 C           5.3833  -16.5419  -44.0763 C.2       6 UNK         0.5000 
     41 O           5.8204  -17.6929  -44.1010 O.2       6 UNK        -0.5000 
     42 CA          6.0304  -15.5133  -43.1266 C.3       6 UNK         0.1400 
     43 CB          7.2848  -14.9049  -43.7725 C.3       6 UNK        -0.1800 
     44 N           5.1259  -14.4302  -42.7391 N.am      6 UNK        -0.5000 
     45 C           4.0855  -14.5689  -41.9067 C.2       5 UNK         0.5000 
     46 O           3.8033  -15.6230  -41.3379 O.2       5 UNK        -0.5000 
     47 CA          3.1864  -13.3324  -41.7065 C.3       5 UNK         0.1400 
     48 CB          3.6436  -12.5283  -40.4805 C.3       5 UNK        -0.1800 
     49 N           3.1152  -12.4386  -42.8693 N.am      5 UNK        -0.5000 
     50 C           2.6698  -12.7985  -44.0797 C.2       4 UNK         0.5000 
     51 O           2.3557  -13.9538  -44.3726 O.2       4 UNK        -0.5000 
     52 CA          2.5283  -11.6861  -45.1296 C.3       4 UNK         0.1400 
     53 CB          3.2446  -12.0564  -46.4382 C.3       4 UNK        -0.1800 
     54 N           1.1043  -11.5198  -45.3880 N.am      4 UNK        -0.5000 
     55 C           0.3102  -10.6608  -44.7320 C.2       3 UNK         0.5000 
     56 O           0.7301   -9.7373  -44.0336 O.2       3 UNK        -0.5000 
     57 CA         -1.2115  -10.9135  -44.8197 C.3       3 UNK         0.1400 
     58 CB         -1.8214  -10.1510  -46.0051 C.3       3 UNK        -0.1800 
     59 N          -1.5367  -12.3357  -44.9483 N.am      3 UNK        -0.5000 
     60 C          -1.1958  -13.2842  -44.0631 C.2       2 UNK         0.5000 
     61 O          -0.7835  -13.0344  -42.9297 O.2       2 UNK        -0.5000 
     62 CA         -1.2806  -14.7551  -44.5208 C.3       2 UNK         0.1400 
     63 CB         -2.2874  -15.5375  -43.6620 C.3       2 UNK        -0.1800 
     64 N          -1.6060  -14.9638  -45.9352 N.am      2 UNK        -0.5000 
     65 C          -0.8876  -14.5699  -46.9992 C.2       1 UNK         0.5000 
     66 O           0.1540  -13.9197  -46.9163 O.2       1 UNK        -0.5000 
     67 C          -3.4167  -22.5328  -44.6331 C.2       11 UNK         0.5000 
     68 O          -4.5534  -22.9360  -44.8801 O.2       11 UNK        -0.5000 
     69 N          -2.5249  -23.2481  -43.9265 N.am      12 UNK        -0.5000 
     70 CA         -2.7629  -24.6071  -43.4272 C.3       12 UNK         0.1400 
     71 CB         -1.6799  -24.9743  -42.4022 C.3       12 UNK        -0.1800 
     72 C          -2.8244  -25.6563  -44.5567 C.2       12 UNK         0.5000 
     73 O          -3.3973  -26.7273  -44.3587 O.2       12 UNK        -0.5000 
     74 N          -2.2777  -25.3103  -45.7304 N.am      13 UNK        -0.5000 
     75 CA         -2.3743  -26.0643  -46.9787 C.3       13 UNK         0.1400 
     76 CB         -1.0105  -26.0184  -47.6891 C.3       13 UNK        -0.1800 
     77 C          -3.5223  -25.5334  -47.8673 C.2       13 UNK         0.5000 
     78 O          -3.4522  -25.6582  -49.0923 O.2       13 UNK        -0.5000 
     79 N          -4.5459  -24.9359  -47.2369 N.am      14 UNK        -0.5000 
     80 CA         -5.8147  -24.4138  -47.7609 C.3       14 UNK         0.1400 
     81 CB         -6.6422  -25.5322  -48.4227 C.3       14 UNK        -0.1800 
     82 C          -5.6881  -23.1963  -48.6940 C.2       14 UNK         0.5000 
     83 O          -6.3793  -22.1984  -48.4903 O.2       14 UNK        -0.5000 
     84 N          -4.8266  -23.3109  -49.7047 N.am      15 UNK        -0.5000 
     85 CA         -4.5789  -22.3194  -50.7439 C.3       15 UNK         0.1400 
     86 CB         -5.6956  -22.3744  -51.8053 C.3       15 UNK        -0.1800 
     87 C          -3.1779  -22.5488  -51.3279 C.2       15 UNK         0.5000 
     88 O          -3.0171  -22.5855  -52.5507 O.2       15 UNK        -0.5000 
     89 N          -2.1972  -22.7534  -50.4338 N.am      16 UNK        -0.5000 
     90 CA         -0.7986  -23.0799  -50.7280 C.3       16 UNK         0.1400 
     91 CB         -0.0913  -21.8803  -51.3929 C.3       16 UNK        -0.1800 
     92 C          -0.6529  -24.3932  -51.5242 C.2       16 UNK         0.5000 
     93 O           0.0403  -24.4282  -52.5401 O.2       16 UNK        -0.5000 
     94 N          -1.3451  -25.4429  -51.0560 N.am      17 UNK        -0.5000 
     95 CA         -1.4366  -26.7807  -51.6536 C.3       17 UNK         0.1400 
     96 CB         -0.0627  -27.4835  -51.6765 C.3       17 UNK        -0.1800 
     97 C          -2.1395  -26.7529  -53.0257 C.2       17 UNK         0.5000 
     98 O          -1.7118  -27.4279  -53.9635 O.2       17 UNK        -0.5000 
     99 N          -3.2094  -25.9472  -53.1002 N.am      18 UNK        -0.5000 
    100 CA        -4.0547  -25.6815  -54.2688 C.3       18 UNK         0.1400 
    101 CB        -4.7748  -26.9630  -54.7387 C.3       18 UNK        -0.1800 
    102 C         -3.3282  -24.9441  -55.4146 C.2       18 UNK         0.5000 
    103 O         -3.7728  -25.0126  -56.5618 O.2       18 UNK        -0.5000 
    104 N         -2.2478  -24.2194  -55.0891 N.am      19 UNK        -0.5000 
    105 CA        -1.5397  -23.3343  -56.0165 C.3       19 UNK         0.1400 
    106 CB        -0.1331  -23.0441  -55.4744 C.3       19 UNK        -0.1800 
    107 C         -2.2985  -22.0173  -56.2690 C.2       19 UNK         0.5000 
    108 O         -2.0557  -21.3752  -57.2914 O.2       19 UNK        -0.5000 
    109 N         -3.1962  -21.6475  -55.3406 N.am      20 UNK        -0.5000 
    110 CA        -4.0362  -20.4466  -55.3474 C.3       20 UNK         0.1400 
    111 CB        -5.0223  -20.4554  -56.5339 C.3       20 UNK        -0.1800 
    112 C         -3.2001  -19.1565  -55.2477 C.2       20 UNK         0.5000 
    113 O         -3.4374  -18.1921  -55.9761 O.2       20 UNK        -0.5000 
    114 N         -2.2389  -19.1652  -54.3143 N.am      21 UNK        -0.5000 
    115 CA        -1.3460  -18.0450  -53.9963 C.3       21 UNK         0.1400 
    116 CB        -0.0995  -18.6081  -53.2932 C.3       21 UNK        -0.1800 
    117 C         -2.0103  -16.9394  -53.1425 C.2       21 UNK         0.5000 
    118 O         -1.3249  -16.0041  -52.7293 O.2       21 UNK        -0.5000 
    119 N         -3.3117  -17.0891  -52.8673 N.am      22 UNK        -0.5000 
    120 CA        -4.1830  -16.2245  -52.0616 C.3       22 UNK         0.1400 
    121 C         -4.1245  -14.7276  -52.4821 C.2       22 UNK         0.5000 
    122 N         -3.7881  -13.8215  -51.5746 N.am      22 UNK        -0.7600 
    123 O         -4.4187  -14.3799  -53.6233 O.2       22 UNK        -0.5000 
    124 C124       -5.6555  -16.7303  -52.0904 C.3       23 UNK        -0.0398 
    125 S125       -5.8550  -18.5488  -51.9904 S.3       23 UNK        -0.2404 
    126 C126       -6.3235  -18.8059  -50.2446 C.3       23 UNK        -0.0205 
    127 H127       -5.6061  -15.2659  -47.1735 H         1 UNK         0.0600 
    128 H128       -5.3938  -15.7341  -48.8683 H         1 UNK         0.0600 
    129 H129       -5.9853  -14.1252  -48.4688 H         1 UNK         0.0600 
    130 H130       -3.1076  -16.2348  -48.5287 H         1 UNK         0.3000 
    131 H131       -1.3719  -13.9992  -48.9803 H         1 UNK         0.0600 
    132 H132        0.3574  -15.5497  -49.4003 H         1 UNK         0.0800 
    133 H133       -1.0775  -16.2219  -50.0989 H         1 UNK         0.0800 
    134 H134       -1.0663  -19.7348  -48.7617 H         1 UNK         0.0800 
    135 H135       -1.2708  -18.6466  -50.1094 H         1 UNK         0.0800 
    136 H136       -3.5582  -18.9444  -50.5966 H         1 UNK         0.1150 
    137 H137       -6.5737  -18.3363  -47.6053 H         1 UNK         0.1150 
    138 H138       -2.4286  -18.2321  -46.5387 H         1 UNK         0.1150 
    139 H139       -4.2044  -17.3009  -45.0082 H         1 UNK         0.0800 
    140 H140       -5.8818  -17.4421  -45.4427 H         1 UNK         0.0800 
    141 H141       -3.1725  -20.2519  -43.2280 H         1 UNK         0.0800 
    142 H142       -2.7051  -19.1365  -44.4634 H         1 UNK         0.0800 
    143 H143       -3.4467  -21.0423  -46.1647 H         1 UNK         0.0600 
    144 H144       -0.9126  -20.6976  -44.8229 H         1 UNK         0.3000 
    145 H145        0.8912  -23.0114  -46.6086 H         1 UNK         0.0600 
    146 H146        2.2737  -21.3317  -47.7742 H         1 UNK         0.0600 
    147 H147        0.7695  -21.5776  -48.6403 H         1 UNK         0.0600 
    148 H148        0.9846  -20.1415  -47.6554 H         1 UNK         0.0600 
    149 H149        1.6283  -20.5024  -45.3399 H         1 UNK         0.3000 
    150 H150        1.4006  -21.7013  -42.0146 H         1 UNK         0.0600 
    151 H151        3.5191  -22.8546  -42.6883 H         1 UNK         0.0600 
    152 H152        3.8500  -21.3364  -41.8697 H         1 UNK         0.0600 
    153 H153        3.9991  -21.4435  -43.6243 H         1 UNK         0.0600 
    154 H154        2.7034  -19.4068  -43.0647 H         1 UNK         0.3000 
    155 H155       -0.0428  -17.4535  -43.9488 H         1 UNK         0.0600 
    156 H156        1.4598  -17.1521  -41.2933 H         1 UNK         0.0600 
    157 H157       -0.2894  -17.1900  -41.4798 H         1 UNK         0.0600 
    158 H158        0.6329  -15.8545  -42.1525 H         1 UNK         0.0600 
    159 H159        2.4873  -16.4663  -43.5739 H         1 UNK         0.3000 
    160 H160        4.3299  -17.7197  -46.1990 H         1 UNK         0.0600 
    161 H161        2.4390  -15.3591  -46.6653 H         1 UNK         0.0600 
    162 H162        2.7316  -16.7001  -47.7600 H         1 UNK         0.0600 
    163 H163        4.0174  -15.5488  -47.4296 H         1 UNK         0.0600 
    164 H164        4.0078  -15.1797  -44.7212 H         1 UNK         0.3000 
    165 H165        6.3360  -16.0457  -42.2232 H         1 UNK         0.0600 
    166 H166        7.7946  -14.2293  -43.0853 H         1 UNK         0.0600 
    167 H167        7.9977  -15.6825  -44.0500 H         1 UNK         0.0600 
    168 H168        7.0411  -14.3453  -44.6765 H         1 UNK         0.0600 
    169 H169        5.2854  -13.5276  -43.1619 H         1 UNK         0.3000 
    170 H170        2.1748  -13.6977  -41.5159 H         1 UNK         0.0600 
    171 H171        3.6832  -13.1593  -39.5914 H         1 UNK         0.0600 
    172 H172        4.6374  -12.1030  -40.6260 H         1 UNK         0.0600 
    173 H173        2.9554  -11.7106  -40.2655 H         1 UNK         0.0600 
    174 H174        3.3417  -11.4687  -42.7016 H         1 UNK         0.3000 
    175 H175        2.9653  -10.7605  -44.7492 H         1 UNK         0.0600 
    176 H176        2.8278  -12.9574  -46.8892 H         1 UNK         0.0600 
    177 H177        3.1628  -11.2523  -47.1696 H         1 UNK         0.0600 
    178 H178        4.3066  -12.2350  -46.2659 H         1 UNK         0.0600 
    179 H179        0.6732  -12.2848  -45.9002 H         1 UNK         0.3000 
    180 H180       -1.6662  -10.5457  -43.8978 H         1 UNK         0.0600 
    181 H181       -1.4166  -10.4975  -46.9570 H         1 UNK         0.0600 
    182 H182       -1.6165   -9.0823  -45.9292 H         1 UNK         0.0600 
    183 H183       -2.9043  -10.2732  -46.0378 H         1 UNK         0.0600 
    184 H184       -1.8909  -12.6352  -45.8458 H         1 UNK         0.3000 
    185 H185       -0.2854  -15.1716  -44.3610 H         1 UNK         0.0600 
    186 H186       -2.0660  -15.4315  -42.5992 H         1 UNK         0.0600 
    187 H187       -3.3072  -15.1847  -43.8198 H         1 UNK         0.0600 
    188 H188       -2.2582  -16.6027  -43.8877 H         1 UNK         0.0600 
    189 H189       -2.4636  -15.4597  -46.1230 H         1 UNK         0.3000 
    190 H190       -1.5971  -22.8732  -43.7813 H         1 UNK         0.3000 
    191 H191       -3.7284  -24.6153  -42.9170 H         1 UNK         0.0600 
    192 H192       -0.6973  -25.0607  -42.8658 H         1 UNK         0.0600 
    193 H193       -1.9012  -25.9332  -41.9319 H         1 UNK         0.0600 
    194 H194       -1.6149  -24.2304  -41.6080 H         1 UNK         0.0600 
    195 H195       -1.8623  -24.3924  -45.8079 H         1 UNK         0.3000 
    196 H196       -2.5998  -27.1101  -46.7618 H         1 UNK         0.0600 
    197 H197       -0.9969  -26.6850  -48.5513 H         1 UNK         0.0600 
    198 H198       -0.2101  -26.3435  -47.0244 H         1 UNK         0.0600 
    199 H199       -0.7668  -25.0148  -48.0369 H         1 UNK         0.0600 
    200 H200       -4.4429  -24.8069  -46.2392 H         1 UNK         0.3000 
    201 H201       -6.3705  -24.0739  -46.8854 H         1 UNK         0.0600 
    202 H202       -6.8159  -26.3555  -47.7297 H         1 UNK         0.0600 
    203 H203       -6.1501  -25.9374  -49.3073 H         1 UNK         0.0600 
    204 H204       -7.6184  -25.1599  -48.7360 H         1 UNK         0.0600 
    205 H205       -4.2848  -24.1709  -49.7516 H         1 UNK         0.3000 
    206 H206       -4.5733  -21.3275  -50.2926 H         1 UNK         0.0600 
    207 H207       -5.5322  -21.6331  -52.5865 H         1 UNK         0.0600 
    208 H208       -5.7485  -23.3533  -52.2817 H         1 UNK         0.0600 
    209 H209       -6.6705  -22.1636  -51.3661 H         1 UNK         0.0600 
    210 H210       -2.4253  -22.7010  -49.4476 H         1 UNK         0.3000 
    211 H211       -0.3154  -23.2618  -49.7684 H         1 UNK         0.0600 
    212 H212       -0.5120  -21.6507  -52.3710 H         1 UNK         0.0600 
    213 H213        0.9717  -22.0795  -51.5320 H         1 UNK         0.0600 
    214 H214       -0.1750  -20.9849  -50.7789 H         1 UNK         0.0600 
    215 H215       -1.9360  -25.3093  -50.2412 H         1 UNK         0.3000 
    216 H216       -2.0854  -27.3612  -50.9960 H         1 UNK         0.0600 
    217 H217       -0.1646  -28.5253  -51.9822 H         1 UNK         0.0600 
    218 H218        0.3987  -27.4793  -50.6891 H         1 UNK         0.0600 
    219 H219        0.6285  -27.0075  -52.3724 H         1 UNK         0.0600 
    220 H220       -3.4494  -25.4275  -52.2690 H         1 UNK         0.3000 
    221 H221       -4.8237  -24.9898  -53.9230 H         1 UNK         0.0600 
    222 H222       -4.0824  -27.6791  -55.1819 H         1 UNK         0.0600 
    223 H223       -5.2841  -27.4557  -53.9106 H         1 UNK         0.0600 
    224 H224       -5.5305  -26.7340  -55.4909 H         1 UNK         0.0600 
    225 H225       -1.9457  -24.2006  -54.1237 H         1 UNK         0.3000 
    226 H226       -1.4333  -23.8461  -56.9753 H         1 UNK         0.0600 
    227 H227        0.4268  -23.9659  -55.3151 H         1 UNK         0.0600 
    228 H228        0.4376  -22.4334  -56.1749 H         1 UNK         0.0600 
    229 H229       -0.1711  -22.5062  -54.5277 H         1 UNK         0.0600 
    230 H230       -3.2562  -22.2147  -54.4999 H         1 UNK         0.3000 
    231 H231       -4.6316  -20.4874  -54.4353 H         1 UNK         0.0600 
    232 H232       -5.5978  -21.3808  -56.5600 H         1 UNK         0.0600 
    233 H233       -4.5119  -20.3503  -57.4914 H         1 UNK         0.0600 
    234 H234       -5.7341  -19.6331  -56.4530 H         1 UNK         0.0600 
    235 H235       -2.1153  -20.0060  -53.7685 H         1 UNK         0.3000 
    236 H236       -1.0273  -17.5802  -54.9314 H         1 UNK         0.0600 
    237 H237        0.6396  -17.8260  -53.1151 H         1 UNK         0.0600 
    238 H238       -0.3490  -19.0471  -52.3278 H         1 UNK         0.0600 
    239 H239        0.3838  -19.3762  -53.8975 H         1 UNK         0.0600 
    240 H240       -3.7759  -17.8889  -53.2688 H         1 UNK         0.3000 
    241 H241       -3.8217  -16.3033  -51.0359 H         1 UNK         0.0600 
    242 H242       -3.7630  -12.8514  -51.8485 H         1 UNK         0.3800 
    243 H243       -3.5125  -14.0772  -50.6418 H         1 UNK         0.3800 
    244 H244       -6.1397  -16.4274  -53.0209 H         1 UNK         0.0800 
    245 H245       -6.2295  -16.2569  -51.2925 H         1 UNK         0.0800 
    246 H246       -7.1507  -18.1370  -50.0023 H         1 UNK         0.0800 
    247 H247       -6.7119  -19.8200  -50.1426 H         1 UNK         0.0800 
@<TRIPOS>BOND
     1    1    2 1    
     2    1  127 1    
     3    1  128 1    
     4    1  129 1    
     5    2    3 2    
     6    2    4 am   BACKBONE|DICT|INTERRES
     7    4    5 1    
     8    4  130 1    
     9    5    6 1    
    10    5   65 1    
    11    5  131 1    
    12    6    7 1    
    13    6  132 1    
    14    6  133 1    
    15    7    8 1    
    16    8    9 1    
    17    8  134 1    
    18    8  135 1    
    19    9   10 ar   
    20    9   14 ar   
    21   10   11 ar   
    22   10  136 1    
    23   11   12 ar   
    24   11  126 1    
    25   12   13 ar   
    26   12  137 1    
    27   13   14 ar   
    28   13   15 1    
    29   14  138 1    
    30   15   16 1    
    31   15  139 1    
    32   15  140 1    
    33   16   17 1    
    34   17   18 1    
    35   17  141 1    
    36   17  142 1    
    37   18   19 1    
    38   18   67 1    
    39   18  143 1    
    40   19   20 am   BACKBONE|DICT|INTERRES
    41   19  144 1    
    42   20   21 2    
    43   20   22 1    
    44   22   23 1    
    45   22   24 1    
    46   22  145 1    
    47   23  146 1    
    48   23  147 1    
    49   23  148 1    
    50   24   25 am   BACKBONE|DICT|INTERRES
    51   24  149 1    
    52   25   26 2    
    53   25   27 1    
    54   27   28 1    
    55   27   29 1    
    56   27  150 1    
    57   28  151 1    
    58   28  152 1    
    59   28  153 1    
    60   29   30 am   BACKBONE|DICT|INTERRES
    61   29  154 1    
    62   30   31 2    
    63   30   32 1    
    64   32   33 1    
    65   32   34 1    
    66   32  155 1    
    67   33  156 1    
    68   33  157 1    
    69   33  158 1    
    70   34   35 am   BACKBONE|DICT|INTERRES
    71   34  159 1    
    72   35   36 2    
    73   35   37 1    
    74   37   38 1    
    75   37   39 1    
    76   37  160 1    
    77   38  161 1    
    78   38  162 1    
    79   38  163 1    
    80   39   40 am   BACKBONE|DICT|INTERRES
    81   39  164 1    
    82   40   41 2    
    83   40   42 1    
    84   42   43 1    
    85   42   44 1    
    86   42  165 1    
    87   43  166 1    
    88   43  167 1    
    89   43  168 1    
    90   44   45 am   BACKBONE|DICT|INTERRES
    91   44  169 1    
    92   45   46 2    
    93   45   47 1    
    94   47   48 1    
    95   47   49 1    
    96   47  170 1    
    97   48  171 1    
    98   48  172 1    
    99   48  173 1    
   100   49   50 am   BACKBONE|DICT|INTERRES
   101   49  174 1    
   102   50   51 2    
   103   50   52 1    
   104   52   53 1    
   105   52   54 1    
   106   52  175 1    
   107   53  176 1    
   108   53  177 1    
   109   53  178 1    
   110   54   55 am   BACKBONE|DICT|INTERRES
   111   54  179 1    
   112   55   56 2    
   113   55   57 1    
   114   57   58 1    
   115   57   59 1    
   116   57  180 1    
   117   58  181 1    
   118   58  182 1    
   119   58  183 1    
   120   59   60 am   BACKBONE|DICT|INTERRES
   121   59  184 1    
   122   60   61 2    
   123   60   62 1    
   124   62   63 1    
   125   62   64 1    
   126   62  185 1    
   127   63  186 1    
   128   63  187 1    
   129   63  188 1    
   130   64   65 am   BACKBONE|DICT|INTERRES
   131   64  189 1    
   132   65   66 2    
   133   67   68 2    
   134   67   69 am   BACKBONE|DICT|INTERRES
   135   69   70 1    
   136   69  190 1    
   137   70   71 1    
   138   70   72 1    
   139   70  191 1    
   140   71  192 1    
   141   71  193 1    
   142   71  194 1    
   143   72   73 2    
   144   72   74 am   BACKBONE|DICT|INTERRES
   145   74   75 1    
   146   74  195 1    
   147   75   76 1    
   148   75   77 1    
   149   75  196 1    
   150   76  197 1    
   151   76  198 1    
   152   76  199 1    
   153   77   78 2    
   154   77   79 am   BACKBONE|DICT|INTERRES
   155   79   80 1    
   156   79  200 1    
   157   80   81 1    
   158   80   82 1    
   159   80  201 1    
   160   81  202 1    
   161   81  203 1    
   162   81  204 1    
   163   82   83 2    
   164   82   84 am   BACKBONE|DICT|INTERRES
   165   84   85 1    
   166   84  205 1    
   167   85   86 1    
   168   85   87 1    
   169   85  206 1    
   170   86  207 1    
   171   86  208 1    
   172   86  209 1    
   173   87   88 2    
   174   87   89 am   BACKBONE|DICT|INTERRES
   175   89   90 1    
   176   89  210 1    
   177   90   91 1    
   178   90   92 1    
   179   90  211 1    
   180   91  212 1    
   181   91  213 1    
   182   91  214 1    
   183   92   93 2    
   184   92   94 am   BACKBONE|DICT|INTERRES
   185   94   95 1    
   186   94  215 1    
   187   95   96 1    
   188   95   97 1    
   189   95  216 1    
   190   96  217 1    
   191   96  218 1    
   192   96  219 1    
   193   97   98 2    
   194   97   99 am   BACKBONE|DICT|INTERRES
   195   99  100 1    
   196   99  220 1    
   197  100  101 1    
   198  100  102 1    
   199  100  221 1    
   200  101  222 1    
   201  101  223 1    
   202  101  224 1    
   203  102  103 2    
   204  102  104 am   BACKBONE|DICT|INTERRES
   205  104  105 1    
   206  104  225 1    
   207  105  106 1    
   208  105  107 1    
   209  105  226 1    
   210  106  227 1    
   211  106  228 1    
   212  106  229 1    
   213  107  108 2    
   214  107  109 am   BACKBONE|DICT|INTERRES
   215  109  110 1    
   216  109  230 1    
   217  110  111 1    
   218  110  112 1    
   219  110  231 1    
   220  111  232 1    
   221  111  233 1    
   222  111  234 1    
   223  112  113 2    
   224  112  114 am   BACKBONE|DICT|INTERRES
   225  114  115 1    
   226  114  235 1    
   227  115  116 1    
   228  115  117 1    
   229  115  236 1    
   230  116  237 1    
   231  116  238 1    
   232  116  239 1    
   233  117  118 2    
   234  117  119 am   BACKBONE|DICT|INTERRES
   235  119  120 1    
   236  119  240 1    
   237  120  121 1    
   238  120  124 1    
   239  120  241 1    
   240  121  122 am   BACKBONE|DICT|INTERRES
   241  121  123 2    
   242  122  242 1    
   243  122  243 1    
   244  124  125 1    
   245  124  244 1    
   246  124  245 1    
   247  125  126 1    
   248  126  246 1    
   249  126  247 1    
@<TRIPOS>SUBSTRUCTURE
     1 UNK         1 GROUP             0       ****    0 ROOT    
