@<TRIPOS>MOLECULE
3R540
247   249    1
SMALL
USER_CHARGES


@<TRIPOS>ATOM
      1 CA          7.0444  -20.0356  -51.4945 C.3       0 UNK        -0.1800 
      2 C           5.5672  -19.8905  -51.1571 C.2       0 UNK         0.5000 
      3 O           5.0399  -20.6781  -50.3733 O.2       0 UNK        -0.5000 
      4 N           4.9012  -18.8923  -51.7525 N.am      1 UNK        -0.5000 
      5 CA          3.4885  -18.5656  -51.5235 C.3       1 UNK         0.1400 
      6 C6          2.9711  -17.5788  -52.6026 C.3       23 UNK        -0.0398 
      7 S7          1.1522  -17.5411  -52.7545 S.3       23 UNK        -0.2404 
      8 C8          0.7129  -15.8772  -52.1410 C.3       23 UNK        -0.0205 
      9 C9         -0.2825  -15.9409  -50.9899 C.ar      23 UNK        -0.0193 
     10 C10        -1.5819  -16.4058  -51.2103 C.ar      23 UNK        -0.1150 
     11 C11        -2.4921  -16.5114  -50.1544 C.ar      23 UNK        -0.0193 
     12 C12        -2.1107  -16.1004  -48.8732 C.ar      23 UNK        -0.1150 
     13 C13        -0.8263  -15.5952  -48.6469 C.ar      23 UNK        -0.0193 
     14 C14         0.0853  -15.5283  -49.7063 C.ar      23 UNK        -0.1150 
     15 C15        -0.4249  -15.0827  -47.2723 C.3       23 UNK        -0.0205 
     16 S16         0.7941  -16.1637  -46.4640 S.3       23 UNK        -0.2404 
     17 C17        -0.2323  -17.2533  -45.4310 C.3       23 UNK        -0.0398 
     18 CA          0.0348  -18.7595  -45.6915 C.3       11 UNK         0.1400 
     19 N          -0.0081  -19.5381  -44.4491 N.am      11 UNK        -0.5000 
     20 C           0.2249  -20.8542  -44.3374 C.2       10 UNK         0.5000 
     21 O           0.5993  -21.5682  -45.2641 O.2       10 UNK        -0.5000 
     22 CA         -0.0774  -21.4969  -42.9742 C.3       10 UNK         0.1400 
     23 CB          1.1089  -21.3385  -42.0128 C.3       10 UNK        -0.1800 
     24 N          -1.2942  -20.9438  -42.3775 N.am      10 UNK        -0.5000 
     25 C          -2.5279  -21.1488  -42.8635 C.2       9 UNK         0.5000 
     26 O          -2.7698  -21.8790  -43.8235 O.2       9 UNK        -0.5000 
     27 CA         -3.6775  -20.3718  -42.1963 C.3       9 UNK         0.1400 
     28 CB         -4.1938  -21.1256  -40.9619 C.3       9 UNK        -0.1800 
     29 N          -3.2862  -19.0167  -41.8074 N.am      9 UNK        -0.5000 
     30 C          -2.9636  -18.0381  -42.6660 C.2       8 UNK         0.5000 
     31 O          -3.0233  -18.1551  -43.8900 O.2       8 UNK        -0.5000 
     32 CA         -2.4161  -16.7366  -42.0449 C.3       8 UNK         0.1400 
     33 CB         -3.5638  -15.7847  -41.6790 C.3       8 UNK        -0.1800 
     34 N          -1.5897  -16.9892  -40.8582 N.am      8 UNK        -0.5000 
     35 C          -0.4336  -17.6646  -40.8867 C.2       7 UNK         0.5000 
     36 O           0.0866  -18.0665  -41.9290 O.2       7 UNK        -0.5000 
     37 CA          0.1876  -18.0335  -39.5340 C.3       7 UNK         0.1400 
     38 CB         -0.5692  -19.2408  -38.9375 C.3       7 UNK        -0.1800 
     39 N           1.6031  -18.3463  -39.7258 N.am      7 UNK        -0.5000 
     40 C           2.4866  -18.6245  -38.7577 C.2       6 UNK         0.5000 
     41 O           2.2084  -18.6613  -37.5585 O.2       6 UNK        -0.5000 
     42 CA          3.9408  -18.8558  -39.1987 C.3       6 UNK         0.1400 
     43 CB          4.0918  -20.1336  -40.0403 C.3       6 UNK        -0.1800 
     44 N           4.4269  -17.6996  -39.9464 N.am      6 UNK        -0.5000 
     45 C           4.8950  -16.5815  -39.3705 C.2       5 UNK         0.5000 
     46 O           5.0917  -16.4672  -38.1599 O.2       5 UNK        -0.5000 
     47 CA          5.1815  -15.3776  -40.2901 C.3       5 UNK         0.1400 
     48 CB          6.6623  -15.3520  -40.6988 C.3       5 UNK        -0.1800 
     49 N           4.3551  -15.3634  -41.4966 N.am      5 UNK        -0.5000 
     50 C           3.0233  -15.2123  -41.5202 C.2       4 UNK         0.5000 
     51 O           2.3414  -14.9741  -40.5232 O.2       4 UNK        -0.5000 
     52 CA          2.3336  -15.3807  -42.8870 C.3       4 UNK         0.1400 
     53 CB          2.0338  -14.0061  -43.5045 C.3       4 UNK        -0.1800 
     54 N           3.0927  -16.1852  -43.8524 N.am      4 UNK        -0.5000 
     55 C           3.4284  -17.4778  -43.7072 C.2       3 UNK         0.5000 
     56 O           3.1944  -18.1236  -42.6849 O.2       3 UNK        -0.5000 
     57 CA          4.1631  -18.1376  -44.8917 C.3       3 UNK         0.1400 
     58 CB          3.9270  -19.6572  -44.9843 C.3       3 UNK        -0.1800 
     59 N           3.8074  -17.4788  -46.1503 N.am      3 UNK        -0.5000 
     60 C           4.5895  -17.3797  -47.2294 C.2       2 UNK         0.5000 
     61 O           5.6956  -17.9139  -47.3354 O.2       2 UNK        -0.5000 
     62 CA          4.0725  -16.4686  -48.3564 C.3       2 UNK         0.1400 
     63 CB          4.8686  -15.1555  -48.4046 C.3       2 UNK        -0.1800 
     64 N           4.1480  -17.1216  -49.6572 N.am      2 UNK        -0.5000 
     65 C           3.2575  -18.0203  -50.0981 C.2       1 UNK         0.5000 
     66 O           2.3019  -18.4178  -49.4343 O.2       1 UNK        -0.5000 
     67 C          -0.9249  -19.3355  -46.7512 C.2       11 UNK         0.5000 
     68 O          -0.4994  -19.6477  -47.8615 O.2       11 UNK        -0.5000 
     69 N          -2.1905  -19.5347  -46.3565 N.am      12 UNK        -0.5000 
     70 CA         -3.2306  -20.1370  -47.1878 C.3       12 UNK         0.1400 
     71 CB         -4.5771  -20.0551  -46.4546 C.3       12 UNK        -0.1800 
     72 C          -2.9181  -21.5858  -47.6107 C.2       12 UNK         0.5000 
     73 O          -3.1673  -21.9447  -48.7625 O.2       12 UNK        -0.5000 
     74 N          -2.3594  -22.3832  -46.6898 N.am      13 UNK        -0.5000 
     75 CA         -1.9230  -23.7567  -46.9417 C.3       13 UNK         0.1400 
     76 CB         -1.5997  -24.4533  -45.6115 C.3       13 UNK        -0.1800 
     77 C          -0.7262  -23.8336  -47.9071 C.2       13 UNK         0.5000 
     78 O          -0.7473  -24.6536  -48.8249 O.2       13 UNK        -0.5000 
     79 N           0.2768  -22.9669  -47.7042 N.am      14 UNK        -0.5000 
     80 CA          1.4677  -22.8439  -48.5491 C.3       14 UNK         0.1400 
     81 CB          2.4750  -21.8926  -47.8835 C.3       14 UNK        -0.1800 
     82 C           1.1356  -22.3730  -49.9760 C.2       14 UNK         0.5000 
     83 O           1.6986  -22.8943  -50.9395 O.2       14 UNK        -0.5000 
     84 N           0.1980  -21.4245  -50.0822 N.am      15 UNK        -0.5000 
     85 CA         -0.3298  -20.9078  -51.3413 C.3       15 UNK         0.1400 
     86 CB         -1.1432  -19.6474  -51.0356 C.3       15 UNK        -0.1800 
     87 C          -1.2229  -21.9060  -52.0983 C.2       15 UNK         0.5000 
     88 O          -1.3569  -21.7800  -53.3154 O.2       15 UNK        -0.5000 
     89 N          -1.8461  -22.8371  -51.3587 N.am      16 UNK        -0.5000 
     90 CA         -2.9475  -23.7106  -51.7737 C.3       16 UNK         0.1400 
     91 CB         -2.5075  -24.7011  -52.8716 C.3       16 UNK        -0.1800 
     92 C          -4.1750  -22.8656  -52.1661 C.2       16 UNK         0.5000 
     93 O          -4.6572  -22.9464  -53.2966 O.2       16 UNK        -0.5000 
     94 N          -4.6209  -22.0279  -51.2187 N.am      17 UNK        -0.5000 
     95 CA         -5.6007  -20.9495  -51.3811 C.3       17 UNK         0.1400 
     96 CB         -5.9104  -20.3442  -50.0056 C.3       17 UNK        -0.1800 
     97 C          -6.9127  -21.3151  -52.0966 C.2       17 UNK         0.5000 
     98 O          -7.4422  -20.4821  -52.8337 O.2       17 UNK        -0.5000 
     99 N          -7.4011  -22.5428  -51.8801 N.am      18 UNK        -0.5000 
    100 CA        -8.6093  -23.0768  -52.5106 C.3       18 UNK         0.1400 
    101 CB        -9.0451  -24.3471  -51.7648 C.3       18 UNK        -0.1800 
    102 C         -8.4324  -23.3677  -54.0136 C.2       18 UNK         0.5000 
    103 O         -9.3915  -23.2239  -54.7722 O.2       18 UNK        -0.5000 
    104 N         -7.2167  -23.7594  -54.4178 N.am      19 UNK        -0.5000 
    105 CA        -6.8452  -24.0056  -55.8112 C.3       19 UNK         0.1400 
    106 CB        -5.7340  -25.0662  -55.8627 C.3       19 UNK        -0.1800 
    107 C         -6.3918  -22.7083  -56.5006 C.2       19 UNK         0.5000 
    108 O         -6.7070  -22.4979  -57.6722 O.2       19 UNK        -0.5000 
    109 N         -5.6779  -21.8545  -55.7535 N.am      20 UNK        -0.5000 
    110 CA        -5.1955  -20.5457  -56.1976 C.3       20 UNK         0.1400 
    111 CB        -4.1413  -20.0435  -55.1988 C.3       20 UNK        -0.1800 
    112 C         -6.3147  -19.4979  -56.3637 C.2       20 UNK         0.5000 
    113 O         -6.1093  -18.5151  -57.0767 O.2       20 UNK        -0.5000 
    114 N         -7.4586  -19.7215  -55.6978 N.am      21 UNK        -0.5000 
    115 CA        -8.6271  -18.8412  -55.5993 C.3       21 UNK         0.1400 
    116 CB        -9.3060  -18.6562  -56.9727 C.3       21 UNK        -0.1800 
    117 C         -8.2711  -17.5138  -54.9000 C.2       21 UNK         0.5000 
    118 O         -8.5125  -16.4327  -55.4414 O.2       21 UNK        -0.5000 
    119 N         -7.6583  -17.6399  -53.7163 N.am      22 UNK        -0.5000 
    120 CA        -7.1983  -16.5284  -52.8692 C.3       22 UNK         0.1400 
    121 C         -8.3511  -15.6095  -52.3711 C.2       22 UNK         0.5000 
    122 N         -8.1100  -14.3117  -52.2469 N.am      22 UNK        -0.7600 
    123 O         -9.4480  -16.0686  -52.0589 O.2       22 UNK        -0.5000 
    124 C124       -6.3513  -17.0579  -51.6825 C.3       23 UNK        -0.0398 
    125 S125       -4.9920  -15.9351  -51.2136 S.3       23 UNK        -0.2404 
    126 C126       -3.8666  -17.1124  -50.4018 C.3       23 UNK        -0.0205 
    127 H127        7.2366  -21.0192  -51.9231 H         1 UNK         0.0600 
    128 H128        7.6462  -19.9325  -50.5914 H         1 UNK         0.0600 
    129 H129        7.3741  -19.2824  -52.2105 H         1 UNK         0.0600 
    130 H130        5.3952  -18.2916  -52.3970 H         1 UNK         0.3000 
    131 H131        2.9241  -19.4970  -51.6136 H         1 UNK         0.0600 
    132 H132        3.3720  -16.5758  -52.4501 H         1 UNK         0.0800 
    133 H133        3.3421  -17.8896  -53.5803 H         1 UNK         0.0800 
    134 H134        1.6046  -15.3280  -51.8376 H         1 UNK         0.0800 
    135 H135        0.2723  -15.3074  -52.9601 H         1 UNK         0.0800 
    136 H136       -1.8732  -16.7239  -52.2015 H         1 UNK         0.1150 
    137 H137       -2.8134  -16.1706  -48.0549 H         1 UNK         0.1150 
    138 H138        1.0827  -15.1525  -49.5272 H         1 UNK         0.1150 
    139 H139        0.0199  -14.0934  -47.3879 H         1 UNK         0.0800 
    140 H140       -1.2962  -14.9426  -46.6312 H         1 UNK         0.0800 
    141 H141        0.0188  -17.0011  -44.4010 H         1 UNK         0.0800 
    142 H142       -1.2873  -16.9976  -45.5388 H         1 UNK         0.0800 
    143 H143        1.0456  -18.8741  -46.0859 H         1 UNK         0.0600 
    144 H144       -0.2359  -19.0267  -43.6025 H         1 UNK         0.3000 
    145 H145       -0.2364  -22.5652  -43.1343 H         1 UNK         0.0600 
    146 H146        0.9036  -21.7980  -41.0460 H         1 UNK         0.0600 
    147 H147        2.0011  -21.8172  -42.4183 H         1 UNK         0.0600 
    148 H148        1.3555  -20.2921  -41.8441 H         1 UNK         0.0600 
    149 H149       -1.1725  -20.2933  -41.6176 H         1 UNK         0.3000 
    150 H150       -4.4930  -20.2962  -42.9187 H         1 UNK         0.0600 
    151 H151       -4.5091  -22.1360  -41.2260 H         1 UNK         0.0600 
    152 H152       -5.0559  -20.6217  -40.5244 H         1 UNK         0.0600 
    153 H153       -3.4274  -21.2117  -40.1905 H         1 UNK         0.0600 
    154 H154       -3.2216  -18.8285  -40.8184 H         1 UNK         0.3000 
    155 H155       -1.7927  -16.2461  -42.7953 H         1 UNK         0.0600 
    156 H156       -3.1830  -14.8334  -41.3070 H         1 UNK         0.0600 
    157 H157       -4.2135  -16.2097  -40.9129 H         1 UNK         0.0600 
    158 H158       -4.1824  -15.5672  -42.5508 H         1 UNK         0.0600 
    159 H159       -1.9648  -16.6852  -39.9710 H         1 UNK         0.3000 
    160 H160        0.1058  -17.1731  -38.8672 H         1 UNK         0.0600 
    161 H161       -0.4189  -20.1428  -39.5310 H         1 UNK         0.0600 
    162 H162       -1.6426  -19.0547  -38.8875 H         1 UNK         0.0600 
    163 H163       -0.2462  -19.4579  -37.9200 H         1 UNK         0.0600 
    164 H164        1.9081  -18.3155  -40.6938 H         1 UNK         0.3000 
    165 H165        4.5470  -18.9863  -38.2994 H         1 UNK         0.0600 
    166 H166        3.5680  -20.0646  -40.9920 H         1 UNK         0.0600 
    167 H167        5.1408  -20.3367  -40.2558 H         1 UNK         0.0600 
    168 H168        3.6948  -20.9997  -39.5095 H         1 UNK         0.0600 
    169 H169        4.2434  -17.7018  -40.9433 H         1 UNK         0.3000 
    170 H170        4.9654  -14.4698  -39.7229 H         1 UNK         0.0600 
    171 H171        7.3092  -15.3345  -39.8207 H         1 UNK         0.0600 
    172 H172        6.9325  -16.2293  -41.2880 H         1 UNK         0.0600 
    173 H173        6.8941  -14.4652  -41.2889 H         1 UNK         0.0600 
    174 H174        4.8269  -15.5438  -42.3699 H         1 UNK         0.3000 
    175 H175        1.3840  -15.8858  -42.7079 H         1 UNK         0.0600 
    176 H176        2.9495  -13.4666  -43.7489 H         1 UNK         0.0600 
    177 H177        1.4445  -14.0987  -44.4160 H         1 UNK         0.0600 
    178 H178        1.4605  -13.3845  -42.8154 H         1 UNK         0.0600 
    179 H179        3.3686  -15.7105  -44.6987 H         1 UNK         0.3000 
    180 H180        5.2261  -17.9747  -44.7037 H         1 UNK         0.0600 
    181 H181        2.8823  -19.8922  -45.1741 H         1 UNK         0.0600 
    182 H182        4.2129  -20.1593  -44.0593 H         1 UNK         0.0600 
    183 H183        4.5162  -20.1008  -45.7869 H         1 UNK         0.0600 
    184 H184        2.8928  -17.0434  -46.1724 H         1 UNK         0.3000 
    185 H185        3.0304  -16.2126  -48.1674 H         1 UNK         0.0600 
    186 H186        4.4768  -14.4848  -49.1695 H         1 UNK         0.0600 
    187 H187        4.8098  -14.6290  -47.4511 H         1 UNK         0.0600 
    188 H188        5.9238  -15.3304  -48.6189 H         1 UNK         0.0600 
    189 H189        4.9495  -16.9026  -50.2294 H         1 UNK         0.3000 
    190 H190       -2.4661  -19.2329  -45.4263 H         1 UNK         0.3000 
    191 H191       -3.2970  -19.5376  -48.0971 H         1 UNK         0.0600 
    192 H192       -5.3794  -20.4876  -47.0525 H         1 UNK         0.0600 
    193 H193       -4.8482  -19.0203  -46.2445 H         1 UNK         0.0600 
    194 H194       -4.5513  -20.5922  -45.5063 H         1 UNK         0.0600 
    195 H195       -2.2449  -22.0345  -45.7436 H         1 UNK         0.3000 
    196 H196       -2.7561  -24.2901  -47.4044 H         1 UNK         0.0600 
    197 H197       -1.3037  -25.4900  -45.7760 H         1 UNK         0.0600 
    198 H198       -2.4668  -24.4633  -44.9509 H         1 UNK         0.0600 
    199 H199       -0.7836  -23.9589  -45.0852 H         1 UNK         0.0600 
    200 H200        0.2362  -22.3479  -46.8969 H         1 UNK         0.3000 
    201 H201        1.9285  -23.8309  -48.6225 H         1 UNK         0.0600 
    202 H202        2.7772  -22.2589  -46.9024 H         1 UNK         0.0600 
    203 H203        2.0594  -20.8922  -47.7534 H         1 UNK         0.0600 
    204 H204        3.3779  -21.7946  -48.4866 H         1 UNK         0.0600 
    205 H205       -0.1493  -20.9840  -49.2336 H         1 UNK         0.3000 
    206 H206        0.5088  -20.6380  -51.9862 H         1 UNK         0.0600 
    207 H207       -0.5272  -18.9053  -50.5273 H         1 UNK         0.0600 
    208 H208       -1.5194  -19.1950  -51.9534 H         1 UNK         0.0600 
    209 H209       -2.0000  -19.8625  -50.3961 H         1 UNK         0.0600 
    210 H210       -1.6661  -22.8222  -50.3631 H         1 UNK         0.3000 
    211 H211       -3.2302  -24.2923  -50.8952 H         1 UNK         0.0600 
    212 H212       -2.2620  -24.1979  -53.8071 H         1 UNK         0.0600 
    213 H213       -3.3029  -25.4149  -53.0886 H         1 UNK         0.0600 
    214 H214       -1.6334  -25.2718  -52.5580 H         1 UNK         0.0600 
    215 H215       -4.1326  -22.0397  -50.3248 H         1 UNK         0.3000 
    216 H216       -5.1132  -20.1842  -51.9844 H         1 UNK         0.0600 
    217 H217       -6.6936  -19.5881  -50.0654 H         1 UNK         0.0600 
    218 H218       -5.0294  -19.8629  -49.5869 H         1 UNK         0.0600 
    219 H219       -6.2469  -21.1060  -49.3016 H         1 UNK         0.0600 
    220 H220       -6.8957  -23.1587  -51.2604 H         1 UNK         0.3000 
    221 H221       -9.4033  -22.3337  -52.4094 H         1 UNK         0.0600 
    222 H222       -8.2813  -25.1243  -51.8122 H         1 UNK         0.0600 
    223 H223       -9.2476  -24.1379  -50.7142 H         1 UNK         0.0600 
    224 H224       -9.9593  -24.7583  -52.1951 H         1 UNK         0.0600 
    225 H225       -6.4582  -23.7722  -53.7455 H         1 UNK         0.3000 
    226 H226       -7.7081  -24.3954  -56.3557 H         1 UNK         0.0600 
    227 H227       -6.0594  -25.9994  -55.4029 H         1 UNK         0.0600 
    228 H228       -5.4578  -25.2903  -56.8938 H         1 UNK         0.0600 
    229 H229       -4.8319  -24.7357  -55.3467 H         1 UNK         0.0600 
    230 H230       -5.4045  -22.1475  -54.8188 H         1 UNK         0.3000 
    231 H231       -4.7140  -20.6728  -57.1694 H         1 UNK         0.0600 
    232 H232       -3.7013  -19.1031  -55.5330 H         1 UNK         0.0600 
    233 H233       -3.3284  -20.7613  -55.0859 H         1 UNK         0.0600 
    234 H234       -4.5738  -19.8703  -54.2143 H         1 UNK         0.0600 
    235 H235       -7.4814  -20.5282  -55.0879 H         1 UNK         0.3000 
    236 H236       -9.3398  -19.3505  -54.9487 H         1 UNK         0.0600 
    237 H237       -9.5508  -19.6184  -57.4225 H         1 UNK         0.0600 
    238 H238      -10.2373  -18.0978  -56.8722 H         1 UNK         0.0600 
    239 H239       -8.6738  -18.1100  -57.6730 H         1 UNK         0.0600 
    240 H240       -7.5361  -18.5775  -53.3468 H         1 UNK         0.3000 
    241 H241       -6.5526  -15.9272  -53.5127 H         1 UNK         0.0600 
    242 H242       -7.2068  -13.9215  -52.4692 H         1 UNK         0.3800 
    243 H243       -8.8425  -13.7050  -51.9123 H         1 UNK         0.3800 
    244 H244       -6.9663  -17.2740  -50.8069 H         1 UNK         0.0800 
    245 H245       -5.8925  -18.0041  -51.9643 H         1 UNK         0.0800 
    246 H246       -3.7518  -18.0015  -51.0231 H         1 UNK         0.0800 
    247 H247       -4.3133  -17.4456  -49.4639 H         1 UNK         0.0800 
@<TRIPOS>BOND
     1    1    2 1    
     2    1  127 1    
     3    1  128 1    
     4    1  129 1    
     5    2    3 2    
     6    2    4 am   BACKBONE|DICT|INTERRES
     7    4    5 1    
     8    4  130 1    
     9    5    6 1    
    10    5   65 1    
    11    5  131 1    
    12    6    7 1    
    13    6  132 1    
    14    6  133 1    
    15    7    8 1    
    16    8    9 1    
    17    8  134 1    
    18    8  135 1    
    19    9   10 ar   
    20    9   14 ar   
    21   10   11 ar   
    22   10  136 1    
    23   11   12 ar   
    24   11  126 1    
    25   12   13 ar   
    26   12  137 1    
    27   13   14 ar   
    28   13   15 1    
    29   14  138 1    
    30   15   16 1    
    31   15  139 1    
    32   15  140 1    
    33   16   17 1    
    34   17   18 1    
    35   17  141 1    
    36   17  142 1    
    37   18   19 1    
    38   18   67 1    
    39   18  143 1    
    40   19   20 am   BACKBONE|DICT|INTERRES
    41   19  144 1    
    42   20   21 2    
    43   20   22 1    
    44   22   23 1    
    45   22   24 1    
    46   22  145 1    
    47   23  146 1    
    48   23  147 1    
    49   23  148 1    
    50   24   25 am   BACKBONE|DICT|INTERRES
    51   24  149 1    
    52   25   26 2    
    53   25   27 1    
    54   27   28 1    
    55   27   29 1    
    56   27  150 1    
    57   28  151 1    
    58   28  152 1    
    59   28  153 1    
    60   29   30 am   BACKBONE|DICT|INTERRES
    61   29  154 1    
    62   30   31 2    
    63   30   32 1    
    64   32   33 1    
    65   32   34 1    
    66   32  155 1    
    67   33  156 1    
    68   33  157 1    
    69   33  158 1    
    70   34   35 am   BACKBONE|DICT|INTERRES
    71   34  159 1    
    72   35   36 2    
    73   35   37 1    
    74   37   38 1    
    75   37   39 1    
    76   37  160 1    
    77   38  161 1    
    78   38  162 1    
    79   38  163 1    
    80   39   40 am   BACKBONE|DICT|INTERRES
    81   39  164 1    
    82   40   41 2    
    83   40   42 1    
    84   42   43 1    
    85   42   44 1    
    86   42  165 1    
    87   43  166 1    
    88   43  167 1    
    89   43  168 1    
    90   44   45 am   BACKBONE|DICT|INTERRES
    91   44  169 1    
    92   45   46 2    
    93   45   47 1    
    94   47   48 1    
    95   47   49 1    
    96   47  170 1    
    97   48  171 1    
    98   48  172 1    
    99   48  173 1    
   100   49   50 am   BACKBONE|DICT|INTERRES
   101   49  174 1    
   102   50   51 2    
   103   50   52 1    
   104   52   53 1    
   105   52   54 1    
   106   52  175 1    
   107   53  176 1    
   108   53  177 1    
   109   53  178 1    
   110   54   55 am   BACKBONE|DICT|INTERRES
   111   54  179 1    
   112   55   56 2    
   113   55   57 1    
   114   57   58 1    
   115   57   59 1    
   116   57  180 1    
   117   58  181 1    
   118   58  182 1    
   119   58  183 1    
   120   59   60 am   BACKBONE|DICT|INTERRES
   121   59  184 1    
   122   60   61 2    
   123   60   62 1    
   124   62   63 1    
   125   62   64 1    
   126   62  185 1    
   127   63  186 1    
   128   63  187 1    
   129   63  188 1    
   130   64   65 am   BACKBONE|DICT|INTERRES
   131   64  189 1    
   132   65   66 2    
   133   67   68 2    
   134   67   69 am   BACKBONE|DICT|INTERRES
   135   69   70 1    
   136   69  190 1    
   137   70   71 1    
   138   70   72 1    
   139   70  191 1    
   140   71  192 1    
   141   71  193 1    
   142   71  194 1    
   143   72   73 2    
   144   72   74 am   BACKBONE|DICT|INTERRES
   145   74   75 1    
   146   74  195 1    
   147   75   76 1    
   148   75   77 1    
   149   75  196 1    
   150   76  197 1    
   151   76  198 1    
   152   76  199 1    
   153   77   78 2    
   154   77   79 am   BACKBONE|DICT|INTERRES
   155   79   80 1    
   156   79  200 1    
   157   80   81 1    
   158   80   82 1    
   159   80  201 1    
   160   81  202 1    
   161   81  203 1    
   162   81  204 1    
   163   82   83 2    
   164   82   84 am   BACKBONE|DICT|INTERRES
   165   84   85 1    
   166   84  205 1    
   167   85   86 1    
   168   85   87 1    
   169   85  206 1    
   170   86  207 1    
   171   86  208 1    
   172   86  209 1    
   173   87   88 2    
   174   87   89 am   BACKBONE|DICT|INTERRES
   175   89   90 1    
   176   89  210 1    
   177   90   91 1    
   178   90   92 1    
   179   90  211 1    
   180   91  212 1    
   181   91  213 1    
   182   91  214 1    
   183   92   93 2    
   184   92   94 am   BACKBONE|DICT|INTERRES
   185   94   95 1    
   186   94  215 1    
   187   95   96 1    
   188   95   97 1    
   189   95  216 1    
   190   96  217 1    
   191   96  218 1    
   192   96  219 1    
   193   97   98 2    
   194   97   99 am   BACKBONE|DICT|INTERRES
   195   99  100 1    
   196   99  220 1    
   197  100  101 1    
   198  100  102 1    
   199  100  221 1    
   200  101  222 1    
   201  101  223 1    
   202  101  224 1    
   203  102  103 2    
   204  102  104 am   BACKBONE|DICT|INTERRES
   205  104  105 1    
   206  104  225 1    
   207  105  106 1    
   208  105  107 1    
   209  105  226 1    
   210  106  227 1    
   211  106  228 1    
   212  106  229 1    
   213  107  108 2    
   214  107  109 am   BACKBONE|DICT|INTERRES
   215  109  110 1    
   216  109  230 1    
   217  110  111 1    
   218  110  112 1    
   219  110  231 1    
   220  111  232 1    
   221  111  233 1    
   222  111  234 1    
   223  112  113 2    
   224  112  114 am   BACKBONE|DICT|INTERRES
   225  114  115 1    
   226  114  235 1    
   227  115  116 1    
   228  115  117 1    
   229  115  236 1    
   230  116  237 1    
   231  116  238 1    
   232  116  239 1    
   233  117  118 2    
   234  117  119 am   BACKBONE|DICT|INTERRES
   235  119  120 1    
   236  119  240 1    
   237  120  121 1    
   238  120  124 1    
   239  120  241 1    
   240  121  122 am   BACKBONE|DICT|INTERRES
   241  121  123 2    
   242  122  242 1    
   243  122  243 1    
   244  124  125 1    
   245  124  244 1    
   246  124  245 1    
   247  125  126 1    
   248  126  246 1    
   249  126  247 1    
@<TRIPOS>SUBSTRUCTURE
     1 UNK         1 GROUP             0       ****    0 ROOT    
