@<TRIPOS>MOLECULE
3R540
247   249    1
SMALL
USER_CHARGES


@<TRIPOS>ATOM
      1 CA          2.1781  -14.5445  -47.2691 C.3       0 UNK        -0.1800 
      2 C           1.5316  -14.4217  -48.6415 C.2       0 UNK         0.5000 
      3 O           1.2536  -13.3104  -49.0915 O.2       0 UNK        -0.5000 
      4 N           1.2868  -15.5620  -49.2995 N.am      1 UNK        -0.5000 
      5 CA          0.7754  -15.7416  -50.6709 C.3       1 UNK         0.1400 
      6 C6          1.6549  -15.1042  -51.7840 C.3       23 UNK        -0.0398 
      7 S7          3.4503  -15.4136  -51.5771 S.3       23 UNK        -0.2404 
      8 C8          3.7371  -16.9376  -52.5402 C.3       23 UNK        -0.0205 
      9 C9          2.8715  -18.1048  -52.0829 C.ar      23 UNK        -0.0193 
     10 C10         2.0703  -18.7769  -53.0092 C.ar      23 UNK        -0.1150 
     11 C11         1.2112  -19.7995  -52.5981 C.ar      23 UNK        -0.0193 
     12 C12         1.1566  -20.1463  -51.2463 C.ar      23 UNK        -0.1150 
     13 C13         1.9612  -19.4927  -50.3100 C.ar      23 UNK        -0.0193 
     14 C14         2.8403  -18.4937  -50.7383 C.ar      23 UNK        -0.1150 
     15 C15         1.8406  -19.8287  -48.8329 C.3       23 UNK        -0.0205 
     16 S16         3.0590  -21.0743  -48.3259 S.3       23 UNK        -0.2404 
     17 C17         2.6640  -21.2317  -46.5518 C.3       23 UNK        -0.0398 
     18 CA          1.9426  -22.5615  -46.2219 C.3       11 UNK         0.1400 
     19 N           2.2054  -22.9990  -44.8500 N.am      11 UNK        -0.5000 
     20 C           1.9363  -24.2257  -44.3804 C.2       10 UNK         0.5000 
     21 O           1.4649  -25.1341  -45.0643 O.2       10 UNK        -0.5000 
     22 CA          2.1915  -24.4517  -42.8795 C.3       10 UNK         0.1400 
     23 CB          3.6589  -24.8277  -42.6283 C.3       10 UNK        -0.1800 
     24 N           1.8458  -23.2808  -42.0710 N.am      10 UNK        -0.5000 
     25 C           0.6121  -22.7797  -41.9388 C.2       9 UNK         0.5000 
     26 O          -0.3781  -23.2650  -42.4835 O.2       9 UNK        -0.5000 
     27 CA          0.4571  -21.4976  -41.1069 C.3       9 UNK         0.1400 
     28 CB          0.5637  -21.7811  -39.5971 C.3       9 UNK        -0.1800 
     29 N           1.3503  -20.4121  -41.5242 N.am      9 UNK        -0.5000 
     30 C           2.6808  -20.2993  -41.3981 C.2       8 UNK         0.5000 
     31 O           3.4125  -21.1848  -40.9543 O.2       8 UNK        -0.5000 
     32 CA          3.2914  -18.9575  -41.8435 C.3       8 UNK         0.1400 
     33 CB          3.6946  -19.0095  -43.3260 C.3       8 UNK        -0.1800 
     34 N           2.3596  -17.8477  -41.6258 N.am      8 UNK        -0.5000 
     35 C           2.1364  -17.2732  -40.4337 C.2       7 UNK         0.5000 
     36 O           2.7878  -17.5278  -39.4201 O.2       7 UNK        -0.5000 
     37 CA          0.9750  -16.2631  -40.3509 C.3       7 UNK         0.1400 
     38 CB          1.4686  -14.8453  -40.6757 C.3       7 UNK        -0.1800 
     39 N          -0.1345  -16.6142  -41.2409 N.am      7 UNK        -0.5000 
     40 C          -0.9736  -17.6414  -41.0279 C.2       6 UNK         0.5000 
     41 O          -0.9499  -18.3349  -40.0116 O.2       6 UNK        -0.5000 
     42 CA         -1.9891  -17.9870  -42.1386 C.3       6 UNK         0.1400 
     43 CB         -3.3730  -17.4147  -41.8013 C.3       6 UNK        -0.1800 
     44 N          -1.5953  -17.5236  -43.4697 N.am      6 UNK        -0.5000 
     45 C          -0.4900  -17.9052  -44.1271 C.2       5 UNK         0.5000 
     46 O           0.2695  -18.7829  -43.7153 O.2       5 UNK        -0.5000 
     47 CA         -0.1465  -17.1606  -45.4342 C.3       5 UNK         0.1400 
     48 CB         -0.5591  -18.0134  -46.6435 C.3       5 UNK        -0.1800 
     49 N          -0.7582  -15.8306  -45.5482 N.am      5 UNK        -0.5000 
     50 C          -0.6342  -14.8314  -44.6567 C.2       4 UNK         0.5000 
     51 O           0.1198  -14.8895  -43.6856 O.2       4 UNK        -0.5000 
     52 CA         -1.5376  -13.5891  -44.8218 C.3       4 UNK         0.1400 
     53 CB         -0.7271  -12.4053  -45.3707 C.3       4 UNK        -0.1800 
     54 N          -2.7034  -13.7945  -45.6830 N.am      4 UNK        -0.5000 
     55 C          -3.6643  -14.7190  -45.5327 C.2       3 UNK         0.5000 
     56 O          -3.7601  -15.4460  -44.5433 O.2       3 UNK        -0.5000 
     57 CA         -4.6304  -14.9113  -46.7256 C.3       3 UNK         0.1400 
     58 CB         -5.9899  -14.2619  -46.4283 C.3       3 UNK        -0.1800 
     59 N          -4.1236  -14.3950  -48.0080 N.am      3 UNK        -0.5000 
     60 C          -2.9776  -14.7748  -48.5932 C.2       2 UNK         0.5000 
     61 O          -2.2341  -15.6304  -48.1066 O.2       2 UNK        -0.5000 
     62 CA         -2.5615  -14.0235  -49.8779 C.3       2 UNK         0.1400 
     63 CB         -2.7227  -12.4990  -49.7346 C.3       2 UNK        -0.1800 
     64 N          -1.1622  -14.3051  -50.1864 N.am      2 UNK        -0.5000 
     65 C          -0.7181  -15.3878  -50.8294 C.2       1 UNK         0.5000 
     66 O          -1.4511  -16.1349  -51.4756 O.2       1 UNK        -0.5000 
     67 C           0.4274  -22.4937  -46.5050 C.2       11 UNK         0.5000 
     68 O          -0.0171  -22.9814  -47.5428 O.2       11 UNK        -0.5000 
     69 N          -0.3476  -21.9513  -45.5522 N.am      12 UNK        -0.5000 
     70 CA         -1.8108  -21.9262  -45.6060 C.3       12 UNK         0.1400 
     71 CB         -2.3739  -21.0366  -44.4890 C.3       12 UNK        -0.1800 
     72 C          -2.4399  -23.3275  -45.5506 C.2       12 UNK         0.5000 
     73 O          -3.4011  -23.5762  -46.2749 O.2       12 UNK        -0.5000 
     74 N          -1.8852  -24.2236  -44.7251 N.am      13 UNK        -0.5000 
     75 CA         -2.3103  -25.6211  -44.6306 C.3       13 UNK         0.1400 
     76 CB         -1.5887  -26.3035  -43.4588 C.3       13 UNK        -0.1800 
     77 C          -2.0878  -26.3974  -45.9425 C.2       13 UNK         0.5000 
     78 O          -2.9554  -27.1745  -46.3421 O.2       13 UNK        -0.5000 
     79 N          -0.9466  -26.1507  -46.5997 N.am      14 UNK        -0.5000 
     80 CA         -0.5910  -26.7400  -47.8889 C.3       14 UNK         0.1400 
     81 CB          0.9100  -26.5312  -48.1442 C.3       14 UNK        -0.1800 
     82 C          -1.4241  -26.1776  -49.0560 C.2       14 UNK         0.5000 
     83 O          -1.9018  -26.9500  -49.8877 O.2       14 UNK        -0.5000 
     84 N          -1.5721  -24.8473  -49.1057 N.am      15 UNK        -0.5000 
     85 CA         -2.1788  -24.1205  -50.2243 C.3       15 UNK         0.1400 
     86 CB         -1.4303  -22.7917  -50.3985 C.3       15 UNK        -0.1800 
     87 C          -3.6934  -23.8792  -50.0771 C.2       15 UNK         0.5000 
     88 O          -4.2676  -23.2028  -50.9303 O.2       15 UNK        -0.5000 
     89 N          -4.3111  -24.4002  -49.0068 N.am      16 UNK        -0.5000 
     90 CA         -5.7288  -24.2616  -48.6460 C.3       16 UNK         0.1400 
     91 CB         -6.6292  -24.9968  -49.6608 C.3       16 UNK        -0.1800 
     92 C          -6.1274  -22.7854  -48.4316 C.2       16 UNK         0.5000 
     93 O          -7.0249  -22.2709  -49.0996 O.2       16 UNK        -0.5000 
     94 N          -5.3978  -22.1370  -47.5144 N.am      17 UNK        -0.5000 
     95 CA         -5.4391  -20.7221  -47.1208 C.3       17 UNK         0.1400 
     96 CB         -6.8582  -20.2729  -46.7163 C.3       17 UNK        -0.1800 
     97 C          -4.7829  -19.7600  -48.1328 C.2       17 UNK         0.5000 
     98 O          -4.7720  -18.5543  -47.8836 O.2       17 UNK        -0.5000 
     99 N          -4.2161  -20.3027  -49.2207 N.am      18 UNK        -0.5000 
    100 CA        -3.5570  -19.5951  -50.3213 C.3       18 UNK         0.1400 
    101 CB        -2.2375  -18.9508  -49.8400 C.3       18 UNK        -0.1800 
    102 C         -4.5216  -18.6324  -51.0524 C.2       18 UNK         0.5000 
    103 O         -5.6995  -18.9684  -51.2024 O.2       18 UNK        -0.5000 
    104 N         -4.0122  -17.4821  -51.5202 N.am      19 UNK        -0.5000 
    105 CA        -4.6871  -16.4923  -52.3685 C.3       19 UNK         0.1400 
    106 CB        -5.8617  -15.8339  -51.6118 C.3       19 UNK        -0.1800 
    107 C         -5.0918  -17.0588  -53.7495 C.2       19 UNK         0.5000 
    108 O         -4.6481  -18.1467  -54.1270 O.2       19 UNK        -0.5000 
    109 N         -5.8898  -16.2881  -54.5048 N.am      20 UNK        -0.5000 
    110 CA        -6.3903  -16.5912  -55.8517 C.3       20 UNK         0.1400 
    111 CB        -7.4679  -17.6968  -55.7855 C.3       20 UNK        -0.1800 
    112 C         -5.2386  -16.8965  -56.8337 C.2       20 UNK         0.5000 
    113 O         -4.5087  -15.9765  -57.2074 O.2       20 UNK        -0.5000 
    114 N         -5.0589  -18.1774  -57.1866 N.am      21 UNK        -0.5000 
    115 CA        -3.9722  -18.6953  -58.0227 C.3       21 UNK         0.1400 
    116 CB        -4.2008  -20.1958  -58.2604 C.3       21 UNK        -0.1800 
    117 C         -2.5593  -18.4490  -57.4516 C.2       21 UNK         0.5000 
    118 O         -1.6033  -18.3871  -58.2259 O.2       21 UNK        -0.5000 
    119 N         -2.4509  -18.2850  -56.1263 N.am      22 UNK        -0.5000 
    120 CA        -1.2253  -17.8497  -55.4387 C.3       22 UNK         0.1400 
    121 C         -0.8772  -16.3432  -55.6403 C.2       22 UNK         0.5000 
    122 N         -1.7500  -15.5125  -56.2009 N.am      22 UNK        -0.7600 
    123 O          0.2188  -15.9189  -55.2859 O.2       22 UNK        -0.5000 
    124 C124       -1.2609  -18.1881  -53.9292 C.3       23 UNK        -0.0398 
    125 S125       -1.4037  -19.9707  -53.5646 S.3       23 UNK        -0.2404 
    126 C126        0.3346  -20.5170  -53.6153 C.3       23 UNK        -0.0205 
    127 H127        2.2673  -15.5839  -46.9536 H         1 UNK         0.0600 
    128 H128        1.5913  -14.0116  -46.5228 H         1 UNK         0.0600 
    129 H129        3.1770  -14.1091  -47.2888 H         1 UNK         0.0600 
    130 H130        1.5205  -16.4276  -48.8384 H         1 UNK         0.3000 
    131 H131        0.7979  -16.8179  -50.8263 H         1 UNK         0.0600 
    132 H132        1.3435  -15.4653  -52.7657 H         1 UNK         0.0800 
    133 H133        1.5116  -14.0227  -51.8011 H         1 UNK         0.0800 
    134 H134        3.5682  -16.7176  -53.5956 H         1 UNK         0.0800 
    135 H135        4.7862  -17.2212  -52.4479 H         1 UNK         0.0800 
    136 H136        2.0951  -18.4874  -54.0506 H         1 UNK         0.1150 
    137 H137        0.4741  -20.9144  -50.9203 H         1 UNK         0.1150 
    138 H138        3.4599  -17.9788  -50.0176 H         1 UNK         0.1150 
    139 H139        1.9780  -18.9251  -48.2376 H         1 UNK         0.0800 
    140 H140        0.8364  -20.1963  -48.6157 H         1 UNK         0.0800 
    141 H141        2.1028  -20.3651  -46.1973 H         1 UNK         0.0800 
    142 H142        3.6208  -21.1918  -46.0290 H         1 UNK         0.0800 
    143 H143        2.3536  -23.3377  -46.8721 H         1 UNK         0.0600 
    144 H144        2.5857  -22.3165  -44.2122 H         1 UNK         0.3000 
    145 H145        1.5630  -25.2837  -42.5556 H         1 UNK         0.0600 
    146 H146        3.8298  -25.0651  -41.5781 H         1 UNK         0.0600 
    147 H147        3.9423  -25.7059  -43.2100 H         1 UNK         0.0600 
    148 H148        4.3359  -24.0177  -42.9029 H         1 UNK         0.0600 
    149 H149        2.6042  -22.7869  -41.6080 H         1 UNK         0.3000 
    150 H150       -0.5523  -21.1270  -41.2916 H         1 UNK         0.0600 
    151 H151       -0.1813  -22.5148  -39.2874 H         1 UNK         0.0600 
    152 H152        0.3887  -20.8751  -39.0165 H         1 UNK         0.0600 
    153 H153        1.5417  -22.1742  -39.3189 H         1 UNK         0.0600 
    154 H154        0.8861  -19.6555  -42.0146 H         1 UNK         0.3000 
    155 H155        4.1937  -18.7863  -41.2526 H         1 UNK         0.0600 
    156 H156        2.8411  -19.1984  -43.9764 H         1 UNK         0.0600 
    157 H157        4.4220  -19.8027  -43.5032 H         1 UNK         0.0600 
    158 H158        4.1540  -18.0726  -43.6415 H         1 UNK         0.0600 
    159 H159        1.7614  -17.6013  -42.4018 H         1 UNK         0.3000 
    160 H160        0.6036  -16.2636  -39.3239 H         1 UNK         0.0600 
    161 H161        1.8999  -14.7870  -41.6756 H         1 UNK         0.0600 
    162 H162        2.2381  -14.5306  -39.9698 H         1 UNK         0.0600 
    163 H163        0.6567  -14.1202  -40.6175 H         1 UNK         0.0600 
    164 H164       -0.2070  -16.0800  -42.1013 H         1 UNK         0.3000 
    165 H165       -2.0697  -19.0747  -42.1759 H         1 UNK         0.0600 
    166 H166       -4.1159  -17.7201  -42.5385 H         1 UNK         0.0600 
    167 H167       -3.7171  -17.7664  -40.8278 H         1 UNK         0.0600 
    168 H168       -3.3594  -16.3243  -41.7726 H         1 UNK         0.0600 
    169 H169       -2.1816  -16.8080  -43.8843 H         1 UNK         0.3000 
    170 H170        0.9368  -17.0314  -45.4533 H         1 UNK         0.0600 
    171 H171       -0.1295  -19.0140  -46.5866 H         1 UNK         0.0600 
    172 H172       -1.6428  -18.1268  -46.7015 H         1 UNK         0.0600 
    173 H173       -0.2237  -17.5649  -47.5784 H         1 UNK         0.0600 
    174 H174       -1.3811  -15.7003  -46.3411 H         1 UNK         0.3000 
    175 H175       -1.9045  -13.3262  -43.8278 H         1 UNK         0.0600 
    176 H176       -0.3971  -12.5838  -46.3949 H         1 UNK         0.0600 
    177 H177       -1.3165  -11.4882  -45.3645 H         1 UNK         0.0600 
    178 H178        0.1616  -12.2217  -44.7650 H         1 UNK         0.0600 
    179 H179       -2.7221  -13.2517  -46.5326 H         1 UNK         0.3000 
    180 H180       -4.7819  -15.9861  -46.8426 H         1 UNK         0.0600 
    181 H181       -5.9056  -13.1788  -46.3313 H         1 UNK         0.0600 
    182 H182       -6.4100  -14.6437  -45.4967 H         1 UNK         0.0600 
    183 H183       -6.7103  -14.4753  -47.2182 H         1 UNK         0.0600 
    184 H184       -4.6821  -13.6789  -48.4489 H         1 UNK         0.3000 
    185 H185       -3.1967  -14.3681  -50.6947 H         1 UNK         0.0600 
    186 H186       -3.7682  -12.2136  -49.6149 H         1 UNK         0.0600 
    187 H187       -2.1709  -12.1142  -48.8758 H         1 UNK         0.0600 
    188 H188       -2.3547  -11.9829  -50.6217 H         1 UNK         0.0600 
    189 H189       -0.4671  -13.7720  -49.6711 H         1 UNK         0.3000 
    190 H190        0.0812  -21.5977  -44.7103 H         1 UNK         0.3000 
    191 H191       -2.1032  -21.4856  -46.5621 H         1 UNK         0.0600 
    192 H192       -2.2488  -19.9860  -44.7386 H         1 UNK         0.0600 
    193 H193       -3.4426  -21.1991  -44.3445 H         1 UNK         0.0600 
    194 H194       -1.8864  -21.2236  -43.5326 H         1 UNK         0.0600 
    195 H195       -1.1511  -23.9219  -44.0903 H         1 UNK         0.3000 
    196 H196       -3.3814  -25.6288  -44.4183 H         1 UNK         0.0600 
    197 H197       -1.9226  -27.3353  -43.3432 H         1 UNK         0.0600 
    198 H198       -1.7892  -25.7889  -42.5189 H         1 UNK         0.0600 
    199 H199       -0.5090  -26.3229  -43.6055 H         1 UNK         0.0600 
    200 H200       -0.2633  -25.5324  -46.1762 H         1 UNK         0.3000 
    201 H201       -0.7760  -27.8150  -47.8348 H         1 UNK         0.0600 
    202 H202        1.5102  -26.9991  -47.3635 H         1 UNK         0.0600 
    203 H203        1.1713  -25.4727  -48.1747 H         1 UNK         0.0600 
    204 H204        1.2107  -26.9725  -49.0951 H         1 UNK         0.0600 
    205 H205       -1.1167  -24.2747  -48.3987 H         1 UNK         0.3000 
    206 H206       -2.0393  -24.6957  -51.1419 H         1 UNK         0.0600 
    207 H207       -0.3576  -22.9647  -50.4830 H         1 UNK         0.0600 
    208 H208       -1.7476  -22.2732  -51.3039 H         1 UNK         0.0600 
    209 H209       -1.5982  -22.1213  -49.5552 H         1 UNK         0.0600 
    210 H210       -3.7334  -24.8784  -48.3283 H         1 UNK         0.3000 
    211 H211       -5.8505  -24.7580  -47.6819 H         1 UNK         0.0600 
    212 H212       -6.5850  -24.5433  -50.6513 H         1 UNK         0.0600 
    213 H213       -7.6713  -24.9777  -49.3401 H         1 UNK         0.0600 
    214 H214       -6.3386  -26.0428  -49.7583 H         1 UNK         0.0600 
    215 H215       -4.6723  -22.6848  -47.0497 H         1 UNK         0.3000 
    216 H216       -4.8223  -20.6590  -46.2247 H         1 UNK         0.0600 
    217 H217       -6.8345  -19.2894  -46.2455 H         1 UNK         0.0600 
    218 H218       -7.3037  -20.9637  -46.0005 H         1 UNK         0.0600 
    219 H219       -7.5234  -20.2006  -47.5769 H         1 UNK         0.0600 
    220 H220       -4.3527  -21.2926  -49.3685 H         1 UNK         0.3000 
    221 H221       -3.2984  -20.3630  -51.0509 H         1 UNK         0.0600 
    222 H222       -2.4162  -18.0663  -49.2287 H         1 UNK         0.0600 
    223 H223       -1.6498  -19.6496  -49.2453 H         1 UNK         0.0600 
    224 H224       -1.6137  -18.6559  -50.6836 H         1 UNK         0.0600 
    225 H225       -3.0275  -17.2880  -51.3618 H         1 UNK         0.3000 
    226 H226       -3.9442  -15.7201  -52.5698 H         1 UNK         0.0600 
    227 H227       -5.5662  -15.5387  -50.6049 H         1 UNK         0.0600 
    228 H228       -6.2078  -14.9333  -52.1191 H         1 UNK         0.0600 
    229 H229       -6.7142  -16.5079  -51.5219 H         1 UNK         0.0600 
    230 H230       -6.1705  -15.3907  -54.1361 H         1 UNK         0.3000 
    231 H231       -6.8720  -15.6842  -56.2200 H         1 UNK         0.0600 
    232 H232       -7.0871  -18.6247  -55.3573 H         1 UNK         0.0600 
    233 H233       -7.8620  -17.9227  -56.7772 H         1 UNK         0.0600 
    234 H234       -8.3107  -17.3777  -55.1722 H         1 UNK         0.0600 
    235 H235       -5.6797  -18.8658  -56.7866 H         1 UNK         0.3000 
    236 H236       -4.0262  -18.1832  -58.9855 H         1 UNK         0.0600 
    237 H237       -5.1595  -20.3779  -58.7465 H         1 UNK         0.0600 
    238 H238       -3.4264  -20.6121  -58.9061 H         1 UNK         0.0600 
    239 H239       -4.1848  -20.7567  -57.3249 H         1 UNK         0.0600 
    240 H240       -3.2827  -18.3594  -55.5477 H         1 UNK         0.3000 
    241 H241       -0.3913  -18.4029  -55.8742 H         1 UNK         0.0600 
    242 H242       -2.6585  -15.8286  -56.5235 H         1 UNK         0.3800 
    243 H243       -1.4926  -14.5466  -56.3255 H         1 UNK         0.3800 
    244 H244       -2.1135  -17.6922  -53.4717 H         1 UNK         0.0800 
    245 H245       -0.3915  -17.7843  -53.4125 H         1 UNK         0.0800 
    246 H246        0.7241  -20.3770  -54.6247 H         1 UNK         0.0800 
    247 H247        0.3688  -21.5905  -53.4243 H         1 UNK         0.0800 
@<TRIPOS>BOND
     1    1    2 1    
     2    1  127 1    
     3    1  128 1    
     4    1  129 1    
     5    2    3 2    
     6    2    4 am   BACKBONE|DICT|INTERRES
     7    4    5 1    
     8    4  130 1    
     9    5    6 1    
    10    5   65 1    
    11    5  131 1    
    12    6    7 1    
    13    6  132 1    
    14    6  133 1    
    15    7    8 1    
    16    8    9 1    
    17    8  134 1    
    18    8  135 1    
    19    9   10 ar   
    20    9   14 ar   
    21   10   11 ar   
    22   10  136 1    
    23   11   12 ar   
    24   11  126 1    
    25   12   13 ar   
    26   12  137 1    
    27   13   14 ar   
    28   13   15 1    
    29   14  138 1    
    30   15   16 1    
    31   15  139 1    
    32   15  140 1    
    33   16   17 1    
    34   17   18 1    
    35   17  141 1    
    36   17  142 1    
    37   18   19 1    
    38   18   67 1    
    39   18  143 1    
    40   19   20 am   BACKBONE|DICT|INTERRES
    41   19  144 1    
    42   20   21 2    
    43   20   22 1    
    44   22   23 1    
    45   22   24 1    
    46   22  145 1    
    47   23  146 1    
    48   23  147 1    
    49   23  148 1    
    50   24   25 am   BACKBONE|DICT|INTERRES
    51   24  149 1    
    52   25   26 2    
    53   25   27 1    
    54   27   28 1    
    55   27   29 1    
    56   27  150 1    
    57   28  151 1    
    58   28  152 1    
    59   28  153 1    
    60   29   30 am   BACKBONE|DICT|INTERRES
    61   29  154 1    
    62   30   31 2    
    63   30   32 1    
    64   32   33 1    
    65   32   34 1    
    66   32  155 1    
    67   33  156 1    
    68   33  157 1    
    69   33  158 1    
    70   34   35 am   BACKBONE|DICT|INTERRES
    71   34  159 1    
    72   35   36 2    
    73   35   37 1    
    74   37   38 1    
    75   37   39 1    
    76   37  160 1    
    77   38  161 1    
    78   38  162 1    
    79   38  163 1    
    80   39   40 am   BACKBONE|DICT|INTERRES
    81   39  164 1    
    82   40   41 2    
    83   40   42 1    
    84   42   43 1    
    85   42   44 1    
    86   42  165 1    
    87   43  166 1    
    88   43  167 1    
    89   43  168 1    
    90   44   45 am   BACKBONE|DICT|INTERRES
    91   44  169 1    
    92   45   46 2    
    93   45   47 1    
    94   47   48 1    
    95   47   49 1    
    96   47  170 1    
    97   48  171 1    
    98   48  172 1    
    99   48  173 1    
   100   49   50 am   BACKBONE|DICT|INTERRES
   101   49  174 1    
   102   50   51 2    
   103   50   52 1    
   104   52   53 1    
   105   52   54 1    
   106   52  175 1    
   107   53  176 1    
   108   53  177 1    
   109   53  178 1    
   110   54   55 am   BACKBONE|DICT|INTERRES
   111   54  179 1    
   112   55   56 2    
   113   55   57 1    
   114   57   58 1    
   115   57   59 1    
   116   57  180 1    
   117   58  181 1    
   118   58  182 1    
   119   58  183 1    
   120   59   60 am   BACKBONE|DICT|INTERRES
   121   59  184 1    
   122   60   61 2    
   123   60   62 1    
   124   62   63 1    
   125   62   64 1    
   126   62  185 1    
   127   63  186 1    
   128   63  187 1    
   129   63  188 1    
   130   64   65 am   BACKBONE|DICT|INTERRES
   131   64  189 1    
   132   65   66 2    
   133   67   68 2    
   134   67   69 am   BACKBONE|DICT|INTERRES
   135   69   70 1    
   136   69  190 1    
   137   70   71 1    
   138   70   72 1    
   139   70  191 1    
   140   71  192 1    
   141   71  193 1    
   142   71  194 1    
   143   72   73 2    
   144   72   74 am   BACKBONE|DICT|INTERRES
   145   74   75 1    
   146   74  195 1    
   147   75   76 1    
   148   75   77 1    
   149   75  196 1    
   150   76  197 1    
   151   76  198 1    
   152   76  199 1    
   153   77   78 2    
   154   77   79 am   BACKBONE|DICT|INTERRES
   155   79   80 1    
   156   79  200 1    
   157   80   81 1    
   158   80   82 1    
   159   80  201 1    
   160   81  202 1    
   161   81  203 1    
   162   81  204 1    
   163   82   83 2    
   164   82   84 am   BACKBONE|DICT|INTERRES
   165   84   85 1    
   166   84  205 1    
   167   85   86 1    
   168   85   87 1    
   169   85  206 1    
   170   86  207 1    
   171   86  208 1    
   172   86  209 1    
   173   87   88 2    
   174   87   89 am   BACKBONE|DICT|INTERRES
   175   89   90 1    
   176   89  210 1    
   177   90   91 1    
   178   90   92 1    
   179   90  211 1    
   180   91  212 1    
   181   91  213 1    
   182   91  214 1    
   183   92   93 2    
   184   92   94 am   BACKBONE|DICT|INTERRES
   185   94   95 1    
   186   94  215 1    
   187   95   96 1    
   188   95   97 1    
   189   95  216 1    
   190   96  217 1    
   191   96  218 1    
   192   96  219 1    
   193   97   98 2    
   194   97   99 am   BACKBONE|DICT|INTERRES
   195   99  100 1    
   196   99  220 1    
   197  100  101 1    
   198  100  102 1    
   199  100  221 1    
   200  101  222 1    
   201  101  223 1    
   202  101  224 1    
   203  102  103 2    
   204  102  104 am   BACKBONE|DICT|INTERRES
   205  104  105 1    
   206  104  225 1    
   207  105  106 1    
   208  105  107 1    
   209  105  226 1    
   210  106  227 1    
   211  106  228 1    
   212  106  229 1    
   213  107  108 2    
   214  107  109 am   BACKBONE|DICT|INTERRES
   215  109  110 1    
   216  109  230 1    
   217  110  111 1    
   218  110  112 1    
   219  110  231 1    
   220  111  232 1    
   221  111  233 1    
   222  111  234 1    
   223  112  113 2    
   224  112  114 am   BACKBONE|DICT|INTERRES
   225  114  115 1    
   226  114  235 1    
   227  115  116 1    
   228  115  117 1    
   229  115  236 1    
   230  116  237 1    
   231  116  238 1    
   232  116  239 1    
   233  117  118 2    
   234  117  119 am   BACKBONE|DICT|INTERRES
   235  119  120 1    
   236  119  240 1    
   237  120  121 1    
   238  120  124 1    
   239  120  241 1    
   240  121  122 am   BACKBONE|DICT|INTERRES
   241  121  123 2    
   242  122  242 1    
   243  122  243 1    
   244  124  125 1    
   245  124  244 1    
   246  124  245 1    
   247  125  126 1    
   248  126  246 1    
   249  126  247 1    
@<TRIPOS>SUBSTRUCTURE
     1 UNK         1 GROUP             0       ****    0 ROOT    
