@<TRIPOS>MOLECULE
3R540
247   249    1
SMALL
USER_CHARGES


@<TRIPOS>ATOM
      1 CA          3.7953  -12.5240  -45.8549 C.3       0 UNK        -0.1800 
      2 C           2.6078  -13.2373  -45.2280 C.2       0 UNK         0.5000 
      3 O           2.3842  -13.1131  -44.0256 O.2       0 UNK        -0.5000 
      4 N           1.8326  -13.9710  -46.0355 N.am      1 UNK        -0.5000 
      5 CA          0.6660  -14.7580  -45.6088 C.3       1 UNK         0.1400 
      6 C6          0.1804  -15.7250  -46.7165 C.3       23 UNK        -0.0398 
      7 S7         -0.1196  -14.9462  -48.3383 S.3       23 UNK        -0.2404 
      8 C8          1.2621  -15.6277  -49.3201 C.3       23 UNK        -0.0205 
      9 C9          1.0625  -17.0865  -49.7221 C.ar      23 UNK        -0.0193 
     10 C10        -0.0755  -17.4629  -50.4391 C.ar      23 UNK        -0.1150 
     11 C11        -0.2340  -18.7748  -50.8897 C.ar      23 UNK        -0.0193 
     12 C12         0.7630  -19.7191  -50.6284 C.ar      23 UNK        -0.1150 
     13 C13         1.9124  -19.3610  -49.9143 C.ar      23 UNK        -0.0193 
     14 C14         2.0471  -18.0450  -49.4520 C.ar      23 UNK        -0.1150 
     15 C15         3.0580  -20.3558  -49.7308 C.3       23 UNK        -0.0205 
     16 S16         2.5520  -21.9948  -49.1028 S.3       23 UNK        -0.2404 
     17 C17         2.2270  -21.6235  -47.3470 C.3       23 UNK        -0.0398 
     18 CA          0.9389  -22.2687  -46.7771 C.3       11 UNK         0.1400 
     19 N           0.8058  -22.0165  -45.3376 N.am      11 UNK        -0.5000 
     20 C          -0.1402  -22.5389  -44.5432 C.2       10 UNK         0.5000 
     21 O          -0.9748  -23.3574  -44.9227 O.2       10 UNK        -0.5000 
     22 CA         -0.2000  -22.0310  -43.0914 C.3       10 UNK         0.1400 
     23 CB          0.8124  -22.7782  -42.2112 C.3       10 UNK        -0.1800 
     24 N           0.0197  -20.5885  -42.9871 N.am      10 UNK        -0.5000 
     25 C          -0.7826  -19.6523  -43.5152 C.2       9 UNK         0.5000 
     26 O          -1.8383  -19.9052  -44.0954 O.2       9 UNK        -0.5000 
     27 CA         -0.2856  -18.1947  -43.4464 C.3       9 UNK         0.1400 
     28 CB         -0.5637  -17.5737  -42.0708 C.3       9 UNK        -0.1800 
     29 N           1.1392  -18.0770  -43.7642 N.am      9 UNK        -0.5000 
     30 C           1.6749  -18.4289  -44.9410 C.2       8 UNK         0.5000 
     31 O           1.0090  -18.8302  -45.8938 O.2       8 UNK        -0.5000 
     32 CA          3.2058  -18.3629  -45.0633 C.3       8 UNK         0.1400 
     33 CB          3.6842  -16.9371  -45.3721 C.3       8 UNK        -0.1800 
     34 N           3.8556  -18.8543  -43.8506 N.am      8 UNK        -0.5000 
     35 C           3.8971  -20.1463  -43.4973 C.2       7 UNK         0.5000 
     36 O           3.4321  -21.0557  -44.1849 O.2       7 UNK        -0.5000 
     37 CA          4.5261  -20.4685  -42.1292 C.3       7 UNK         0.1400 
     38 CB          6.0546  -20.5635  -42.2447 C.3       7 UNK        -0.1800 
     39 N           4.1763  -19.4847  -41.1024 N.am      7 UNK        -0.5000 
     40 C           2.9372  -19.3007  -40.6256 C.2       6 UNK         0.5000 
     41 O           1.9655  -19.9659  -40.9795 O.2       6 UNK        -0.5000 
     42 CA          2.7377  -18.1544  -39.6178 C.3       6 UNK         0.1400 
     43 CB          2.9911  -18.6471  -38.1856 C.3       6 UNK        -0.1800 
     44 N           3.5699  -16.9774  -39.8783 N.am      6 UNK        -0.5000 
     45 C           3.5645  -16.2531  -41.0047 C.2       5 UNK         0.5000 
     46 O           2.8845  -16.5321  -41.9943 O.2       5 UNK        -0.5000 
     47 CA          4.4637  -15.0029  -41.0089 C.3       5 UNK         0.1400 
     48 CB          5.0894  -14.7463  -42.3894 C.3       5 UNK        -0.1800 
     49 N           3.7162  -13.8203  -40.5796 N.am      5 UNK        -0.5000 
     50 C           3.3423  -13.5785  -39.3143 C.2       4 UNK         0.5000 
     51 O           3.6291  -14.3252  -38.3766 O.2       4 UNK        -0.5000 
     52 CA          2.5472  -12.2899  -39.0153 C.3       4 UNK         0.1400 
     53 CB          3.3058  -11.4068  -38.0097 C.3       4 UNK        -0.1800 
     54 N           2.2354  -11.4759  -40.1921 N.am      4 UNK        -0.5000 
     55 C           1.2212  -11.6897  -41.0389 C.2       3 UNK         0.5000 
     56 O           0.4674  -12.6622  -40.9600 O.2       3 UNK        -0.5000 
     57 CA          0.9980  -10.6151  -42.1230 C.3       3 UNK         0.1400 
     58 CB          2.3106   -9.9716  -42.6159 C.3       3 UNK        -0.1800 
     59 N           0.3058  -11.1904  -43.2720 N.am      3 UNK        -0.5000 
     60 C          -0.9605  -10.9439  -43.6326 C.2       2 UNK         0.5000 
     61 O          -1.7076  -10.1827  -43.0156 O.2       2 UNK        -0.5000 
     62 CA         -1.4855  -11.6320  -44.9117 C.3       2 UNK         0.1400 
     63 CB         -1.7553  -10.5920  -46.0114 C.3       2 UNK        -0.1800 
     64 N          -0.5574  -12.6309  -45.4421 N.am      2 UNK        -0.5000 
     65 C          -0.4931  -13.9077  -45.0432 C.2       1 UNK         0.5000 
     66 O          -1.2822  -14.4152  -44.2461 O.2       1 UNK        -0.5000 
     67 C          -0.3306  -21.8416  -47.5447 C.2       11 UNK         0.5000 
     68 O          -0.8819  -22.6432  -48.3004 O.2       11 UNK        -0.5000 
     69 N          -0.8028  -20.6134  -47.2920 N.am      12 UNK        -0.5000 
     70 CA         -2.0264  -20.0678  -47.8764 C.3       12 UNK         0.1400 
     71 CB         -2.1567  -18.5850  -47.5070 C.3       12 UNK        -0.1800 
     72 C          -3.2871  -20.8555  -47.4787 C.2       12 UNK         0.5000 
     73 O          -4.1219  -21.1311  -48.3413 O.2       12 UNK        -0.5000 
     74 N          -3.3828  -21.2386  -46.1979 N.am      13 UNK        -0.5000 
     75 CA         -4.4653  -22.0615  -45.6567 C.3       13 UNK         0.1400 
     76 CB         -4.3656  -22.0991  -44.1245 C.3       13 UNK        -0.1800 
     77 C          -4.4898  -23.4885  -46.2363 C.2       13 UNK         0.5000 
     78 O          -5.5715  -24.0049  -46.5170 O.2       13 UNK        -0.5000 
     79 N          -3.3071  -24.0936  -46.4154 N.am      14 UNK        -0.5000 
     80 CA         -3.1330  -25.4139  -47.0215 C.3       14 UNK         0.1400 
     81 CB         -1.7012  -25.9135  -46.7747 C.3       14 UNK        -0.1800 
     82 C          -3.4591  -25.4210  -48.5249 C.2       14 UNK         0.5000 
     83 O          -4.0770  -26.3731  -49.0033 O.2       14 UNK        -0.5000 
     84 N          -3.0487  -24.3614  -49.2364 N.am      15 UNK        -0.5000 
     85 CA         -3.3521  -24.1408  -50.6496 C.3       15 UNK         0.1400 
     86 CB         -2.5159  -22.9628  -51.1729 C.3       15 UNK        -0.1800 
     87 C          -4.8528  -23.8961  -50.8857 C.2       15 UNK         0.5000 
     88 O          -5.4479  -24.5570  -51.7354 O.2       15 UNK        -0.5000 
     89 N          -5.4255  -22.9577  -50.1158 N.am      16 UNK        -0.5000 
     90 CA         -6.8380  -22.5574  -50.0883 C.3       16 UNK         0.1400 
     91 CB         -7.7247  -23.7251  -49.6075 C.3       16 UNK        -0.1800 
     92 C          -7.3571  -21.9257  -51.4006 C.2       16 UNK         0.5000 
     93 O          -8.5722  -21.8417  -51.5897 O.2       16 UNK        -0.5000 
     94 N          -6.4363  -21.4714  -52.2661 N.am      17 UNK        -0.5000 
     95 CA         -6.6759  -20.9050  -53.5983 C.3       17 UNK         0.1400 
     96 CB         -7.3457  -19.5173  -53.4815 C.3       17 UNK        -0.1800 
     97 C          -7.4161  -21.8964  -54.5264 C.2       17 UNK         0.5000 
     98 O          -7.1062  -23.0892  -54.4944 O.2       17 UNK        -0.5000 
     99 N          -8.3605  -21.3972  -55.3378 N.am      18 UNK        -0.5000 
    100 CA        -9.2123  -22.1386  -56.2740 C.3       18 UNK         0.1400 
    101 CB       -10.2398  -22.9984  -55.5040 C.3       18 UNK        -0.1800 
    102 C         -8.3943  -22.9371  -57.3107 C.2       18 UNK         0.5000 
    103 O         -7.9724  -22.3638  -58.3155 O.2       18 UNK        -0.5000 
    104 N         -8.1877  -24.2346  -57.0503 N.am      19 UNK        -0.5000 
    105 CA        -7.3800  -25.1386  -57.8683 C.3       19 UNK         0.1400 
    106 CB        -7.7403  -26.5882  -57.5076 C.3       19 UNK        -0.1800 
    107 C         -5.8628  -24.9071  -57.7192 C.2       19 UNK         0.5000 
    108 O         -5.1134  -25.2560  -58.6331 O.2       19 UNK        -0.5000 
    109 N         -5.4291  -24.3377  -56.5850 N.am      20 UNK        -0.5000 
    110 CA        -4.0392  -23.9530  -56.3379 C.3       20 UNK         0.1400 
    111 CB        -3.8265  -23.7665  -54.8269 C.3       20 UNK        -0.1800 
    112 C         -3.6700  -22.6656  -57.0973 C.2       20 UNK         0.5000 
    113 O         -4.5544  -21.8975  -57.4846 O.2       20 UNK        -0.5000 
    114 N         -2.3602  -22.4254  -57.2506 N.am      21 UNK        -0.5000 
    115 CA        -1.7770  -21.2819  -57.9667 C.3       21 UNK         0.1400 
    116 CB        -0.2463  -21.4147  -57.9528 C.3       21 UNK        -0.1800 
    117 C         -2.2004  -19.8968  -57.4334 C.2       21 UNK         0.5000 
    118 O         -2.2004  -18.9292  -58.1958 O.2       21 UNK        -0.5000 
    119 N         -2.5757  -19.8347  -56.1502 N.am      22 UNK        -0.5000 
    120 CA        -3.1770  -18.6585  -55.5036 C.3       22 UNK         0.1400 
    121 C         -4.6544  -18.3793  -55.9160 C.2       22 UNK         0.5000 
    122 N         -5.3406  -19.2643  -56.6309 N.am      22 UNK        -0.7600 
    123 O         -5.1897  -17.3252  -55.5858 O.2       22 UNK        -0.5000 
    124 C124       -3.0346  -18.7234  -53.9621 C.3       23 UNK        -0.0398 
    125 S125       -1.2908  -18.7179  -53.4317 S.3       23 UNK        -0.2404 
    126 C126       -1.4765  -19.1518  -51.6776 C.3       23 UNK        -0.0205 
    127 H127        4.7211  -12.8640  -45.3908 H         1 UNK         0.0600 
    128 H128        3.7099  -11.4484  -45.7002 H         1 UNK         0.0600 
    129 H129        3.8619  -12.7115  -46.9267 H         1 UNK         0.0600 
    130 H130        2.0376  -14.0041  -47.0235 H         1 UNK         0.3000 
    131 H131        1.0010  -15.3744  -44.7722 H         1 UNK         0.0600 
    132 H132       -0.7234  -16.2485  -46.4022 H         1 UNK         0.0800 
    133 H133        0.9275  -16.5002  -46.8636 H         1 UNK         0.0800 
    134 H134        1.3615  -15.0349  -50.2303 H         1 UNK         0.0800 
    135 H135        2.1964  -15.4993  -48.7720 H         1 UNK         0.0800 
    136 H136       -0.8336  -16.7258  -50.6641 H         1 UNK         0.1150 
    137 H137        0.6550  -20.7280  -51.0010 H         1 UNK         0.1150 
    138 H138        2.9424  -17.7542  -48.9211 H         1 UNK         0.1150 
    139 H139        3.5383  -20.4963  -50.6999 H         1 UNK         0.0800 
    140 H140        3.8249  -19.9478  -49.0705 H         1 UNK         0.0800 
    141 H141        2.1974  -20.5438  -47.2235 H         1 UNK         0.0800 
    142 H142        3.0911  -21.9651  -46.7757 H         1 UNK         0.0800 
    143 H143        1.0338  -23.3501  -46.8963 H         1 UNK         0.0600 
    144 H144        1.4830  -21.3839  -44.9280 H         1 UNK         0.3000 
    145 H145       -1.2000  -22.2417  -42.7077 H         1 UNK         0.0600 
    146 H146        0.7126  -22.4891  -41.1649 H         1 UNK         0.0600 
    147 H147        0.6576  -23.8564  -42.2666 H         1 UNK         0.0600 
    148 H148        1.8392  -22.5769  -42.5168 H         1 UNK         0.0600 
    149 H149        0.8404  -20.2931  -42.4647 H         1 UNK         0.3000 
    150 H150       -0.8384  -17.6203  -44.1925 H         1 UNK         0.0600 
    151 H151       -1.6319  -17.5798  -41.8516 H         1 UNK         0.0600 
    152 H152       -0.2285  -16.5366  -42.0314 H         1 UNK         0.0600 
    153 H153       -0.0627  -18.1202  -41.2728 H         1 UNK         0.0600 
    154 H154        1.7478  -17.7050  -43.0402 H         1 UNK         0.3000 
    155 H155        3.5065  -19.0011  -45.8965 H         1 UNK         0.0600 
    156 H156        3.3662  -16.2290  -44.6077 H         1 UNK         0.0600 
    157 H157        3.2877  -16.5919  -46.3270 H         1 UNK         0.0600 
    158 H158        4.7711  -16.8905  -45.4392 H         1 UNK         0.0600 
    159 H159        4.1935  -18.1587  -43.2014 H         1 UNK         0.3000 
    160 H160        4.1465  -21.4416  -41.8103 H         1 UNK         0.0600 
    161 H161        6.4983  -19.6107  -42.5362 H         1 UNK         0.0600 
    162 H162        6.3437  -21.3031  -42.9927 H         1 UNK         0.0600 
    163 H163        6.5031  -20.8677  -41.2987 H         1 UNK         0.0600 
    164 H164        4.9188  -18.8949  -40.7567 H         1 UNK         0.3000 
    165 H165        1.6963  -17.8355  -39.6857 H         1 UNK         0.0600 
    166 H166        2.7579  -17.8721  -37.4551 H         1 UNK         0.0600 
    167 H167        2.3657  -19.5101  -37.9528 H         1 UNK         0.0600 
    168 H168        4.0301  -18.9450  -38.0398 H         1 UNK         0.0600 
    169 H169        4.1126  -16.6337  -39.0976 H         1 UNK         0.3000 
    170 H170        5.2855  -15.1680  -40.3087 H         1 UNK         0.0600 
    171 H171        5.6748  -15.6058  -42.7179 H         1 UNK         0.0600 
    172 H172        4.3325  -14.5603  -43.1483 H         1 UNK         0.0600 
    173 H173        5.7579  -13.8856  -42.3668 H         1 UNK         0.0600 
    174 H174        3.4010  -13.1941  -41.3067 H         1 UNK         0.3000 
    175 H175        1.6096  -12.5988  -38.5485 H         1 UNK         0.0600 
    176 H176        4.2628  -11.0716  -38.4114 H         1 UNK         0.0600 
    177 H177        2.7249  -10.5237  -37.7428 H         1 UNK         0.0600 
    178 H178        3.5097  -11.9473  -37.0844 H         1 UNK         0.0600 
    179 H179        2.8182  -10.6639  -40.3358 H         1 UNK         0.3000 
    180 H180        0.3898   -9.8306  -41.6689 H         1 UNK         0.0600 
    181 H181        3.0288  -10.7195  -42.9538 H         1 UNK         0.0600 
    182 H182        2.7870   -9.3821  -41.8321 H         1 UNK         0.0600 
    183 H183        2.1245   -9.2934  -43.4489 H         1 UNK         0.0600 
    184 H184        0.8286  -11.9058  -43.7660 H         1 UNK         0.3000 
    185 H185       -2.4325  -12.1140  -44.6599 H         1 UNK         0.0600 
    186 H186       -2.4787   -9.8468  -45.6780 H         1 UNK         0.0600 
    187 H187       -0.8455  -10.0620  -46.2962 H         1 UNK         0.0600 
    188 H188       -2.1649  -11.0616  -46.9060 H         1 UNK         0.0600 
    189 H189        0.1284  -12.3040  -46.1071 H         1 UNK         0.3000 
    190 H190       -0.2730  -20.0016  -46.6762 H         1 UNK         0.3000 
    191 H191       -1.9301  -20.1384  -48.9604 H         1 UNK         0.0600 
    192 H192       -1.3035  -18.0205  -47.8805 H         1 UNK         0.0600 
    193 H193       -3.0538  -18.1478  -47.9466 H         1 UNK         0.0600 
    194 H194       -2.2099  -18.4397  -46.4278 H         1 UNK         0.0600 
    195 H195       -2.6738  -20.9274  -45.5398 H         1 UNK         0.3000 
    196 H196       -5.4098  -21.5819  -45.9219 H         1 UNK         0.0600 
    197 H197       -5.1803  -22.6825  -43.6939 H         1 UNK         0.0600 
    198 H198       -4.4237  -21.0963  -43.7008 H         1 UNK         0.0600 
    199 H199       -3.4290  -22.5481  -43.7937 H         1 UNK         0.0600 
    200 H200       -2.4623  -23.6295  -46.0923 H         1 UNK         0.3000 
    201 H201       -3.8205  -26.1048  -46.5290 H         1 UNK         0.0600 
    202 H202       -1.4939  -26.0015  -45.7082 H         1 UNK         0.0600 
    203 H203       -0.9596  -25.2393  -47.2048 H         1 UNK         0.0600 
    204 H204       -1.5479  -26.8982  -47.2179 H         1 UNK         0.0600 
    205 H205       -2.4816  -23.6547  -48.7761 H         1 UNK         0.3000 
    206 H206       -3.0649  -25.0361  -51.2050 H         1 UNK         0.0600 
    207 H207       -1.4490  -23.1776  -51.1069 H         1 UNK         0.0600 
    208 H208       -2.7418  -22.7484  -52.2175 H         1 UNK         0.0600 
    209 H209       -2.7066  -22.0560  -50.5994 H         1 UNK         0.0600 
    210 H210       -4.8351  -22.4497  -49.4597 H         1 UNK         0.3000 
    211 H211       -6.9023  -21.7700  -49.3361 H         1 UNK         0.0600 
    212 H212       -7.7767  -24.5244  -50.3471 H         1 UNK         0.0600 
    213 H213       -8.7449  -23.3911  -49.4156 H         1 UNK         0.0600 
    214 H214       -7.3454  -24.1517  -48.6790 H         1 UNK         0.0600 
    215 H215       -5.4704  -21.6212  -52.0179 H         1 UNK         0.3000 
    216 H216       -5.6934  -20.7592  -54.0474 H         1 UNK         0.0600 
    217 H217       -7.3909  -19.0117  -54.4463 H         1 UNK         0.0600 
    218 H218       -6.7792  -18.8677  -52.8142 H         1 UNK         0.0600 
    219 H219       -8.3624  -19.5846  -53.0929 H         1 UNK         0.0600 
    220 H220       -8.5234  -20.4011  -55.3066 H         1 UNK         0.3000 
    221 H221       -9.7736  -21.3924  -56.8384 H         1 UNK         0.0600 
    222 H222       -9.7659  -23.7163  -54.8341 H         1 UNK         0.0600 
    223 H223      -10.8921  -22.3698  -54.8977 H         1 UNK         0.0600 
    224 H224      -10.8783  -23.5557  -56.1907 H         1 UNK         0.0600 
    225 H225       -8.5349  -24.6037  -56.1768 H         1 UNK         0.3000 
    226 H226       -7.6359  -24.9755  -58.9174 H         1 UNK         0.0600 
    227 H227       -8.7992  -26.7855  -57.6759 H         1 UNK         0.0600 
    228 H228       -7.1779  -27.2946  -58.1196 H         1 UNK         0.0600 
    229 H229       -7.5182  -26.8095  -56.4628 H         1 UNK         0.0600 
    230 H230       -6.1106  -24.0298  -55.8971 H         1 UNK         0.3000 
    231 H231       -3.3874  -24.7587  -56.6822 H         1 UNK         0.0600 
    232 H232       -4.3980  -22.9246  -54.4369 H         1 UNK         0.0600 
    233 H233       -2.7762  -23.5833  -54.5982 H         1 UNK         0.0600 
    234 H234       -4.1264  -24.6567  -54.2736 H         1 UNK         0.0600 
    235 H235       -1.7004  -23.0971  -56.8854 H         1 UNK         0.3000 
    236 H236       -2.1153  -21.3424  -59.0030 H         1 UNK         0.0600 
    237 H237        0.0748  -22.3446  -58.4224 H         1 UNK         0.0600 
    238 H238        0.2227  -20.5971  -58.5022 H         1 UNK         0.0600 
    239 H239        0.1489  -21.3958  -56.9363 H         1 UNK         0.0600 
    240 H240       -2.5240  -20.6754  -55.5965 H         1 UNK         0.3000 
    241 H241       -2.6180  -17.7835  -55.8414 H         1 UNK         0.0600 
    242 H242       -4.9297  -20.1423  -56.9391 H         1 UNK         0.3800 
    243 H243       -6.2781  -19.0361  -56.9170 H         1 UNK         0.3800 
    244 H244       -3.5218  -17.8671  -53.4917 H         1 UNK         0.0800 
    245 H245       -3.5270  -19.6141  -53.5693 H         1 UNK         0.0800 
    246 H246       -2.3437  -18.6406  -51.2562 H         1 UNK         0.0800 
    247 H247       -1.6714  -20.2201  -51.5939 H         1 UNK         0.0800 
@<TRIPOS>BOND
     1    1    2 1    
     2    1  127 1    
     3    1  128 1    
     4    1  129 1    
     5    2    3 2    
     6    2    4 am   BACKBONE|DICT|INTERRES
     7    4    5 1    
     8    4  130 1    
     9    5    6 1    
    10    5   65 1    
    11    5  131 1    
    12    6    7 1    
    13    6  132 1    
    14    6  133 1    
    15    7    8 1    
    16    8    9 1    
    17    8  134 1    
    18    8  135 1    
    19    9   10 ar   
    20    9   14 ar   
    21   10   11 ar   
    22   10  136 1    
    23   11   12 ar   
    24   11  126 1    
    25   12   13 ar   
    26   12  137 1    
    27   13   14 ar   
    28   13   15 1    
    29   14  138 1    
    30   15   16 1    
    31   15  139 1    
    32   15  140 1    
    33   16   17 1    
    34   17   18 1    
    35   17  141 1    
    36   17  142 1    
    37   18   19 1    
    38   18   67 1    
    39   18  143 1    
    40   19   20 am   BACKBONE|DICT|INTERRES
    41   19  144 1    
    42   20   21 2    
    43   20   22 1    
    44   22   23 1    
    45   22   24 1    
    46   22  145 1    
    47   23  146 1    
    48   23  147 1    
    49   23  148 1    
    50   24   25 am   BACKBONE|DICT|INTERRES
    51   24  149 1    
    52   25   26 2    
    53   25   27 1    
    54   27   28 1    
    55   27   29 1    
    56   27  150 1    
    57   28  151 1    
    58   28  152 1    
    59   28  153 1    
    60   29   30 am   BACKBONE|DICT|INTERRES
    61   29  154 1    
    62   30   31 2    
    63   30   32 1    
    64   32   33 1    
    65   32   34 1    
    66   32  155 1    
    67   33  156 1    
    68   33  157 1    
    69   33  158 1    
    70   34   35 am   BACKBONE|DICT|INTERRES
    71   34  159 1    
    72   35   36 2    
    73   35   37 1    
    74   37   38 1    
    75   37   39 1    
    76   37  160 1    
    77   38  161 1    
    78   38  162 1    
    79   38  163 1    
    80   39   40 am   BACKBONE|DICT|INTERRES
    81   39  164 1    
    82   40   41 2    
    83   40   42 1    
    84   42   43 1    
    85   42   44 1    
    86   42  165 1    
    87   43  166 1    
    88   43  167 1    
    89   43  168 1    
    90   44   45 am   BACKBONE|DICT|INTERRES
    91   44  169 1    
    92   45   46 2    
    93   45   47 1    
    94   47   48 1    
    95   47   49 1    
    96   47  170 1    
    97   48  171 1    
    98   48  172 1    
    99   48  173 1    
   100   49   50 am   BACKBONE|DICT|INTERRES
   101   49  174 1    
   102   50   51 2    
   103   50   52 1    
   104   52   53 1    
   105   52   54 1    
   106   52  175 1    
   107   53  176 1    
   108   53  177 1    
   109   53  178 1    
   110   54   55 am   BACKBONE|DICT|INTERRES
   111   54  179 1    
   112   55   56 2    
   113   55   57 1    
   114   57   58 1    
   115   57   59 1    
   116   57  180 1    
   117   58  181 1    
   118   58  182 1    
   119   58  183 1    
   120   59   60 am   BACKBONE|DICT|INTERRES
   121   59  184 1    
   122   60   61 2    
   123   60   62 1    
   124   62   63 1    
   125   62   64 1    
   126   62  185 1    
   127   63  186 1    
   128   63  187 1    
   129   63  188 1    
   130   64   65 am   BACKBONE|DICT|INTERRES
   131   64  189 1    
   132   65   66 2    
   133   67   68 2    
   134   67   69 am   BACKBONE|DICT|INTERRES
   135   69   70 1    
   136   69  190 1    
   137   70   71 1    
   138   70   72 1    
   139   70  191 1    
   140   71  192 1    
   141   71  193 1    
   142   71  194 1    
   143   72   73 2    
   144   72   74 am   BACKBONE|DICT|INTERRES
   145   74   75 1    
   146   74  195 1    
   147   75   76 1    
   148   75   77 1    
   149   75  196 1    
   150   76  197 1    
   151   76  198 1    
   152   76  199 1    
   153   77   78 2    
   154   77   79 am   BACKBONE|DICT|INTERRES
   155   79   80 1    
   156   79  200 1    
   157   80   81 1    
   158   80   82 1    
   159   80  201 1    
   160   81  202 1    
   161   81  203 1    
   162   81  204 1    
   163   82   83 2    
   164   82   84 am   BACKBONE|DICT|INTERRES
   165   84   85 1    
   166   84  205 1    
   167   85   86 1    
   168   85   87 1    
   169   85  206 1    
   170   86  207 1    
   171   86  208 1    
   172   86  209 1    
   173   87   88 2    
   174   87   89 am   BACKBONE|DICT|INTERRES
   175   89   90 1    
   176   89  210 1    
   177   90   91 1    
   178   90   92 1    
   179   90  211 1    
   180   91  212 1    
   181   91  213 1    
   182   91  214 1    
   183   92   93 2    
   184   92   94 am   BACKBONE|DICT|INTERRES
   185   94   95 1    
   186   94  215 1    
   187   95   96 1    
   188   95   97 1    
   189   95  216 1    
   190   96  217 1    
   191   96  218 1    
   192   96  219 1    
   193   97   98 2    
   194   97   99 am   BACKBONE|DICT|INTERRES
   195   99  100 1    
   196   99  220 1    
   197  100  101 1    
   198  100  102 1    
   199  100  221 1    
   200  101  222 1    
   201  101  223 1    
   202  101  224 1    
   203  102  103 2    
   204  102  104 am   BACKBONE|DICT|INTERRES
   205  104  105 1    
   206  104  225 1    
   207  105  106 1    
   208  105  107 1    
   209  105  226 1    
   210  106  227 1    
   211  106  228 1    
   212  106  229 1    
   213  107  108 2    
   214  107  109 am   BACKBONE|DICT|INTERRES
   215  109  110 1    
   216  109  230 1    
   217  110  111 1    
   218  110  112 1    
   219  110  231 1    
   220  111  232 1    
   221  111  233 1    
   222  111  234 1    
   223  112  113 2    
   224  112  114 am   BACKBONE|DICT|INTERRES
   225  114  115 1    
   226  114  235 1    
   227  115  116 1    
   228  115  117 1    
   229  115  236 1    
   230  116  237 1    
   231  116  238 1    
   232  116  239 1    
   233  117  118 2    
   234  117  119 am   BACKBONE|DICT|INTERRES
   235  119  120 1    
   236  119  240 1    
   237  120  121 1    
   238  120  124 1    
   239  120  241 1    
   240  121  122 am   BACKBONE|DICT|INTERRES
   241  121  123 2    
   242  122  242 1    
   243  122  243 1    
   244  124  125 1    
   245  124  244 1    
   246  124  245 1    
   247  125  126 1    
   248  126  246 1    
   249  126  247 1    
@<TRIPOS>SUBSTRUCTURE
     1 UNK         1 GROUP             0       ****    0 ROOT    
