@<TRIPOS>MOLECULE
3R540
247   249    1
SMALL
USER_CHARGES


@<TRIPOS>ATOM
      1 CA          0.3975  -13.3998  -42.8899 C.3       0 UNK        -0.1800 
      2 C          -0.3066  -12.5612  -43.9463 C.2       0 UNK         0.5000 
      3 O           0.3555  -11.8734  -44.7223 O.2       0 UNK        -0.5000 
      4 N          -1.6443  -12.6132  -43.9744 N.am      1 UNK        -0.5000 
      5 CA         -2.5299  -11.8929  -44.8971 C.3       1 UNK         0.1400 
      6 C6         -2.4290  -12.3798  -46.3712 C.3       23 UNK        -0.0398 
      7 S7         -2.9214  -14.1264  -46.5636 S.3       23 UNK        -0.2404 
      8 C8         -4.7199  -13.9349  -46.7955 C.3       23 UNK        -0.0205 
      9 C9         -5.4527  -15.2669  -46.8990 C.ar      23 UNK        -0.0193 
     10 C10        -6.3286  -15.5073  -47.9637 C.ar      23 UNK        -0.1150 
     11 C11        -7.0343  -16.7120  -48.0455 C.ar      23 UNK        -0.0193 
     12 C12        -6.8649  -17.6765  -47.0499 C.ar      23 UNK        -0.1150 
     13 C13        -5.9945  -17.4503  -45.9820 C.ar      23 UNK        -0.0193 
     14 C14        -5.2959  -16.2425  -45.9083 C.ar      23 UNK        -0.1150 
     15 C15        -5.8169  -18.5073  -44.9045 C.3       23 UNK        -0.0205 
     16 S16        -4.3615  -19.5476  -45.2223 S.3       23 UNK        -0.2404 
     17 C17        -4.8797  -20.4814  -46.7046 C.3       23 UNK        -0.0398 
     18 CA         -4.1198  -21.8117  -46.9358 C.3       11 UNK         0.1400 
     19 N          -2.7139  -21.6161  -47.3073 N.am      11 UNK        -0.5000 
     20 C          -1.9533  -22.5737  -47.8602 C.2       10 UNK         0.5000 
     21 O          -2.3829  -23.6871  -48.1655 O.2       10 UNK        -0.5000 
     22 CA         -0.4593  -22.2678  -48.0712 C.3       10 UNK         0.1400 
     23 CB         -0.2154  -21.5608  -49.4059 C.3       10 UNK        -0.1800 
     24 N           0.1343  -21.4658  -47.0081 N.am      10 UNK        -0.5000 
     25 C           0.2751  -21.8555  -45.7361 C.2       9 UNK         0.5000 
     26 O          -0.1223  -22.9376  -45.3066 O.2       9 UNK        -0.5000 
     27 CA          0.9504  -20.8510  -44.7896 C.3       9 UNK         0.1400 
     28 CB          2.4777  -20.8830  -44.9538 C.3       9 UNK        -0.1800 
     29 N           0.4589  -19.4976  -45.0441 N.am      9 UNK        -0.5000 
     30 C          -0.6658  -19.0011  -44.5124 C.2       8 UNK         0.5000 
     31 O          -1.3287  -19.5915  -43.6599 O.2       8 UNK        -0.5000 
     32 CA         -1.1336  -17.6211  -45.0144 C.3       8 UNK         0.1400 
     33 CB         -0.6513  -16.5112  -44.0724 C.3       8 UNK        -0.1800 
     34 N          -0.6872  -17.3119  -46.3718 N.am      8 UNK        -0.5000 
     35 C          -1.1583  -17.8910  -47.4848 C.2       7 UNK         0.5000 
     36 O          -2.0042  -18.7841  -47.5018 O.2       7 UNK        -0.5000 
     37 CA         -0.5366  -17.4255  -48.8118 C.3       7 UNK         0.1400 
     38 CB         -1.2357  -16.1521  -49.3101 C.3       7 UNK        -0.1800 
     39 N           0.9031  -17.1775  -48.7386 N.am      7 UNK        -0.5000 
     40 C           1.8367  -18.0408  -48.3124 C.2       6 UNK         0.5000 
     41 O           1.5905  -19.1844  -47.9313 O.2       6 UNK        -0.5000 
     42 CA          3.2851  -17.5196  -48.2620 C.3       6 UNK         0.1400 
     43 CB          4.0429  -17.9322  -49.5326 C.3       6 UNK        -0.1800 
     44 N           3.3613  -16.0633  -48.1018 N.am      6 UNK        -0.5000 
     45 C           2.9707  -15.4001  -47.0054 C.2       5 UNK         0.5000 
     46 O           2.5489  -15.9455  -45.9817 O.2       5 UNK        -0.5000 
     47 CA          2.9923  -13.8713  -47.0947 C.3       5 UNK         0.1400 
     48 CB          1.6571  -13.3592  -47.6727 C.3       5 UNK        -0.1800 
     49 N           3.2045  -13.3297  -45.7581 N.am      5 UNK        -0.5000 
     50 C           3.5607  -12.0721  -45.4860 C.2       4 UNK         0.5000 
     51 O           3.7999  -11.2212  -46.3477 O.2       4 UNK        -0.5000 
     52 CA          3.6574  -11.6843  -44.0060 C.3       4 UNK         0.1400 
     53 CB          5.1195  -11.5887  -43.5382 C.3       4 UNK        -0.1800 
     54 N           2.9926  -10.3973  -43.8614 N.am      4 UNK        -0.5000 
     55 C           2.3937   -9.9395  -42.7581 C.2       3 UNK         0.5000 
     56 O           2.4213  -10.5084  -41.6667 O.2       3 UNK        -0.5000 
     57 CA          1.5942   -8.6426  -42.9266 C.3       3 UNK         0.1400 
     58 CB          2.5470   -7.4539  -43.1797 C.3       3 UNK        -0.1800 
     59 N           0.6257   -8.8124  -44.0130 N.am      3 UNK        -0.5000 
     60 C          -0.3101   -7.9246  -44.3758 C.2       2 UNK         0.5000 
     61 O          -0.4766   -6.8362  -43.8238 O.2       2 UNK        -0.5000 
     62 CA         -1.2252   -8.3132  -45.5532 C.3       2 UNK         0.1400 
     63 CB         -0.5823   -7.9069  -46.8883 C.3       2 UNK        -0.1800 
     64 N          -1.5387   -9.7412  -45.5912 N.am      2 UNK        -0.5000 
     65 C          -2.3634  -10.3645  -44.7381 C.2       1 UNK         0.5000 
     66 O          -2.9770   -9.7860  -43.8396 O.2       1 UNK        -0.5000 
     67 C          -4.2774  -22.7987  -45.7568 C.2       11 UNK         0.5000 
     68 O          -5.2077  -23.6047  -45.7646 O.2       11 UNK        -0.5000 
     69 N          -3.3418  -22.7608  -44.7946 N.am      12 UNK        -0.5000 
     70 CA         -3.2787  -23.6834  -43.6574 C.3       12 UNK         0.1400 
     71 CB         -2.3109  -23.1335  -42.5990 C.3       12 UNK        -0.1800 
     72 C          -2.8868  -25.1106  -44.0862 C.2       12 UNK         0.5000 
     73 O          -3.3614  -26.0787  -43.4925 O.2       12 UNK        -0.5000 
     74 N          -2.0809  -25.2121  -45.1519 N.am      13 UNK        -0.5000 
     75 CA         -1.7524  -26.4505  -45.8608 C.3       13 UNK         0.1400 
     76 CB         -0.4400  -26.2419  -46.6361 C.3       13 UNK        -0.1800 
     77 C          -2.8776  -26.9334  -46.8048 C.2       13 UNK         0.5000 
     78 O          -2.6873  -27.9342  -47.4960 O.2       13 UNK        -0.5000 
     79 N          -4.0119  -26.2152  -46.8484 N.am      14 UNK        -0.5000 
     80 CA         -5.2112  -26.4783  -47.6527 C.3       14 UNK         0.1400 
     81 CB         -5.9070  -27.7709  -47.1776 C.3       14 UNK        -0.1800 
     82 C          -4.9489  -26.4648  -49.1734 C.2       14 UNK         0.5000 
     83 O          -5.6485  -27.1486  -49.9225 O.2       14 UNK        -0.5000 
     84 N          -3.9342  -25.6949  -49.5956 N.am      15 UNK        -0.5000 
     85 CA         -3.4268  -25.5584  -50.9635 C.3       15 UNK         0.1400 
     86 CB         -4.4819  -24.8957  -51.8728 C.3       15 UNK        -0.1800 
     87 C          -2.8725  -26.8694  -51.5671 C.2       15 UNK         0.5000 
     88 O          -2.7832  -26.9809  -52.7912 O.2       15 UNK        -0.5000 
     89 N          -2.5044  -27.8421  -50.7175 N.am      16 UNK        -0.5000 
     90 CA         -1.9149  -29.1210  -51.1141 C.3       16 UNK         0.1400 
     91 CB         -1.9697  -30.0963  -49.9271 C.3       16 UNK        -0.1800 
     92 C          -0.4750  -28.8983  -51.6050 C.2       16 UNK         0.5000 
     93 O           0.4245  -28.7078  -50.7852 O.2       16 UNK        -0.5000 
     94 N          -0.3091  -28.8173  -52.9326 N.am      17 UNK        -0.5000 
     95 CA          0.8938  -28.4434  -53.6958 C.3       17 UNK         0.1400 
     96 CB          2.0738  -29.3880  -53.3965 C.3       17 UNK        -0.1800 
     97 C           1.3104  -26.9625  -53.5496 C.2       17 UNK         0.5000 
     98 O           1.9056  -26.4085  -54.4751 O.2       17 UNK        -0.5000 
     99 N           0.9793  -26.3397  -52.4131 N.am      18 UNK        -0.5000 
    100 CA         1.1797  -24.9324  -52.0918 C.3       18 UNK         0.1400 
    101 CB         1.0508  -24.7652  -50.5680 C.3       18 UNK        -0.1800 
    102 C          0.1919  -24.0406  -52.8709 C.2       18 UNK         0.5000 
    103 O         -0.8313  -23.6176  -52.3320 O.2       18 UNK        -0.5000 
    104 N          0.5180  -23.7722  -54.1405 N.am      19 UNK        -0.5000 
    105 CA        -0.2816  -22.9804  -55.0822 C.3       19 UNK         0.1400 
    106 CB         0.3158  -23.1489  -56.4882 C.3       19 UNK        -0.1800 
    107 C         -0.4142  -21.4830  -54.7239 C.2       19 UNK         0.5000 
    108 O         -1.2214  -20.7860  -55.3389 O.2       19 UNK        -0.5000 
    109 N          0.3687  -21.0121  -53.7433 N.am      20 UNK        -0.5000 
    110 CA         0.3668  -19.6414  -53.2276 C.3       20 UNK         0.1400 
    111 CB         1.6274  -19.4390  -52.3692 C.3       20 UNK        -0.1800 
    112 C         -0.8911  -19.2622  -52.4182 C.2       20 UNK         0.5000 
    113 O         -1.0532  -18.0817  -52.1072 O.2       20 UNK        -0.5000 
    114 N         -1.7325  -20.2471  -52.0635 N.am      21 UNK        -0.5000 
    115 CA        -2.9470  -20.1054  -51.2540 C.3       21 UNK         0.1400 
    116 CB        -3.6821  -21.4525  -51.2049 C.3       21 UNK        -0.1800 
    117 C         -3.8795  -18.9843  -51.7499 C.2       21 UNK         0.5000 
    118 O         -4.3113  -19.0092  -52.9042 O.2       21 UNK        -0.5000 
    119 N         -4.1316  -18.0160  -50.8625 N.am      22 UNK        -0.5000 
    120 CA        -4.8850  -16.7737  -51.1046 C.3       22 UNK         0.1400 
    121 C         -4.1833  -15.7402  -52.0401 C.2       22 UNK         0.5000 
    122 N         -2.9320  -15.9258  -52.4427 N.am      22 UNK        -0.7600 
    123 O         -4.7760  -14.7216  -52.3856 O.2       22 UNK        -0.5000 
    124 C124       -6.3695  -17.0020  -51.5110 C.3       23 UNK        -0.0398 
    125 S125       -7.2887  -18.1317  -50.4089 S.3       23 UNK        -0.2404 
    126 C126       -7.9983  -16.9790  -49.1911 C.3       23 UNK        -0.0205 
    127 H127       -0.3036  -14.0176  -42.3288 H         1 UNK         0.0600 
    128 H128        1.1288  -14.0566  -43.3602 H         1 UNK         0.0600 
    129 H129        0.9188  -12.7546  -42.1840 H         1 UNK         0.0600 
    130 H130       -2.1221  -13.1807  -43.2894 H         1 UNK         0.3000 
    131 H131       -3.5440  -12.1085  -44.5574 H         1 UNK         0.0600 
    132 H132       -3.0547  -11.7692  -47.0246 H         1 UNK         0.0800 
    133 H133       -1.4103  -12.2811  -46.7478 H         1 UNK         0.0800 
    134 H134       -5.1369  -13.3780  -45.9558 H         1 UNK         0.0800 
    135 H135       -4.8951  -13.3321  -47.6879 H         1 UNK         0.0800 
    136 H136       -6.4671  -14.7548  -48.7275 H         1 UNK         0.1150 
    137 H137       -7.4109  -18.6074  -47.1111 H         1 UNK         0.1150 
    138 H138       -4.6261  -16.0625  -45.0791 H         1 UNK         0.1150 
    139 H139       -5.6971  -18.0233  -43.9342 H         1 UNK         0.0800 
    140 H140       -6.7073  -19.1327  -44.8242 H         1 UNK         0.0800 
    141 H141       -4.7585  -19.8332  -47.5739 H         1 UNK         0.0800 
    142 H142       -5.9493  -20.6845  -46.6326 H         1 UNK         0.0800 
    143 H143       -4.5996  -22.2876  -47.7944 H         1 UNK         0.0600 
    144 H144       -2.3208  -20.6950  -47.1331 H         1 UNK         0.3000 
    145 H145        0.0660  -23.2241  -48.0950 H         1 UNK         0.0600 
    146 H146        0.8504  -21.4789  -49.6176 H         1 UNK         0.0600 
    147 H147       -0.6731  -22.1083  -50.2276 H         1 UNK         0.0600 
    148 H148       -0.6247  -20.5532  -49.3996 H         1 UNK         0.0600 
    149 H149        0.5347  -20.5746  -47.2899 H         1 UNK         0.3000 
    150 H150        0.7165  -21.1419  -43.7631 H         1 UNK         0.0600 
    151 H151        2.8693  -21.8799  -44.7477 H         1 UNK         0.0600 
    152 H152        2.9616  -20.1939  -44.2615 H         1 UNK         0.0600 
    153 H153        2.7860  -20.6128  -45.9642 H         1 UNK         0.0600 
    154 H154        0.9309  -18.9684  -45.7648 H         1 UNK         0.3000 
    155 H155       -2.2245  -17.6131  -45.0090 H         1 UNK         0.0600 
    156 H156       -0.9893  -16.6888  -43.0507 H         1 UNK         0.0600 
    157 H157       -1.0457  -15.5440  -44.3820 H         1 UNK         0.0600 
    158 H158        0.4371  -16.4435  -44.0544 H         1 UNK         0.0600 
    159 H159        0.0380  -16.6144  -46.4594 H         1 UNK         0.3000 
    160 H160       -0.6964  -18.2191  -49.5403 H         1 UNK         0.0600 
    161 H161       -1.0246  -15.2990  -48.6647 H         1 UNK         0.0600 
    162 H162       -2.3181  -16.2789  -49.3375 H         1 UNK         0.0600 
    163 H163       -0.9119  -15.8947  -50.3184 H         1 UNK         0.0600 
    164 H164        1.2119  -16.2653  -49.0373 H         1 UNK         0.3000 
    165 H165        3.7723  -17.9854  -47.4027 H         1 UNK         0.0600 
    166 H166        5.0925  -17.6428  -49.4774 H         1 UNK         0.0600 
    167 H167        4.0122  -19.0139  -49.6718 H         1 UNK         0.0600 
    168 H168        3.6140  -17.4750  -50.4251 H         1 UNK         0.0600 
    169 H169        3.6981  -15.5414  -48.8984 H         1 UNK         0.3000 
    170 H170        3.8184  -13.5655  -47.7402 H         1 UNK         0.0600 
    171 H171        1.4766  -13.7637  -48.6691 H         1 UNK         0.0600 
    172 H172        0.8133  -13.6454  -47.0429 H         1 UNK         0.0600 
    173 H173        1.6487  -12.2729  -47.7615 H         1 UNK         0.0600 
    174 H174        3.0387  -13.9942  -45.0129 H         1 UNK         0.3000 
    175 H175        3.1357  -12.4324  -43.4065 H         1 UNK         0.0600 
    176 H176        5.6741  -10.8398  -44.1049 H         1 UNK         0.0600 
    177 H177        5.1800  -11.3225  -42.4828 H         1 UNK         0.0600 
    178 H178        5.6313  -12.5436  -43.6632 H         1 UNK         0.0600 
    179 H179        2.9096   -9.8795  -44.7269 H         1 UNK         0.3000 
    180 H180        1.0442   -8.4646  -42.0004 H         1 UNK         0.0600 
    181 H181        2.0261   -6.4988  -43.1208 H         1 UNK         0.0600 
    182 H182        3.0196   -7.5157  -44.1604 H         1 UNK         0.0600 
    183 H183        3.3420   -7.4252  -42.4333 H         1 UNK         0.0600 
    184 H184        0.6333   -9.7212  -44.4656 H         1 UNK         0.3000 
    185 H185       -2.1601   -7.7590  -45.4448 H         1 UNK         0.0600 
    186 H186        0.3498   -8.4445  -47.0674 H         1 UNK         0.0600 
    187 H187       -1.2516   -8.1063  -47.7253 H         1 UNK         0.0600 
    188 H188       -0.3541   -6.8403  -46.9029 H         1 UNK         0.0600 
    189 H189       -1.0192  -10.2982  -46.2539 H         1 UNK         0.3000 
    190 H190       -2.6046  -22.0733  -44.8631 H         1 UNK         0.3000 
    191 H191       -4.2735  -23.7340  -43.2096 H         1 UNK         0.0600 
    192 H192       -1.2881  -23.0784  -42.9704 H         1 UNK         0.0600 
    193 H193       -2.6036  -22.1331  -42.2790 H         1 UNK         0.0600 
    194 H194       -2.3023  -23.7696  -41.7132 H         1 UNK         0.0600 
    195 H195       -1.6814  -24.3599  -45.5280 H         1 UNK         0.3000 
    196 H196       -1.5887  -27.2393  -45.1241 H         1 UNK         0.0600 
    197 H197        0.3577  -25.8958  -45.9785 H         1 UNK         0.0600 
    198 H198       -0.5555  -25.5107  -47.4355 H         1 UNK         0.0600 
    199 H199       -0.1021  -27.1725  -47.0938 H         1 UNK         0.0600 
    200 H200       -4.0662  -25.3857  -46.2713 H         1 UNK         0.3000 
    201 H201       -5.8935  -25.6495  -47.4611 H         1 UNK         0.0600 
    202 H202       -6.8761  -27.8957  -47.6620 H         1 UNK         0.0600 
    203 H203       -6.0845  -27.7499  -46.1023 H         1 UNK         0.0600 
    204 H204       -5.3128  -28.6570  -47.4029 H         1 UNK         0.0600 
    205 H205       -3.4267  -25.1510  -48.9016 H         1 UNK         0.3000 
    206 H206       -2.5800  -24.8769  -50.8877 H         1 UNK         0.0600 
    207 H207       -4.9240  -24.0214  -51.3968 H         1 UNK         0.0600 
    208 H208       -5.2909  -25.5834  -52.1208 H         1 UNK         0.0600 
    209 H209       -4.0332  -24.5650  -52.8103 H         1 UNK         0.0600 
    210 H210       -2.6026  -27.6854  -49.7214 H         1 UNK         0.3000 
    211 H211       -2.5095  -29.5463  -51.9255 H         1 UNK         0.0600 
    212 H212       -2.9953  -30.2503  -49.5908 H         1 UNK         0.0600 
    213 H213       -1.5666  -31.0706  -50.2055 H         1 UNK         0.0600 
    214 H214       -1.3919  -29.7337  -49.0760 H         1 UNK         0.0600 
    215 H215       -1.1443  -28.9018  -53.4971 H         1 UNK         0.3000 
    216 H216        0.6262  -28.5802  -54.7446 H         1 UNK         0.0600 
    217 H217        2.9102  -29.1856  -54.0665 H         1 UNK         0.0600 
    218 H218        2.4428  -29.2733  -52.3771 H         1 UNK         0.0600 
    219 H219        1.7903  -30.4310  -53.5369 H         1 UNK         0.0600 
    220 H220        0.5452  -26.9070  -51.6953 H         1 UNK         0.3000 
    221 H221        2.1957  -24.6509  -52.3762 H         1 UNK         0.0600 
    222 H222        0.0405  -24.9769  -50.2144 H         1 UNK         0.0600 
    223 H223        1.7334  -25.4303  -50.0386 H         1 UNK         0.0600 
    224 H224        1.3045  -23.7486  -50.2727 H         1 UNK         0.0600 
    225 H225        1.3423  -24.2219  -54.5193 H         1 UNK         0.3000 
    226 H226       -1.2916  -23.3955  -55.0890 H         1 UNK         0.0600 
    227 H227        0.3378  -24.1980  -56.7843 H         1 UNK         0.0600 
    228 H228       -0.2754  -22.6157  -57.2339 H         1 UNK         0.0600 
    229 H229        1.3348  -22.7635  -56.5396 H         1 UNK         0.0600 
    230 H230        1.0034  -21.6589  -53.3004 H         1 UNK         0.3000 
    231 H231        0.4187  -18.9588  -54.0781 H         1 UNK         0.0600 
    232 H232        1.6858  -18.4170  -51.9919 H         1 UNK         0.0600 
    233 H233        2.5334  -19.6208  -52.9474 H         1 UNK         0.0600 
    234 H234        1.6393  -20.1051  -51.5062 H         1 UNK         0.0600 
    235 H235       -1.5144  -21.1835  -52.3748 H         1 UNK         0.3000 
    236 H236       -2.6330  -19.8638  -50.2376 H         1 UNK         0.0600 
    237 H237       -4.5769  -21.3873  -50.5846 H         1 UNK         0.0600 
    238 H238       -3.9923  -21.7733  -52.2001 H         1 UNK         0.0600 
    239 H239       -3.0526  -22.2360  -50.7835 H         1 UNK         0.0600 
    240 H240       -3.7321  -18.0945  -49.9391 H         1 UNK         0.3000 
    241 H241       -4.8936  -16.2765  -50.1367 H         1 UNK         0.0600 
    242 H242       -2.5051  -15.2333  -53.0360 H         1 UNK         0.3800 
    243 H243       -2.4024  -16.7571  -52.1938 H         1 UNK         0.3800 
    244 H244       -6.9039  -16.0521  -51.5556 H         1 UNK         0.0800 
    245 H245       -6.4209  -17.4121  -52.5204 H         1 UNK         0.0800 
    246 H246       -8.3015  -16.0493  -49.6747 H         1 UNK         0.0800 
    247 H247       -8.9125  -17.4187  -48.7896 H         1 UNK         0.0800 
@<TRIPOS>BOND
     1    1    2 1    
     2    1  127 1    
     3    1  128 1    
     4    1  129 1    
     5    2    3 2    
     6    2    4 am   BACKBONE|DICT|INTERRES
     7    4    5 1    
     8    4  130 1    
     9    5    6 1    
    10    5   65 1    
    11    5  131 1    
    12    6    7 1    
    13    6  132 1    
    14    6  133 1    
    15    7    8 1    
    16    8    9 1    
    17    8  134 1    
    18    8  135 1    
    19    9   10 ar   
    20    9   14 ar   
    21   10   11 ar   
    22   10  136 1    
    23   11   12 ar   
    24   11  126 1    
    25   12   13 ar   
    26   12  137 1    
    27   13   14 ar   
    28   13   15 1    
    29   14  138 1    
    30   15   16 1    
    31   15  139 1    
    32   15  140 1    
    33   16   17 1    
    34   17   18 1    
    35   17  141 1    
    36   17  142 1    
    37   18   19 1    
    38   18   67 1    
    39   18  143 1    
    40   19   20 am   BACKBONE|DICT|INTERRES
    41   19  144 1    
    42   20   21 2    
    43   20   22 1    
    44   22   23 1    
    45   22   24 1    
    46   22  145 1    
    47   23  146 1    
    48   23  147 1    
    49   23  148 1    
    50   24   25 am   BACKBONE|DICT|INTERRES
    51   24  149 1    
    52   25   26 2    
    53   25   27 1    
    54   27   28 1    
    55   27   29 1    
    56   27  150 1    
    57   28  151 1    
    58   28  152 1    
    59   28  153 1    
    60   29   30 am   BACKBONE|DICT|INTERRES
    61   29  154 1    
    62   30   31 2    
    63   30   32 1    
    64   32   33 1    
    65   32   34 1    
    66   32  155 1    
    67   33  156 1    
    68   33  157 1    
    69   33  158 1    
    70   34   35 am   BACKBONE|DICT|INTERRES
    71   34  159 1    
    72   35   36 2    
    73   35   37 1    
    74   37   38 1    
    75   37   39 1    
    76   37  160 1    
    77   38  161 1    
    78   38  162 1    
    79   38  163 1    
    80   39   40 am   BACKBONE|DICT|INTERRES
    81   39  164 1    
    82   40   41 2    
    83   40   42 1    
    84   42   43 1    
    85   42   44 1    
    86   42  165 1    
    87   43  166 1    
    88   43  167 1    
    89   43  168 1    
    90   44   45 am   BACKBONE|DICT|INTERRES
    91   44  169 1    
    92   45   46 2    
    93   45   47 1    
    94   47   48 1    
    95   47   49 1    
    96   47  170 1    
    97   48  171 1    
    98   48  172 1    
    99   48  173 1    
   100   49   50 am   BACKBONE|DICT|INTERRES
   101   49  174 1    
   102   50   51 2    
   103   50   52 1    
   104   52   53 1    
   105   52   54 1    
   106   52  175 1    
   107   53  176 1    
   108   53  177 1    
   109   53  178 1    
   110   54   55 am   BACKBONE|DICT|INTERRES
   111   54  179 1    
   112   55   56 2    
   113   55   57 1    
   114   57   58 1    
   115   57   59 1    
   116   57  180 1    
   117   58  181 1    
   118   58  182 1    
   119   58  183 1    
   120   59   60 am   BACKBONE|DICT|INTERRES
   121   59  184 1    
   122   60   61 2    
   123   60   62 1    
   124   62   63 1    
   125   62   64 1    
   126   62  185 1    
   127   63  186 1    
   128   63  187 1    
   129   63  188 1    
   130   64   65 am   BACKBONE|DICT|INTERRES
   131   64  189 1    
   132   65   66 2    
   133   67   68 2    
   134   67   69 am   BACKBONE|DICT|INTERRES
   135   69   70 1    
   136   69  190 1    
   137   70   71 1    
   138   70   72 1    
   139   70  191 1    
   140   71  192 1    
   141   71  193 1    
   142   71  194 1    
   143   72   73 2    
   144   72   74 am   BACKBONE|DICT|INTERRES
   145   74   75 1    
   146   74  195 1    
   147   75   76 1    
   148   75   77 1    
   149   75  196 1    
   150   76  197 1    
   151   76  198 1    
   152   76  199 1    
   153   77   78 2    
   154   77   79 am   BACKBONE|DICT|INTERRES
   155   79   80 1    
   156   79  200 1    
   157   80   81 1    
   158   80   82 1    
   159   80  201 1    
   160   81  202 1    
   161   81  203 1    
   162   81  204 1    
   163   82   83 2    
   164   82   84 am   BACKBONE|DICT|INTERRES
   165   84   85 1    
   166   84  205 1    
   167   85   86 1    
   168   85   87 1    
   169   85  206 1    
   170   86  207 1    
   171   86  208 1    
   172   86  209 1    
   173   87   88 2    
   174   87   89 am   BACKBONE|DICT|INTERRES
   175   89   90 1    
   176   89  210 1    
   177   90   91 1    
   178   90   92 1    
   179   90  211 1    
   180   91  212 1    
   181   91  213 1    
   182   91  214 1    
   183   92   93 2    
   184   92   94 am   BACKBONE|DICT|INTERRES
   185   94   95 1    
   186   94  215 1    
   187   95   96 1    
   188   95   97 1    
   189   95  216 1    
   190   96  217 1    
   191   96  218 1    
   192   96  219 1    
   193   97   98 2    
   194   97   99 am   BACKBONE|DICT|INTERRES
   195   99  100 1    
   196   99  220 1    
   197  100  101 1    
   198  100  102 1    
   199  100  221 1    
   200  101  222 1    
   201  101  223 1    
   202  101  224 1    
   203  102  103 2    
   204  102  104 am   BACKBONE|DICT|INTERRES
   205  104  105 1    
   206  104  225 1    
   207  105  106 1    
   208  105  107 1    
   209  105  226 1    
   210  106  227 1    
   211  106  228 1    
   212  106  229 1    
   213  107  108 2    
   214  107  109 am   BACKBONE|DICT|INTERRES
   215  109  110 1    
   216  109  230 1    
   217  110  111 1    
   218  110  112 1    
   219  110  231 1    
   220  111  232 1    
   221  111  233 1    
   222  111  234 1    
   223  112  113 2    
   224  112  114 am   BACKBONE|DICT|INTERRES
   225  114  115 1    
   226  114  235 1    
   227  115  116 1    
   228  115  117 1    
   229  115  236 1    
   230  116  237 1    
   231  116  238 1    
   232  116  239 1    
   233  117  118 2    
   234  117  119 am   BACKBONE|DICT|INTERRES
   235  119  120 1    
   236  119  240 1    
   237  120  121 1    
   238  120  124 1    
   239  120  241 1    
   240  121  122 am   BACKBONE|DICT|INTERRES
   241  121  123 2    
   242  122  242 1    
   243  122  243 1    
   244  124  125 1    
   245  124  244 1    
   246  124  245 1    
   247  125  126 1    
   248  126  246 1    
   249  126  247 1    
@<TRIPOS>SUBSTRUCTURE
     1 UNK         1 GROUP             0       ****    0 ROOT    
