@<TRIPOS>MOLECULE
3R540
247   249    1
SMALL
USER_CHARGES


@<TRIPOS>ATOM
      1 CA          6.9698   -9.5367  -47.9369 C.3       0 UNK        -0.1800 
      2 C           6.0492  -10.6455  -47.4465 C.2       0 UNK         0.5000 
      3 O           6.2742  -11.1934  -46.3676 O.2       0 UNK        -0.5000 
      4 N           5.0212  -10.9791  -48.2385 N.am      1 UNK        -0.5000 
      5 CA          4.0026  -11.9873  -47.9233 C.3       1 UNK         0.1400 
      6 C6          3.1481  -12.3194  -49.1720 C.3       23 UNK        -0.0398 
      7 S7          2.1632  -13.8484  -49.0086 S.3       23 UNK        -0.2404 
      8 C8          2.7359  -14.7647  -50.4721 C.3       23 UNK        -0.0205 
      9 C9          1.9067  -16.0105  -50.7439 C.ar      23 UNK        -0.0193 
     10 C10         0.5870  -15.8890  -51.1883 C.ar      23 UNK        -0.1150 
     11 C11        -0.1601  -17.0214  -51.5273 C.ar      23 UNK        -0.0193 
     12 C12         0.4253  -18.2858  -51.4112 C.ar      23 UNK        -0.1150 
     13 C13         1.7412  -18.4227  -50.9585 C.ar      23 UNK        -0.0193 
     14 C14         2.4740  -17.2817  -50.6181 C.ar      23 UNK        -0.1150 
     15 C15         2.3877  -19.7978  -50.8746 C.3       23 UNK        -0.0205 
     16 S16         2.1780  -20.5540  -49.2337 S.3       23 UNK        -0.2404 
     17 C17         0.4147  -21.0104  -49.2799 C.3       23 UNK        -0.0398 
     18 CA          0.0468  -22.0758  -48.2217 C.3       11 UNK         0.1400 
     19 N           0.2825  -21.6212  -46.8490 N.am      11 UNK        -0.5000 
     20 C           0.1446  -22.3854  -45.7559 C.2       10 UNK         0.5000 
     21 O          -0.1297  -23.5853  -45.7843 O.2       10 UNK        -0.5000 
     22 CA          0.2758  -21.6734  -44.4011 C.3       10 UNK         0.1400 
     23 CB          1.7501  -21.5443  -43.9908 C.3       10 UNK        -0.1800 
     24 N          -0.3636  -20.3572  -44.4252 N.am      10 UNK        -0.5000 
     25 C          -1.6907  -20.1705  -44.4731 C.2       9 UNK         0.5000 
     26 O          -2.5086  -21.0897  -44.4516 O.2       9 UNK        -0.5000 
     27 CA         -2.1923  -18.7215  -44.6109 C.3       9 UNK         0.1400 
     28 CB         -2.2784  -18.0477  -43.2387 C.3       9 UNK        -0.1800 
     29 N          -1.3517  -17.9121  -45.4915 N.am      9 UNK        -0.5000 
     30 C          -1.2599  -18.1029  -46.8146 C.2       8 UNK         0.5000 
     31 O          -1.8826  -18.9714  -47.4237 O.2       8 UNK        -0.5000 
     32 CA         -0.2889  -17.1930  -47.5863 C.3       8 UNK         0.1400 
     33 CB         -1.0099  -15.8941  -47.9744 C.3       8 UNK        -0.1800 
     34 N           0.9485  -16.8698  -46.8686 N.am      8 UNK        -0.5000 
     35 C           1.7908  -17.7538  -46.3130 C.2       7 UNK         0.5000 
     36 O           1.5725  -18.9650  -46.2667 O.2       7 UNK        -0.5000 
     37 CA          3.0873  -17.2109  -45.6893 C.3       7 UNK         0.1400 
     38 CB          3.3107  -15.7018  -45.9035 C.3       7 UNK        -0.1800 
     39 N           3.0711  -17.4868  -44.2556 N.am      7 UNK        -0.5000 
     40 C           3.8492  -18.3830  -43.6338 C.2       6 UNK         0.5000 
     41 O           4.6701  -19.0921  -44.2176 O.2       6 UNK        -0.5000 
     42 CA          3.7271  -18.5009  -42.1002 C.3       6 UNK         0.1400 
     43 CB          5.0671  -18.1637  -41.4248 C.3       6 UNK        -0.1800 
     44 N           2.7010  -17.6219  -41.5383 N.am      6 UNK        -0.5000 
     45 C           1.4420  -17.9820  -41.2608 C.2       5 UNK         0.5000 
     46 O           0.9915  -19.1122  -41.4399 O.2       5 UNK        -0.5000 
     47 CA          0.5255  -16.8792  -40.6962 C.3       5 UNK         0.1400 
     48 CB          0.6332  -16.8353  -39.1643 C.3       5 UNK        -0.1800 
     49 N           0.7956  -15.5410  -41.2305 N.am      5 UNK        -0.5000 
     50 C           0.7876  -15.1809  -42.5219 C.2       4 UNK         0.5000 
     51 O           0.6006  -15.9603  -43.4619 O.2       4 UNK        -0.5000 
     52 CA          1.1172  -13.7008  -42.7843 C.3       4 UNK         0.1400 
     53 CB          2.6336  -13.4657  -42.6942 C.3       4 UNK        -0.1800 
     54 N           0.6409  -13.2150  -44.0774 N.am      4 UNK        -0.5000 
     55 C          -0.6479  -13.0455  -44.4106 C.2       3 UNK         0.5000 
     56 O          -1.5877  -13.3614  -43.6783 O.2       3 UNK        -0.5000 
     57 CA         -0.9229  -12.3668  -45.7746 C.3       3 UNK         0.1400 
     58 CB         -2.3385  -11.7632  -45.8792 C.3       3 UNK        -0.1800 
     59 N           0.0973  -11.3729  -46.1278 N.am      3 UNK        -0.5000 
     60 C           0.4718  -10.2988  -45.4140 C.2       2 UNK         0.5000 
     61 O          -0.1502   -9.8802  -44.4364 O.2       2 UNK        -0.5000 
     62 CA          1.7790   -9.5869  -45.8397 C.3       2 UNK         0.1400 
     63 CB          2.6473   -9.2247  -44.6172 C.3       2 UNK        -0.1800 
     64 N           2.5995  -10.3027  -46.8308 N.am      2 UNK        -0.5000 
     65 C           3.1217  -11.5381  -46.7390 C.2       1 UNK         0.5000 
     66 O           2.9236  -12.3038  -45.7949 O.2       1 UNK        -0.5000 
     67 C          -1.4084  -22.5464  -48.4115 C.2       11 UNK         0.5000 
     68 O          -1.6255  -23.6436  -48.9237 O.2       11 UNK        -0.5000 
     69 N          -2.3735  -21.7337  -47.9568 N.am      12 UNK        -0.5000 
     70 CA         -3.8011  -22.0484  -47.9848 C.3       12 UNK         0.1400 
     71 CB         -4.6156  -20.8248  -47.5424 C.3       12 UNK        -0.1800 
     72 C          -4.1592  -23.2794  -47.1361 C.2       12 UNK         0.5000 
     73 O          -4.9375  -24.1153  -47.5913 O.2       12 UNK        -0.5000 
     74 N          -3.5634  -23.3996  -45.9407 N.am      13 UNK        -0.5000 
     75 CA         -3.7155  -24.5584  -45.0583 C.3       13 UNK         0.1400 
     76 CB         -3.0320  -24.2869  -43.7102 C.3       13 UNK        -0.1800 
     77 C          -3.1877  -25.8580  -45.6932 C.2       13 UNK         0.5000 
     78 O          -3.8850  -26.8727  -45.6613 O.2       13 UNK        -0.5000 
     79 N          -1.9983  -25.7916  -46.3096 N.am      14 UNK        -0.5000 
     80 CA         -1.3873  -26.8917  -47.0614 C.3       14 UNK         0.1400 
     81 CB          0.0458  -26.5061  -47.4573 C.3       14 UNK        -0.1800 
     82 C          -2.2051  -27.3033  -48.3020 C.2       14 UNK         0.5000 
     83 O          -2.2612  -28.4891  -48.6287 O.2       14 UNK        -0.5000 
     84 N          -2.8568  -26.3239  -48.9413 N.am      15 UNK        -0.5000 
     85 CA         -3.7648  -26.5009  -50.0750 C.3       15 UNK         0.1400 
     86 CB         -3.7528  -25.2158  -50.9176 C.3       15 UNK        -0.1800 
     87 C          -5.2030  -26.8912  -49.6650 C.2       15 UNK         0.5000 
     88 O          -6.0750  -26.9360  -50.5327 O.2       15 UNK        -0.5000 
     89 N          -5.4370  -27.1644  -48.3720 N.am      16 UNK        -0.5000 
     90 CA         -6.7028  -27.5960  -47.7689 C.3       16 UNK         0.1400 
     91 CB         -7.1163  -28.9880  -48.2922 C.3       16 UNK        -0.1800 
     92 C          -7.8226  -26.5404  -47.8871 C.2       16 UNK         0.5000 
     93 O          -8.9537  -26.8676  -48.2498 O.2       16 UNK        -0.5000 
     94 N          -7.4702  -25.2889  -47.5644 N.am      17 UNK        -0.5000 
     95 CA         -8.3061  -24.0831  -47.5334 C.3       17 UNK         0.1400 
     96 CB         -9.5467  -24.2614  -46.6326 C.3       17 UNK        -0.1800 
     97 C          -8.6473  -23.5131  -48.9249 C.2       17 UNK         0.5000 
     98 O          -9.5053  -22.6337  -49.0256 O.2       17 UNK        -0.5000 
     99 N          -7.9487  -23.9791  -49.9677 N.am      18 UNK        -0.5000 
    100 CA        -7.9498  -23.3739  -51.2989 C.3       18 UNK         0.1400 
    101 CB        -7.5162  -24.4337  -52.3237 C.3       18 UNK        -0.1800 
    102 C         -7.0192  -22.1442  -51.3452 C.2       18 UNK         0.5000 
    103 O         -6.2691  -21.8931  -50.3999 O.2       18 UNK        -0.5000 
    104 N         -7.0608  -21.4082  -52.4634 N.am      19 UNK        -0.5000 
    105 CA        -6.2473  -20.2094  -52.7048 C.3       19 UNK         0.1400 
    106 CB        -6.8393  -19.4425  -53.8965 C.3       19 UNK        -0.1800 
    107 C         -4.7436  -20.4885  -52.9255 C.2       19 UNK         0.5000 
    108 O         -3.9508  -19.5456  -52.9140 O.2       19 UNK        -0.5000 
    109 N         -4.3752  -21.7651  -53.1124 N.am      20 UNK        -0.5000 
    110 CA        -3.0147  -22.2718  -53.2999 C.3       20 UNK         0.1400 
    111 CB        -2.1802  -22.0567  -52.0154 C.3       20 UNK        -0.1800 
    112 C         -2.3752  -21.6934  -54.5785 C.2       20 UNK         0.5000 
    113 O         -2.8973  -21.9287  -55.6693 O.2       20 UNK        -0.5000 
    114 N         -1.2682  -20.9557  -54.4290 N.am      21 UNK        -0.5000 
    115 CA        -0.5607  -20.2763  -55.5145 C.3       21 UNK         0.1400 
    116 CB         0.8482  -19.9061  -55.0225 C.3       21 UNK        -0.1800 
    117 C         -1.2912  -19.0216  -56.0361 C.2       21 UNK         0.5000 
    118 O         -0.9940  -18.5756  -57.1457 O.2       21 UNK        -0.5000 
    119 N         -2.2035  -18.4631  -55.2321 N.am      22 UNK        -0.5000 
    120 CA        -2.9773  -17.2553  -55.5500 C.3       22 UNK         0.1400 
    121 C         -4.2831  -17.5730  -56.3322 C.2       22 UNK         0.5000 
    122 N         -4.9392  -16.5610  -56.8845 N.am      22 UNK        -0.7600 
    123 O         -4.7185  -18.7162  -56.4469 O.2       22 UNK        -0.5000 
    124 C124       -3.2524  -16.4145  -54.2757 C.3       23 UNK        -0.0398 
    125 S125       -1.6988  -15.8332  -53.5108 S.3       23 UNK        -0.2404 
    126 C126       -1.5932  -16.8834  -52.0247 C.3       23 UNK        -0.0205 
    127 H127        6.6590   -9.1499  -48.9077 H         1 UNK         0.0600 
    128 H128        7.9898   -9.9095  -48.0304 H         1 UNK         0.0600 
    129 H129        6.9717   -8.7098  -47.2266 H         1 UNK         0.0600 
    130 H130        4.9057  -10.4926  -49.1162 H         1 UNK         0.3000 
    131 H131        4.5282  -12.8955  -47.6191 H         1 UNK         0.0600 
    132 H132        2.4752  -11.4982  -49.4250 H         1 UNK         0.0800 
    133 H133        3.8080  -12.4267  -50.0340 H         1 UNK         0.0800 
    134 H134        3.7884  -15.0212  -50.3419 H         1 UNK         0.0800 
    135 H135        2.6812  -14.1173  -51.3487 H         1 UNK         0.0800 
    136 H136        0.1463  -14.9070  -51.2891 H         1 UNK         0.1150 
    137 H137       -0.1410  -19.1656  -51.6794 H         1 UNK         0.1150 
    138 H138        3.4960  -17.3842  -50.2814 H         1 UNK         0.1150 
    139 H139        1.9848  -20.4580  -51.6441 H         1 UNK         0.0800 
    140 H140        3.4551  -19.7126  -51.0836 H         1 UNK         0.0800 
    141 H141        0.1904  -21.3866  -50.2790 H         1 UNK         0.0800 
    142 H142       -0.1817  -20.1075  -49.1478 H         1 UNK         0.0800 
    143 H143        0.6869  -22.9454  -48.3856 H         1 UNK         0.0600 
    144 H144        0.5669  -20.6534  -46.7308 H         1 UNK         0.3000 
    145 H145       -0.2288  -22.2845  -43.6499 H         1 UNK         0.0600 
    146 H146        1.8460  -21.0967  -43.0028 H         1 UNK         0.0600 
    147 H147        2.2277  -22.5238  -43.9487 H         1 UNK         0.0600 
    148 H148        2.3184  -20.9356  -44.6939 H         1 UNK         0.0600 
    149 H149        0.2481  -19.5592  -44.5303 H         1 UNK         0.3000 
    150 H150       -3.1974  -18.7544  -45.0366 H         1 UNK         0.0600 
    151 H151       -2.9318  -18.6042  -42.5657 H         1 UNK         0.0600 
    152 H152       -2.6676  -17.0322  -43.3144 H         1 UNK         0.0600 
    153 H153       -1.2939  -17.9990  -42.7803 H         1 UNK         0.0600 
    154 H154       -0.7837  -17.1955  -45.0573 H         1 UNK         0.3000 
    155 H155       -0.0002  -17.7142  -48.5003 H         1 UNK         0.0600 
    156 H156       -1.8849  -16.1058  -48.5901 H         1 UNK         0.0600 
    157 H157       -0.3659  -15.2324  -48.5503 H         1 UNK         0.0600 
    158 H158       -1.3537  -15.3512  -47.0942 H         1 UNK         0.0600 
    159 H159        1.2124  -15.8959  -46.8568 H         1 UNK         0.3000 
    160 H160        3.9104  -17.7375  -46.1759 H         1 UNK         0.0600 
    161 H161        2.4914  -15.1010  -45.5079 H         1 UNK         0.0600 
    162 H162        3.4196  -15.4728  -46.9628 H         1 UNK         0.0600 
    163 H163        4.2264  -15.3692  -45.4146 H         1 UNK         0.0600 
    164 H164        2.3548  -17.0042  -43.7253 H         1 UNK         0.3000 
    165 H165        3.4885  -19.5419  -41.8733 H         1 UNK         0.0600 
    166 H166        5.0023  -18.2773  -40.3424 H         1 UNK         0.0600 
    167 H167        5.8608  -18.8272  -41.7707 H         1 UNK         0.0600 
    168 H168        5.3787  -17.1402  -41.6372 H         1 UNK         0.0600 
    169 H169        2.9761  -16.6677  -41.3572 H         1 UNK         0.3000 
    170 H170       -0.5051  -17.1307  -40.9430 H         1 UNK         0.0600 
    171 H171        0.4142  -17.8114  -38.7291 H         1 UNK         0.0600 
    172 H172        1.6335  -16.5478  -38.8380 H         1 UNK         0.0600 
    173 H173       -0.0766  -16.1261  -38.7380 H         1 UNK         0.0600 
    174 H174        0.9787  -14.8279  -40.5393 H         1 UNK         0.3000 
    175 H175        0.6303  -13.1028  -42.0111 H         1 UNK         0.0600 
    176 H176        2.8780  -12.4139  -42.8438 H         1 UNK         0.0600 
    177 H177        3.0225  -13.7501  -41.7159 H         1 UNK         0.0600 
    178 H178        3.1779  -14.0416  -43.4426 H         1 UNK         0.0600 
    179 H179        1.3593  -12.9251  -44.7342 H         1 UNK         0.3000 
    180 H180       -0.8443  -13.1528  -46.5250 H         1 UNK         0.0600 
    181 H181       -2.5136  -11.0048  -45.1158 H         1 UNK         0.0600 
    182 H182       -3.1013  -12.5328  -45.7563 H         1 UNK         0.0600 
    183 H183       -2.4990  -11.3020  -46.8536 H         1 UNK         0.0600 
    184 H184        0.6864  -11.6216  -46.9090 H         1 UNK         0.3000 
    185 H185        1.4704   -8.6552  -46.3158 H         1 UNK         0.0600 
    186 H186        2.1100   -8.5715  -43.9287 H         1 UNK         0.0600 
    187 H187        2.9471  -10.1126  -44.0596 H         1 UNK         0.0600 
    188 H188        3.5529   -8.6984  -44.9190 H         1 UNK         0.0600 
    189 H189        2.8234   -9.7667  -47.6574 H         1 UNK         0.3000 
    190 H190       -2.1214  -20.8192  -47.5893 H         1 UNK         0.3000 
    191 H191       -4.0639  -22.2751  -49.0191 H         1 UNK         0.0600 
    192 H192       -4.3694  -20.5219  -46.5244 H         1 UNK         0.0600 
    193 H193       -5.6851  -21.0370  -47.5767 H         1 UNK         0.0600 
    194 H194       -4.4337  -19.9746  -48.2000 H         1 UNK         0.0600 
    195 H195       -2.9776  -22.6426  -45.6023 H         1 UNK         0.3000 
    196 H196       -4.7832  -24.6926  -44.8723 H         1 UNK         0.0600 
    197 H197       -3.1512  -25.1345  -43.0343 H         1 UNK         0.0600 
    198 H198       -3.4647  -23.4159  -43.2180 H         1 UNK         0.0600 
    199 H199       -1.9633  -24.1082  -43.8272 H         1 UNK         0.0600 
    200 H200       -1.4703  -24.9240  -46.2662 H         1 UNK         0.3000 
    201 H201       -1.3353  -27.7581  -46.3989 H         1 UNK         0.0600 
    202 H202        0.6520  -26.2880  -46.5779 H         1 UNK         0.0600 
    203 H203        0.0629  -25.6257  -48.1003 H         1 UNK         0.0600 
    204 H204        0.5347  -27.3178  -47.9972 H         1 UNK         0.0600 
    205 H205       -2.7013  -25.3674  -48.6397 H         1 UNK         0.3000 
    206 H206       -3.3834  -27.3100  -50.7009 H         1 UNK         0.0600 
    207 H207       -2.7338  -24.9273  -51.1746 H         1 UNK         0.0600 
    208 H208       -4.2876  -25.3577  -51.8561 H         1 UNK         0.0600 
    209 H209       -4.2177  -24.3825  -50.3893 H         1 UNK         0.0600 
    210 H210       -4.6681  -27.0548  -47.7221 H         1 UNK         0.3000 
    211 H211       -6.5035  -27.7000  -46.7014 H         1 UNK         0.0600 
    212 H212       -7.3833  -28.9637  -49.3490 H         1 UNK         0.0600 
    213 H213       -7.9807  -29.3681  -47.7467 H         1 UNK         0.0600 
    214 H214       -6.3106  -29.7112  -48.1661 H         1 UNK         0.0600 
    215 H215       -6.4832  -25.1058  -47.3912 H         1 UNK         0.3000 
    216 H216       -7.6818  -23.3224  -47.0625 H         1 UNK         0.0600 
    217 H217      -10.0423  -23.3056  -46.4589 H         1 UNK         0.0600 
    218 H218       -9.2731  -24.6644  -45.6576 H         1 UNK         0.0600 
    219 H219      -10.2832  -24.9291  -47.0799 H         1 UNK         0.0600 
    220 H220       -7.2478  -24.6851  -49.7929 H         1 UNK         0.3000 
    221 H221       -8.9626  -23.0480  -51.5448 H         1 UNK         0.0600 
    222 H222       -6.4828  -24.7403  -52.1707 H         1 UNK         0.0600 
    223 H223       -8.1400  -25.3254  -52.2562 H         1 UNK         0.0600 
    224 H224       -7.6000  -24.0587  -53.3441 H         1 UNK         0.0600 
    225 H225       -7.6950  -21.6738  -53.2033 H         1 UNK         0.3000 
    226 H226       -6.3227  -19.5692  -51.8233 H         1 UNK         0.0600 
    227 H227       -7.8849  -19.1869  -53.7246 H         1 UNK         0.0600 
    228 H228       -6.3027  -18.5077  -54.0635 H         1 UNK         0.0600 
    229 H229       -6.7794  -20.0234  -54.8178 H         1 UNK         0.0600 
    230 H230       -5.1087  -22.4566  -53.1468 H         1 UNK         0.3000 
    231 H231       -3.1040  -23.3473  -53.4590 H         1 UNK         0.0600 
    232 H232       -1.2143  -22.5584  -52.0837 H         1 UNK         0.0600 
    233 H233       -2.6973  -22.4725  -51.1523 H         1 UNK         0.0600 
    234 H234       -2.0011  -21.0030  -51.8004 H         1 UNK         0.0600 
    235 H235       -0.9097  -20.8131  -53.4976 H         1 UNK         0.3000 
    236 H236       -0.4600  -20.9716  -56.3506 H         1 UNK         0.0600 
    237 H237        1.4326  -19.4491  -55.8221 H         1 UNK         0.0600 
    238 H238        0.8124  -19.1936  -54.1976 H         1 UNK         0.0600 
    239 H239        1.3952  -20.7864  -54.6846 H         1 UNK         0.0600 
    240 H240       -2.4643  -18.9359  -54.3758 H         1 UNK         0.3000 
    241 H241       -2.3756  -16.6366  -56.2189 H         1 UNK         0.0600 
    242 H242       -5.7877  -16.7525  -57.3946 H         1 UNK         0.3800 
    243 H243       -4.6041  -15.6117  -56.8254 H         1 UNK         0.3800 
    244 H244       -3.8406  -15.5284  -54.5185 H         1 UNK         0.0800 
    245 H245       -3.8443  -16.9777  -53.5532 H         1 UNK         0.0800 
    246 H246       -2.0064  -17.8673  -52.2475 H         1 UNK         0.0800 
    247 H247       -2.2131  -16.4573  -51.2350 H         1 UNK         0.0800 
@<TRIPOS>BOND
     1    1    2 1    
     2    1  127 1    
     3    1  128 1    
     4    1  129 1    
     5    2    3 2    
     6    2    4 am   BACKBONE|DICT|INTERRES
     7    4    5 1    
     8    4  130 1    
     9    5    6 1    
    10    5   65 1    
    11    5  131 1    
    12    6    7 1    
    13    6  132 1    
    14    6  133 1    
    15    7    8 1    
    16    8    9 1    
    17    8  134 1    
    18    8  135 1    
    19    9   10 ar   
    20    9   14 ar   
    21   10   11 ar   
    22   10  136 1    
    23   11   12 ar   
    24   11  126 1    
    25   12   13 ar   
    26   12  137 1    
    27   13   14 ar   
    28   13   15 1    
    29   14  138 1    
    30   15   16 1    
    31   15  139 1    
    32   15  140 1    
    33   16   17 1    
    34   17   18 1    
    35   17  141 1    
    36   17  142 1    
    37   18   19 1    
    38   18   67 1    
    39   18  143 1    
    40   19   20 am   BACKBONE|DICT|INTERRES
    41   19  144 1    
    42   20   21 2    
    43   20   22 1    
    44   22   23 1    
    45   22   24 1    
    46   22  145 1    
    47   23  146 1    
    48   23  147 1    
    49   23  148 1    
    50   24   25 am   BACKBONE|DICT|INTERRES
    51   24  149 1    
    52   25   26 2    
    53   25   27 1    
    54   27   28 1    
    55   27   29 1    
    56   27  150 1    
    57   28  151 1    
    58   28  152 1    
    59   28  153 1    
    60   29   30 am   BACKBONE|DICT|INTERRES
    61   29  154 1    
    62   30   31 2    
    63   30   32 1    
    64   32   33 1    
    65   32   34 1    
    66   32  155 1    
    67   33  156 1    
    68   33  157 1    
    69   33  158 1    
    70   34   35 am   BACKBONE|DICT|INTERRES
    71   34  159 1    
    72   35   36 2    
    73   35   37 1    
    74   37   38 1    
    75   37   39 1    
    76   37  160 1    
    77   38  161 1    
    78   38  162 1    
    79   38  163 1    
    80   39   40 am   BACKBONE|DICT|INTERRES
    81   39  164 1    
    82   40   41 2    
    83   40   42 1    
    84   42   43 1    
    85   42   44 1    
    86   42  165 1    
    87   43  166 1    
    88   43  167 1    
    89   43  168 1    
    90   44   45 am   BACKBONE|DICT|INTERRES
    91   44  169 1    
    92   45   46 2    
    93   45   47 1    
    94   47   48 1    
    95   47   49 1    
    96   47  170 1    
    97   48  171 1    
    98   48  172 1    
    99   48  173 1    
   100   49   50 am   BACKBONE|DICT|INTERRES
   101   49  174 1    
   102   50   51 2    
   103   50   52 1    
   104   52   53 1    
   105   52   54 1    
   106   52  175 1    
   107   53  176 1    
   108   53  177 1    
   109   53  178 1    
   110   54   55 am   BACKBONE|DICT|INTERRES
   111   54  179 1    
   112   55   56 2    
   113   55   57 1    
   114   57   58 1    
   115   57   59 1    
   116   57  180 1    
   117   58  181 1    
   118   58  182 1    
   119   58  183 1    
   120   59   60 am   BACKBONE|DICT|INTERRES
   121   59  184 1    
   122   60   61 2    
   123   60   62 1    
   124   62   63 1    
   125   62   64 1    
   126   62  185 1    
   127   63  186 1    
   128   63  187 1    
   129   63  188 1    
   130   64   65 am   BACKBONE|DICT|INTERRES
   131   64  189 1    
   132   65   66 2    
   133   67   68 2    
   134   67   69 am   BACKBONE|DICT|INTERRES
   135   69   70 1    
   136   69  190 1    
   137   70   71 1    
   138   70   72 1    
   139   70  191 1    
   140   71  192 1    
   141   71  193 1    
   142   71  194 1    
   143   72   73 2    
   144   72   74 am   BACKBONE|DICT|INTERRES
   145   74   75 1    
   146   74  195 1    
   147   75   76 1    
   148   75   77 1    
   149   75  196 1    
   150   76  197 1    
   151   76  198 1    
   152   76  199 1    
   153   77   78 2    
   154   77   79 am   BACKBONE|DICT|INTERRES
   155   79   80 1    
   156   79  200 1    
   157   80   81 1    
   158   80   82 1    
   159   80  201 1    
   160   81  202 1    
   161   81  203 1    
   162   81  204 1    
   163   82   83 2    
   164   82   84 am   BACKBONE|DICT|INTERRES
   165   84   85 1    
   166   84  205 1    
   167   85   86 1    
   168   85   87 1    
   169   85  206 1    
   170   86  207 1    
   171   86  208 1    
   172   86  209 1    
   173   87   88 2    
   174   87   89 am   BACKBONE|DICT|INTERRES
   175   89   90 1    
   176   89  210 1    
   177   90   91 1    
   178   90   92 1    
   179   90  211 1    
   180   91  212 1    
   181   91  213 1    
   182   91  214 1    
   183   92   93 2    
   184   92   94 am   BACKBONE|DICT|INTERRES
   185   94   95 1    
   186   94  215 1    
   187   95   96 1    
   188   95   97 1    
   189   95  216 1    
   190   96  217 1    
   191   96  218 1    
   192   96  219 1    
   193   97   98 2    
   194   97   99 am   BACKBONE|DICT|INTERRES
   195   99  100 1    
   196   99  220 1    
   197  100  101 1    
   198  100  102 1    
   199  100  221 1    
   200  101  222 1    
   201  101  223 1    
   202  101  224 1    
   203  102  103 2    
   204  102  104 am   BACKBONE|DICT|INTERRES
   205  104  105 1    
   206  104  225 1    
   207  105  106 1    
   208  105  107 1    
   209  105  226 1    
   210  106  227 1    
   211  106  228 1    
   212  106  229 1    
   213  107  108 2    
   214  107  109 am   BACKBONE|DICT|INTERRES
   215  109  110 1    
   216  109  230 1    
   217  110  111 1    
   218  110  112 1    
   219  110  231 1    
   220  111  232 1    
   221  111  233 1    
   222  111  234 1    
   223  112  113 2    
   224  112  114 am   BACKBONE|DICT|INTERRES
   225  114  115 1    
   226  114  235 1    
   227  115  116 1    
   228  115  117 1    
   229  115  236 1    
   230  116  237 1    
   231  116  238 1    
   232  116  239 1    
   233  117  118 2    
   234  117  119 am   BACKBONE|DICT|INTERRES
   235  119  120 1    
   236  119  240 1    
   237  120  121 1    
   238  120  124 1    
   239  120  241 1    
   240  121  122 am   BACKBONE|DICT|INTERRES
   241  121  123 2    
   242  122  242 1    
   243  122  243 1    
   244  124  125 1    
   245  124  244 1    
   246  124  245 1    
   247  125  126 1    
   248  126  246 1    
   249  126  247 1    
@<TRIPOS>SUBSTRUCTURE
     1 UNK         1 GROUP             0       ****    0 ROOT    
