@<TRIPOS>MOLECULE
3R540
247   249    1
SMALL
USER_CHARGES


@<TRIPOS>ATOM
      1 CA          8.1401  -16.0510  -48.1035 C.3       0 UNK        -0.1800 
      2 C           7.1240  -14.9851  -47.7184 C.2       0 UNK         0.5000 
      3 O           7.3634  -13.8011  -47.9551 O.2       0 UNK        -0.5000 
      4 N           5.9997  -15.4048  -47.1198 N.am      1 UNK        -0.5000 
      5 CA          4.8713  -14.5628  -46.6864 C.3       1 UNK         0.1400 
      6 C6          4.1437  -13.8349  -47.8540 C.3       23 UNK        -0.0398 
      7 S7          3.5895  -14.9718  -49.1729 S.3       23 UNK        -0.2404 
      8 C8          1.9107  -15.3532  -48.5858 C.3       23 UNK        -0.0205 
      9 C9          1.2335  -16.4633  -49.3812 C.ar      23 UNK        -0.0193 
     10 C10        -0.0443  -16.2655  -49.9136 C.ar      23 UNK        -0.1150 
     11 C11        -0.7245  -17.3141  -50.5392 C.ar      23 UNK        -0.0193 
     12 C12        -0.1107  -18.5651  -50.6445 C.ar      23 UNK        -0.1150 
     13 C13         1.1738  -18.7775  -50.1352 C.ar      23 UNK        -0.0193 
     14 C14         1.8419  -17.7163  -49.5112 C.ar      23 UNK        -0.1150 
     15 C15         1.8074  -20.1622  -50.2710 C.3       23 UNK        -0.0205 
     16 S16         2.8416  -20.6925  -48.8577 S.3       23 UNK        -0.2404 
     17 C17         1.7430  -20.4192  -47.4246 C.3       23 UNK        -0.0398 
     18 CA          0.9942  -21.6756  -46.9262 C.3       11 UNK         0.1400 
     19 N           0.3938  -21.4292  -45.6153 N.am      11 UNK        -0.5000 
     20 C          -0.2390  -22.3306  -44.8543 C.2       10 UNK         0.5000 
     21 O          -0.4198  -23.5035  -45.1816 O.2       10 UNK        -0.5000 
     22 CA         -0.7864  -21.8175  -43.5113 C.3       10 UNK         0.1400 
     23 CB          0.3462  -21.6284  -42.4905 C.3       10 UNK        -0.1800 
     24 N          -1.5174  -20.5602  -43.6628 N.am      10 UNK        -0.5000 
     25 C          -2.7096  -20.4524  -44.2651 C.2       9 UNK         0.5000 
     26 O          -3.3318  -21.4071  -44.7304 O.2       9 UNK        -0.5000 
     27 CA         -3.2886  -19.0321  -44.3991 C.3       9 UNK         0.1400 
     28 CB         -3.9192  -18.5759  -43.0747 C.3       9 UNK        -0.1800 
     29 N          -2.3000  -18.0439  -44.8331 N.am      9 UNK        -0.5000 
     30 C          -1.6212  -18.1057  -45.9874 C.2       8 UNK         0.5000 
     31 O          -1.7490  -19.0062  -46.8132 O.2       8 UNK        -0.5000 
     32 CA         -0.5854  -17.0035  -46.2469 C.3       8 UNK         0.1400 
     33 CB         -1.2791  -15.7146  -46.7106 C.3       8 UNK        -0.1800 
     34 N           0.2680  -16.7240  -45.0927 N.am      8 UNK        -0.5000 
     35 C           1.0316  -17.6265  -44.4595 C.2       7 UNK         0.5000 
     36 O           1.0897  -18.8170  -44.7614 O.2       7 UNK        -0.5000 
     37 CA          1.8374  -17.1195  -43.2565 C.3       7 UNK         0.1400 
     38 CB          3.0813  -16.3431  -43.7172 C.3       7 UNK        -0.1800 
     39 N           1.0082  -16.2930  -42.3815 N.am      7 UNK        -0.5000 
     40 C           0.0421  -16.7844  -41.5915 C.2       6 UNK         0.5000 
     41 O          -0.1805  -17.9871  -41.4461 O.2       6 UNK        -0.5000 
     42 CA         -0.8535  -15.7568  -40.8776 C.3       6 UNK         0.1400 
     43 CB         -0.2385  -15.3321  -39.5364 C.3       6 UNK        -0.1800 
     44 N          -1.1089  -14.5726  -41.7000 N.am      6 UNK        -0.5000 
     45 C          -1.8780  -14.5801  -42.7989 C.2       5 UNK         0.5000 
     46 O          -2.4497  -15.5842  -43.2236 O.2       5 UNK        -0.5000 
     47 CA         -2.0061  -13.2563  -43.5761 C.3       5 UNK         0.1400 
     48 CB         -3.1676  -12.4194  -43.0203 C.3       5 UNK        -0.1800 
     49 N          -0.7872  -12.4458  -43.5774 N.am      5 UNK        -0.5000 
     50 C           0.4049  -12.8323  -44.0513 C.2       4 UNK         0.5000 
     51 O           0.6207  -13.9480  -44.5276 O.2       4 UNK        -0.5000 
     52 CA          1.5677  -11.8248  -43.9571 C.3       4 UNK         0.1400 
     53 CB          1.1568  -10.4191  -43.4638 C.3       4 UNK        -0.1800 
     54 N           2.6680  -12.3466  -43.1433 N.am      4 UNK        -0.5000 
     55 C           2.6111  -12.7597  -41.8668 C.2       3 UNK         0.5000 
     56 O           1.5711  -12.7797  -41.2062 O.2       3 UNK        -0.5000 
     57 CA          3.9257  -13.2440  -41.2191 C.3       3 UNK         0.1400 
     58 CB          3.7082  -14.4810  -40.3293 C.3       3 UNK        -0.1800 
     59 N           4.9600  -13.5387  -42.2163 N.am      3 UNK        -0.5000 
     60 C           5.9481  -12.7033  -42.5621 C.2       2 UNK         0.5000 
     61 O           6.1234  -11.5975  -42.0493 O.2       2 UNK        -0.5000 
     62 CA          6.8882  -13.1698  -43.6901 C.3       2 UNK         0.1400 
     63 CB          8.0842  -13.9382  -43.1077 C.3       2 UNK        -0.1800 
     64 N           6.2496  -13.9941  -44.7223 N.am      2 UNK        -0.5000 
     65 C           5.2568  -13.5994  -45.5351 C.2       1 UNK         0.5000 
     66 O           4.6586  -12.5315  -45.3963 O.2       1 UNK        -0.5000 
     67 C          -0.0444  -22.1659  -47.9516 C.2       11 UNK         0.5000 
     68 O           0.1757  -23.1931  -48.5925 O.2       11 UNK        -0.5000 
     69 N          -1.1695  -21.4480  -48.0700 N.am      12 UNK        -0.5000 
     70 CA         -2.2437  -21.7633  -49.0079 C.3       12 UNK         0.1400 
     71 CB         -3.2277  -20.5890  -49.0791 C.3       12 UNK        -0.1800 
     72 C          -2.9762  -23.0704  -48.6680 C.2       12 UNK         0.5000 
     73 O          -3.4343  -23.7496  -49.5862 O.2       12 UNK        -0.5000 
     74 N          -3.0600  -23.4143  -47.3758 N.am      13 UNK        -0.5000 
     75 CA         -3.5924  -24.6933  -46.9103 C.3       13 UNK         0.1400 
     76 CB         -3.8857  -24.6219  -45.4046 C.3       13 UNK        -0.1800 
     77 C          -2.6398  -25.8575  -47.2343 C.2       13 UNK         0.5000 
     78 O          -3.0929  -26.8861  -47.7361 O.2       13 UNK        -0.5000 
     79 N          -1.3385  -25.6644  -46.9729 N.am      14 UNK        -0.5000 
     80 CA         -0.2795  -26.6413  -47.2356 C.3       14 UNK         0.1400 
     81 CB          1.0278  -26.1660  -46.5832 C.3       14 UNK        -0.1800 
     82 C          -0.0707  -26.9170  -48.7361 C.2       14 UNK         0.5000 
     83 O           0.0719  -28.0756  -49.1285 O.2       14 UNK        -0.5000 
     84 N          -0.0772  -25.8518  -49.5481 N.am      15 UNK        -0.5000 
     85 CA          0.0570  -25.9127  -51.0052 C.3       15 UNK         0.1400 
     86 CB          0.4945  -24.5296  -51.5163 C.3       15 UNK        -0.1800 
     87 C          -1.2347  -26.3532  -51.7221 C.2       15 UNK         0.5000 
     88 O          -1.1774  -26.6847  -52.9063 O.2       15 UNK        -0.5000 
     89 N          -2.3724  -26.3007  -51.0118 N.am      16 UNK        -0.5000 
     90 CA         -3.7478  -26.4995  -51.4896 C.3       16 UNK         0.1400 
     91 CB         -3.9545  -27.9211  -52.0503 C.3       16 UNK        -0.1800 
     92 C          -4.2265  -25.3979  -52.4627 C.2       16 UNK         0.5000 
     93 O          -5.2444  -25.5673  -53.1351 O.2       16 UNK        -0.5000 
     94 N          -3.5108  -24.2651  -52.4860 N.am      17 UNK        -0.5000 
     95 CA         -3.8222  -23.0653  -53.2601 C.3       17 UNK         0.1400 
     96 CB         -2.5940  -22.1429  -53.2636 C.3       17 UNK        -0.1800 
     97 C          -5.0550  -22.3145  -52.7269 C.2       17 UNK         0.5000 
     98 O          -5.6689  -21.5580  -53.4820 O.2       17 UNK        -0.5000 
     99 N          -5.4106  -22.5426  -51.4525 N.am      18 UNK        -0.5000 
    100 CA        -6.5895  -21.9889  -50.7797 C.3       18 UNK         0.1400 
    101 CB        -6.6085  -22.4516  -49.3144 C.3       18 UNK        -0.1800 
    102 C         -7.9180  -22.3543  -51.4666 C.2       18 UNK         0.5000 
    103 O         -8.8363  -21.5351  -51.4787 O.2       18 UNK        -0.5000 
    104 N         -7.9759  -23.5461  -52.0788 N.am      19 UNK        -0.5000 
    105 CA        -9.1162  -24.0358  -52.8587 C.3       19 UNK         0.1400 
    106 CB        -8.8855  -25.5160  -53.1987 C.3       19 UNK        -0.1800 
    107 C         -9.3805  -23.2221  -54.1429 C.2       19 UNK         0.5000 
    108 O        -10.5102  -23.2163  -54.6326 O.2       19 UNK        -0.5000 
    109 N         -8.3441  -22.5413  -54.6485 N.am      20 UNK        -0.5000 
    110 CA        -8.3923  -21.6455  -55.8031 C.3       20 UNK         0.1400 
    111 CB        -7.2530  -22.0364  -56.7604 C.3       20 UNK        -0.1800 
    112 C         -8.3021  -20.1613  -55.3867 C.2       20 UNK         0.5000 
    113 O         -8.1732  -19.3047  -56.2619 O.2       20 UNK        -0.5000 
    114 N         -8.3700  -19.8818  -54.0734 N.am      21 UNK        -0.5000 
    115 CA        -8.2422  -18.5694  -53.4296 C.3       21 UNK         0.1400 
    116 CB        -9.4376  -17.6621  -53.7892 C.3       21 UNK        -0.1800 
    117 C         -6.8718  -17.9162  -53.7073 C.2       21 UNK         0.5000 
    118 O         -6.8056  -16.7980  -54.2212 O.2       21 UNK        -0.5000 
    119 N         -5.8045  -18.6515  -53.3686 N.am      22 UNK        -0.5000 
    120 CA        -4.4013  -18.3513  -53.6983 C.3       22 UNK         0.1400 
    121 C         -4.0711  -18.6906  -55.1820 C.2       22 UNK         0.5000 
    122 N         -4.5308  -19.8337  -55.6758 N.am      22 UNK        -0.7600 
    123 O         -3.4085  -17.9373  -55.8904 O.2       22 UNK        -0.5000 
    124 C124       -3.9297  -16.9440  -53.2255 C.3       23 UNK        -0.0398 
    125 S125       -2.1379  -16.8807  -52.8756 S.3       23 UNK        -0.2404 
    126 C126       -2.1343  -17.1111  -51.0735 C.3       23 UNK        -0.0205 
    127 H127        9.0877  -15.8665  -47.5973 H         1 UNK         0.0600 
    128 H128        8.3166  -16.0290  -49.1789 H         1 UNK         0.0600 
    129 H129        7.8005  -17.0518  -47.8356 H         1 UNK         0.0600 
    130 H130        5.8753  -16.3962  -46.9694 H         1 UNK         0.3000 
    131 H131        4.1487  -15.2511  -46.2487 H         1 UNK         0.0600 
    132 H132        4.7979  -13.0873  -48.3047 H         1 UNK         0.0800 
    133 H133        3.2759  -13.2853  -47.4848 H         1 UNK         0.0800 
    134 H134        1.9575  -15.6594  -47.5399 H         1 UNK         0.0800 
    135 H135        1.3149  -14.4396  -48.6153 H         1 UNK         0.0800 
    136 H136       -0.5257  -15.3030  -49.8127 H         1 UNK         0.1150 
    137 H137       -0.6401  -19.3758  -51.1252 H         1 UNK         0.1150 
    138 H138        2.8291  -17.8690  -49.0991 H         1 UNK         0.1150 
    139 H139        1.0342  -20.9159  -50.4274 H         1 UNK         0.0800 
    140 H140        2.4238  -20.1699  -51.1705 H         1 UNK         0.0800 
    141 H141        1.0418  -19.6068  -47.6144 H         1 UNK         0.0800 
    142 H142        2.3944  -20.0563  -46.6292 H         1 UNK         0.0800 
    143 H143        1.7249  -22.4759  -46.7924 H         1 UNK         0.0600 
    144 H144        0.5005  -20.4831  -45.2545 H         1 UNK         0.3000 
    145 H145       -1.4738  -22.5708  -43.1203 H         1 UNK         0.0600 
    146 H146       -0.0473  -21.3358  -41.5168 H         1 UNK         0.0600 
    147 H147        0.9053  -22.5545  -42.3514 H         1 UNK         0.0600 
    148 H148        1.0535  -20.8606  -42.8069 H         1 UNK         0.0600 
    149 H149       -1.0606  -19.7213  -43.3318 H         1 UNK         0.3000 
    150 H150       -4.0740  -19.0673  -45.1569 H         1 UNK         0.0600 
    151 H151       -4.6547  -19.2992  -42.7203 H         1 UNK         0.0600 
    152 H152       -4.4328  -17.6216  -43.1923 H         1 UNK         0.0600 
    153 H153       -3.1687  -18.4562  -42.2921 H         1 UNK         0.0600 
    154 H154       -2.1604  -17.2427  -44.2239 H         1 UNK         0.3000 
    155 H155        0.0646  -17.3543  -47.0482 H         1 UNK         0.0600 
    156 H156       -1.9744  -15.3431  -45.9598 H         1 UNK         0.0600 
    157 H157       -1.8518  -15.8888  -47.6221 H         1 UNK         0.0600 
    158 H158       -0.5586  -14.9250  -46.9214 H         1 UNK         0.0600 
    159 H159        0.3084  -15.7542  -44.7876 H         1 UNK         0.3000 
    160 H160        2.1772  -17.9929  -42.6953 H         1 UNK         0.0600 
    161 H161        2.8237  -15.3749  -44.1459 H         1 UNK         0.0600 
    162 H162        3.6306  -16.9050  -44.4739 H         1 UNK         0.0600 
    163 H163        3.7690  -16.1782  -42.8904 H         1 UNK         0.0600 
    164 H164        1.0739  -15.2914  -42.4930 H         1 UNK         0.3000 
    165 H165       -1.8109  -16.2403  -40.6711 H         1 UNK         0.0600 
    166 H166       -0.8977  -14.6508  -38.9984 H         1 UNK         0.0600 
    167 H167       -0.0697  -16.1970  -38.8936 H         1 UNK         0.0600 
    168 H168        0.7203  -14.8331  -39.6720 H         1 UNK         0.0600 
    169 H169       -0.6282  -13.7204  -41.4409 H         1 UNK         0.3000 
    170 H170       -2.2356  -13.5010  -44.6138 H         1 UNK         0.0600 
    171 H171       -4.0980  -12.9890  -43.0282 H         1 UNK         0.0600 
    172 H172       -2.9827  -12.1066  -41.9918 H         1 UNK         0.0600 
    173 H173       -3.3319  -11.5240  -43.6200 H         1 UNK         0.0600 
    174 H174       -0.8626  -11.5217  -43.1783 H         1 UNK         0.3000 
    175 H175        1.9564  -11.7186  -44.9708 H         1 UNK         0.0600 
    176 H176        0.7699  -10.4339  -42.4443 H         1 UNK         0.0600 
    177 H177        2.0101   -9.7409  -43.4790 H         1 UNK         0.0600 
    178 H178        0.3929   -9.9812  -44.1077 H         1 UNK         0.0600 
    179 H179        3.5576  -12.4010  -43.6259 H         1 UNK         0.3000 
    180 H180        4.2633  -12.4360  -40.5671 H         1 UNK         0.0600 
    181 H181        3.2181  -15.2932  -40.8633 H         1 UNK         0.0600 
    182 H182        3.0826  -14.2342  -39.4710 H         1 UNK         0.0600 
    183 H183        4.6531  -14.8573  -39.9371 H         1 UNK         0.0600 
    184 H184        4.8917  -14.4222  -42.6985 H         1 UNK         0.3000 
    185 H185        7.2701  -12.2729  -44.1824 H         1 UNK         0.0600 
    186 H186        8.6014  -13.3440  -42.3529 H         1 UNK         0.0600 
    187 H187        7.7722  -14.8702  -42.6347 H         1 UNK         0.0600 
    188 H188        8.8125  -14.1809  -43.8819 H         1 UNK         0.0600 
    189 H189        6.6822  -14.8867  -44.9103 H         1 UNK         0.3000 
    190 H190       -1.2974  -20.6072  -47.5077 H         1 UNK         0.3000 
    191 H191       -1.7898  -21.8858  -49.9924 H         1 UNK         0.0600 
    192 H192       -2.7045  -19.6554  -49.2773 H         1 UNK         0.0600 
    193 H193       -3.9535  -20.7290  -49.8791 H         1 UNK         0.0600 
    194 H194       -3.7772  -20.4673  -48.1446 H         1 UNK         0.0600 
    195 H195       -2.6791  -22.7929  -46.6746 H         1 UNK         0.3000 
    196 H196       -4.5366  -24.8802  -47.4267 H         1 UNK         0.0600 
    197 H197       -4.2793  -25.5705  -45.0375 H         1 UNK         0.0600 
    198 H198       -4.6295  -23.8555  -45.1866 H         1 UNK         0.0600 
    199 H199       -2.9903  -24.3911  -44.8267 H         1 UNK         0.0600 
    200 H200       -1.0504  -24.7971  -46.5290 H         1 UNK         0.3000 
    201 H201       -0.5698  -27.5823  -46.7637 H         1 UNK         0.0600 
    202 H202        0.9121  -26.0572  -45.5047 H         1 UNK         0.0600 
    203 H203        1.3506  -25.2036  -46.9822 H         1 UNK         0.0600 
    204 H204        1.8337  -26.8809  -46.7538 H         1 UNK         0.0600 
    205 H205       -0.1330  -24.9214  -49.1368 H         1 UNK         0.3000 
    206 H206        0.8376  -26.6337  -51.2562 H         1 UNK         0.0600 
    207 H207        1.4306  -24.2159  -51.0535 H         1 UNK         0.0600 
    208 H208        0.6536  -24.5407  -52.5953 H         1 UNK         0.0600 
    209 H209       -0.2546  -23.7660  -51.3027 H         1 UNK         0.0600 
    210 H210       -2.2991  -26.0065  -50.0470 H         1 UNK         0.3000 
    211 H211       -4.3789  -26.4042  -50.6048 H         1 UNK         0.0600 
    212 H212       -3.4275  -28.0687  -52.9931 H         1 UNK         0.0600 
    213 H213       -5.0112  -28.1166  -52.2364 H         1 UNK         0.0600 
    214 H214       -3.6050  -28.6766  -51.3466 H         1 UNK         0.0600 
    215 H215       -2.7386  -24.1998  -51.8393 H         1 UNK         0.3000 
    216 H216       -4.0348  -23.3661  -54.2879 H         1 UNK         0.0600 
    217 H217       -2.7533  -21.2813  -53.9118 H         1 UNK         0.0600 
    218 H218       -1.7102  -22.6633  -53.6336 H         1 UNK         0.0600 
    219 H219       -2.3680  -21.7645  -52.2671 H         1 UNK         0.0600 
    220 H220       -4.8205  -23.1543  -50.8971 H         1 UNK         0.3000 
    221 H221       -6.5018  -20.9007  -50.7957 H         1 UNK         0.0600 
    222 H222       -6.5811  -23.5391  -49.2349 H         1 UNK         0.0600 
    223 H223       -5.7600  -22.0543  -48.7601 H         1 UNK         0.0600 
    224 H224       -7.5093  -22.1068  -48.8047 H         1 UNK         0.0600 
    225 H225       -7.1622  -24.1448  -52.0478 H         1 UNK         0.3000 
    226 H226      -10.0084  -23.9615  -52.2336 H         1 UNK         0.0600 
    227 H227       -8.7608  -26.1145  -52.2961 H         1 UNK         0.0600 
    228 H228       -9.7336  -25.9284  -53.7470 H         1 UNK         0.0600 
    229 H229       -7.9972  -25.6521  -53.8170 H         1 UNK         0.0600 
    230 H230       -7.4556  -22.5809  -54.1647 H         1 UNK         0.3000 
    231 H231       -9.3362  -21.7628  -56.3387 H         1 UNK         0.0600 
    232 H232       -7.3775  -23.0591  -57.1167 H         1 UNK         0.0600 
    233 H233       -6.2795  -21.9718  -56.2754 H         1 UNK         0.0600 
    234 H234       -7.2302  -21.3904  -57.6388 H         1 UNK         0.0600 
    235 H235       -8.5032  -20.6572  -53.4363 H         1 UNK         0.3000 
    236 H236       -8.2840  -18.7500  -52.3543 H         1 UNK         0.0600 
    237 H237       -9.3969  -16.7264  -53.2305 H         1 UNK         0.0600 
    238 H238       -9.4542  -17.4078  -54.8493 H         1 UNK         0.0600 
    239 H239      -10.3842  -18.1444  -53.5456 H         1 UNK         0.0600 
    240 H240       -5.9693  -19.5982  -53.0478 H         1 UNK         0.3000 
    241 H241       -3.8342  -19.0800  -53.1180 H         1 UNK         0.0600 
    242 H242       -4.3376  -20.0719  -56.6352 H         1 UNK         0.3800 
    243 H243       -5.0650  -20.4622  -55.0895 H         1 UNK         0.3800 
    244 H244       -4.4653  -16.6520  -52.3213 H         1 UNK         0.0800 
    245 H245       -4.1716  -16.1817  -53.9676 H         1 UNK         0.0800 
    246 H246       -2.7502  -17.9744  -50.8229 H         1 UNK         0.0800 
    247 H247       -2.6034  -16.2489  -50.5969 H         1 UNK         0.0800 
@<TRIPOS>BOND
     1    1    2 1    
     2    1  127 1    
     3    1  128 1    
     4    1  129 1    
     5    2    3 2    
     6    2    4 am   BACKBONE|DICT|INTERRES
     7    4    5 1    
     8    4  130 1    
     9    5    6 1    
    10    5   65 1    
    11    5  131 1    
    12    6    7 1    
    13    6  132 1    
    14    6  133 1    
    15    7    8 1    
    16    8    9 1    
    17    8  134 1    
    18    8  135 1    
    19    9   10 ar   
    20    9   14 ar   
    21   10   11 ar   
    22   10  136 1    
    23   11   12 ar   
    24   11  126 1    
    25   12   13 ar   
    26   12  137 1    
    27   13   14 ar   
    28   13   15 1    
    29   14  138 1    
    30   15   16 1    
    31   15  139 1    
    32   15  140 1    
    33   16   17 1    
    34   17   18 1    
    35   17  141 1    
    36   17  142 1    
    37   18   19 1    
    38   18   67 1    
    39   18  143 1    
    40   19   20 am   BACKBONE|DICT|INTERRES
    41   19  144 1    
    42   20   21 2    
    43   20   22 1    
    44   22   23 1    
    45   22   24 1    
    46   22  145 1    
    47   23  146 1    
    48   23  147 1    
    49   23  148 1    
    50   24   25 am   BACKBONE|DICT|INTERRES
    51   24  149 1    
    52   25   26 2    
    53   25   27 1    
    54   27   28 1    
    55   27   29 1    
    56   27  150 1    
    57   28  151 1    
    58   28  152 1    
    59   28  153 1    
    60   29   30 am   BACKBONE|DICT|INTERRES
    61   29  154 1    
    62   30   31 2    
    63   30   32 1    
    64   32   33 1    
    65   32   34 1    
    66   32  155 1    
    67   33  156 1    
    68   33  157 1    
    69   33  158 1    
    70   34   35 am   BACKBONE|DICT|INTERRES
    71   34  159 1    
    72   35   36 2    
    73   35   37 1    
    74   37   38 1    
    75   37   39 1    
    76   37  160 1    
    77   38  161 1    
    78   38  162 1    
    79   38  163 1    
    80   39   40 am   BACKBONE|DICT|INTERRES
    81   39  164 1    
    82   40   41 2    
    83   40   42 1    
    84   42   43 1    
    85   42   44 1    
    86   42  165 1    
    87   43  166 1    
    88   43  167 1    
    89   43  168 1    
    90   44   45 am   BACKBONE|DICT|INTERRES
    91   44  169 1    
    92   45   46 2    
    93   45   47 1    
    94   47   48 1    
    95   47   49 1    
    96   47  170 1    
    97   48  171 1    
    98   48  172 1    
    99   48  173 1    
   100   49   50 am   BACKBONE|DICT|INTERRES
   101   49  174 1    
   102   50   51 2    
   103   50   52 1    
   104   52   53 1    
   105   52   54 1    
   106   52  175 1    
   107   53  176 1    
   108   53  177 1    
   109   53  178 1    
   110   54   55 am   BACKBONE|DICT|INTERRES
   111   54  179 1    
   112   55   56 2    
   113   55   57 1    
   114   57   58 1    
   115   57   59 1    
   116   57  180 1    
   117   58  181 1    
   118   58  182 1    
   119   58  183 1    
   120   59   60 am   BACKBONE|DICT|INTERRES
   121   59  184 1    
   122   60   61 2    
   123   60   62 1    
   124   62   63 1    
   125   62   64 1    
   126   62  185 1    
   127   63  186 1    
   128   63  187 1    
   129   63  188 1    
   130   64   65 am   BACKBONE|DICT|INTERRES
   131   64  189 1    
   132   65   66 2    
   133   67   68 2    
   134   67   69 am   BACKBONE|DICT|INTERRES
   135   69   70 1    
   136   69  190 1    
   137   70   71 1    
   138   70   72 1    
   139   70  191 1    
   140   71  192 1    
   141   71  193 1    
   142   71  194 1    
   143   72   73 2    
   144   72   74 am   BACKBONE|DICT|INTERRES
   145   74   75 1    
   146   74  195 1    
   147   75   76 1    
   148   75   77 1    
   149   75  196 1    
   150   76  197 1    
   151   76  198 1    
   152   76  199 1    
   153   77   78 2    
   154   77   79 am   BACKBONE|DICT|INTERRES
   155   79   80 1    
   156   79  200 1    
   157   80   81 1    
   158   80   82 1    
   159   80  201 1    
   160   81  202 1    
   161   81  203 1    
   162   81  204 1    
   163   82   83 2    
   164   82   84 am   BACKBONE|DICT|INTERRES
   165   84   85 1    
   166   84  205 1    
   167   85   86 1    
   168   85   87 1    
   169   85  206 1    
   170   86  207 1    
   171   86  208 1    
   172   86  209 1    
   173   87   88 2    
   174   87   89 am   BACKBONE|DICT|INTERRES
   175   89   90 1    
   176   89  210 1    
   177   90   91 1    
   178   90   92 1    
   179   90  211 1    
   180   91  212 1    
   181   91  213 1    
   182   91  214 1    
   183   92   93 2    
   184   92   94 am   BACKBONE|DICT|INTERRES
   185   94   95 1    
   186   94  215 1    
   187   95   96 1    
   188   95   97 1    
   189   95  216 1    
   190   96  217 1    
   191   96  218 1    
   192   96  219 1    
   193   97   98 2    
   194   97   99 am   BACKBONE|DICT|INTERRES
   195   99  100 1    
   196   99  220 1    
   197  100  101 1    
   198  100  102 1    
   199  100  221 1    
   200  101  222 1    
   201  101  223 1    
   202  101  224 1    
   203  102  103 2    
   204  102  104 am   BACKBONE|DICT|INTERRES
   205  104  105 1    
   206  104  225 1    
   207  105  106 1    
   208  105  107 1    
   209  105  226 1    
   210  106  227 1    
   211  106  228 1    
   212  106  229 1    
   213  107  108 2    
   214  107  109 am   BACKBONE|DICT|INTERRES
   215  109  110 1    
   216  109  230 1    
   217  110  111 1    
   218  110  112 1    
   219  110  231 1    
   220  111  232 1    
   221  111  233 1    
   222  111  234 1    
   223  112  113 2    
   224  112  114 am   BACKBONE|DICT|INTERRES
   225  114  115 1    
   226  114  235 1    
   227  115  116 1    
   228  115  117 1    
   229  115  236 1    
   230  116  237 1    
   231  116  238 1    
   232  116  239 1    
   233  117  118 2    
   234  117  119 am   BACKBONE|DICT|INTERRES
   235  119  120 1    
   236  119  240 1    
   237  120  121 1    
   238  120  124 1    
   239  120  241 1    
   240  121  122 am   BACKBONE|DICT|INTERRES
   241  121  123 2    
   242  122  242 1    
   243  122  243 1    
   244  124  125 1    
   245  124  244 1    
   246  124  245 1    
   247  125  126 1    
   248  126  246 1    
   249  126  247 1    
@<TRIPOS>SUBSTRUCTURE
     1 UNK         1 GROUP             0       ****    0 ROOT    
