@<TRIPOS>MOLECULE
3R540
247   249    1
SMALL
USER_CHARGES


@<TRIPOS>ATOM
      1 CA          0.4107  -11.9207  -49.5398 C.3       0 UNK        -0.1800 
      2 C          -0.5843  -11.8261  -48.3921 C.2       0 UNK         0.5000 
      3 O          -1.5615  -11.0848  -48.4889 O.2       0 UNK        -0.5000 
      4 N          -0.3337  -12.5774  -47.3112 N.am      1 UNK        -0.5000 
      5 CA         -1.1749  -12.7006  -46.1080 C.3       1 UNK         0.1400 
      6 C6         -2.5959  -13.2670  -46.3842 C.3       23 UNK        -0.0398 
      7 S7         -2.5310  -14.9264  -47.1314 S.3       23 UNK        -0.2404 
      8 C8         -3.1631  -14.6128  -48.8054 C.3       23 UNK        -0.0205 
      9 C9         -2.9422  -15.8363  -49.6756 C.ar      23 UNK        -0.0193 
     10 C10        -1.8184  -15.9183  -50.5003 C.ar      23 UNK        -0.1150 
     11 C11        -1.5760  -17.0682  -51.2557 C.ar      23 UNK        -0.0193 
     12 C12        -2.4644  -18.1452  -51.1725 C.ar      23 UNK        -0.1150 
     13 C13        -3.5911  -18.0790  -50.3455 C.ar      23 UNK        -0.0193 
     14 C14        -3.8358  -16.9082  -49.6194 C.ar      23 UNK        -0.1150 
     15 C15        -4.5168  -19.2877  -50.2254 C.3       23 UNK        -0.0205 
     16 S16        -5.0456  -19.6643  -48.5140 S.3       23 UNK        -0.2404 
     17 C17        -3.4579  -19.8054  -47.6225 C.3       23 UNK        -0.0398 
     18 CA         -2.8820  -21.2397  -47.6028 C.3       11 UNK         0.1400 
     19 N          -1.4407  -21.2377  -47.3387 N.am      11 UNK        -0.5000 
     20 C          -0.6435  -22.3152  -47.3748 C.2       10 UNK         0.5000 
     21 O          -1.0265  -23.4423  -47.6836 O.2       10 UNK        -0.5000 
     22 CA          0.8170  -22.1099  -46.9359 C.3       10 UNK         0.1400 
     23 CB          1.6421  -21.4611  -48.0576 C.3       10 UNK        -0.1800 
     24 N           0.9224  -21.3101  -45.7149 N.am      10 UNK        -0.5000 
     25 C           0.4172  -21.6662  -44.5246 C.2       9 UNK         0.5000 
     26 O          -0.1420  -22.7412  -44.3120 O.2       9 UNK        -0.5000 
     27 CA          0.4943  -20.6226  -43.3969 C.3       9 UNK         0.1400 
     28 CB          1.8791  -20.6209  -42.7320 C.3       9 UNK        -0.1800 
     29 N           0.1679  -19.2785  -43.8723 N.am      9 UNK        -0.5000 
     30 C          -1.0424  -18.9055  -44.3123 C.2       8 UNK         0.5000 
     31 O          -2.0275  -19.6440  -44.3201 O.2       8 UNK        -0.5000 
     32 CA         -1.1550  -17.4838  -44.8858 C.3       8 UNK         0.1400 
     33 CB         -1.3640  -16.4554  -43.7639 C.3       8 UNK        -0.1800 
     34 N           0.0193  -17.1192  -45.6794 N.am      8 UNK        -0.5000 
     35 C           0.3092  -17.6609  -46.8729 C.2       7 UNK         0.5000 
     36 O          -0.3837  -18.5185  -47.4173 O.2       7 UNK        -0.5000 
     37 CA          1.6249  -17.2209  -47.5437 C.3       7 UNK         0.1400 
     38 CB          1.4129  -15.9289  -48.3457 C.3       7 UNK        -0.1800 
     39 N           2.7138  -17.0196  -46.5875 N.am      7 UNK        -0.5000 
     40 C           3.1879  -17.9569  -45.7551 C.2       6 UNK         0.5000 
     41 O           2.8195  -19.1308  -45.7747 O.2       6 UNK        -0.5000 
     42 CA          4.2060  -17.5064  -44.6894 C.3       6 UNK         0.1400 
     43 CB          5.6277  -17.9138  -45.1038 C.3       6 UNK        -0.1800 
     44 N           4.1891  -16.0700  -44.3863 N.am      6 UNK        -0.5000 
     45 C           3.1442  -15.3793  -43.9083 C.2       5 UNK         0.5000 
     46 O           2.0165  -15.8556  -43.7539 O.2       5 UNK        -0.5000 
     47 CA          3.4007  -13.8869  -43.6220 C.3       5 UNK         0.1400 
     48 CB          3.1044  -13.0586  -44.8830 C.3       5 UNK        -0.1800 
     49 N           2.6093  -13.3606  -42.5062 N.am      5 UNK        -0.5000 
     50 C           2.6346  -13.8238  -41.2463 C.2       4 UNK         0.5000 
     51 O           3.3838  -14.7267  -40.8683 O.2       4 UNK        -0.5000 
     52 CA          1.6927  -13.1354  -40.2396 C.3       4 UNK         0.1400 
     53 CB          2.0464  -13.4300  -38.7691 C.3       4 UNK        -0.1800 
     54 N           1.6940  -11.6930  -40.4644 N.am      4 UNK        -0.5000 
     55 C           0.6279  -10.8894  -40.3885 C.2       3 UNK         0.5000 
     56 O          -0.4925  -11.2640  -40.0387 O.2       3 UNK        -0.5000 
     57 CA          0.8346   -9.4170  -40.8069 C.3       3 UNK         0.1400 
     58 CB          2.2948   -8.9290  -40.6691 C.3       3 UNK        -0.1800 
     59 N           0.3358   -9.1594  -42.1634 N.am      3 UNK        -0.5000 
     60 C           0.6859   -9.8083  -43.2829 C.2       2 UNK         0.5000 
     61 O           1.5213  -10.7150  -43.3245 O.2       2 UNK        -0.5000 
     62 CA          0.0042   -9.3593  -44.5864 C.3       2 UNK         0.1400 
     63 CB          0.8903   -8.3565  -45.3405 C.3       2 UNK        -0.1800 
     64 N          -0.2408  -10.5151  -45.4457 N.am      2 UNK        -0.5000 
     65 C          -1.2085  -11.4188  -45.2421 C.2       1 UNK         0.5000 
     66 O          -2.0812  -11.2835  -44.3825 O.2       1 UNK        -0.5000 
     67 C          -3.6462  -22.1630  -46.6337 C.2       11 UNK         0.5000 
     68 O          -4.4518  -22.9774  -47.0859 O.2       11 UNK        -0.5000 
     69 N          -3.3431  -22.0599  -45.3318 N.am      12 UNK        -0.5000 
     70 CA         -3.9066  -22.9079  -44.2819 C.3       12 UNK         0.1400 
     71 CB         -3.4793  -22.3775  -42.9051 C.3       12 UNK        -0.1800 
     72 C          -3.5295  -24.3923  -44.4428 C.2       12 UNK         0.5000 
     73 O          -4.4048  -25.2508  -44.3300 O.2       12 UNK        -0.5000 
     74 N          -2.2499  -24.6663  -44.7346 N.am      13 UNK        -0.5000 
     75 CA         -1.7128  -26.0108  -44.9575 C.3       13 UNK         0.1400 
     76 CB         -0.1803  -25.9442  -45.0414 C.3       13 UNK        -0.1800 
     77 C          -2.2943  -26.6964  -46.2074 C.2       13 UNK         0.5000 
     78 O          -2.5998  -27.8886  -46.1599 O.2       13 UNK        -0.5000 
     79 N          -2.4570  -25.9294  -47.2931 N.am      14 UNK        -0.5000 
     80 CA         -3.0528  -26.3837  -48.5504 C.3       14 UNK         0.1400 
     81 CB         -2.6578  -25.4018  -49.6635 C.3       14 UNK        -0.1800 
     82 C          -4.5876  -26.5036  -48.4949 C.2       14 UNK         0.5000 
     83 O          -5.1686  -27.0912  -49.4057 O.2       14 UNK        -0.5000 
     84 N          -5.2190  -25.9037  -47.4744 N.am      15 UNK        -0.5000 
     85 CA         -6.6654  -25.7062  -47.3230 C.3       15 UNK         0.1400 
     86 CB         -7.3939  -27.0506  -47.1182 C.3       15 UNK        -0.1800 
     87 C          -7.2465  -24.8593  -48.4770 C.2       15 UNK         0.5000 
     88 O          -8.2901  -25.1941  -49.0399 O.2       15 UNK        -0.5000 
     89 N          -6.5186  -23.7855  -48.8158 N.am      16 UNK        -0.5000 
     90 CA         -6.7681  -22.8137  -49.8846 C.3       16 UNK         0.1400 
     91 CB         -8.0708  -22.0300  -49.6251 C.3       16 UNK        -0.1800 
     92 C          -6.6861  -23.3835  -51.3177 C.2       16 UNK         0.5000 
     93 O          -7.1512  -22.7306  -52.2540 O.2       16 UNK        -0.5000 
     94 N          -6.0771  -24.5658  -51.4840 N.am      17 UNK        -0.5000 
     95 CA         -5.7772  -25.1608  -52.7864 C.3       17 UNK         0.1400 
     96 CB         -5.4917  -26.6597  -52.6037 C.3       17 UNK        -0.1800 
     97 C          -4.5858  -24.4643  -53.4721 C.2       17 UNK         0.5000 
     98 O          -3.8010  -23.7730  -52.8163 O.2       17 UNK        -0.5000 
     99 N          -4.4427  -24.7124  -54.7815 N.am      18 UNK        -0.5000 
    100 CA        -3.4124  -24.1476  -55.6630 C.3       18 UNK         0.1400 
    101 CB        -3.6760  -24.6221  -57.1002 C.3       18 UNK        -0.1800 
    102 C         -1.9562  -24.4550  -55.2550 C.2       18 UNK         0.5000 
    103 O         -1.0480  -23.7484  -55.6926 O.2       18 UNK        -0.5000 
    104 N         -1.7563  -25.4635  -54.3938 N.am      19 UNK        -0.5000 
    105 CA        -0.4814  -25.8109  -53.7596 C.3       19 UNK         0.1400 
    106 CB        -0.6786  -27.0797  -52.9157 C.3       19 UNK        -0.1800 
    107 C          0.1225  -24.6790  -52.8991 C.2       19 UNK         0.5000 
    108 O          1.3368  -24.6613  -52.6965 O.2       19 UNK        -0.5000 
    109 N         -0.7181  -23.7416  -52.4367 N.am      20 UNK        -0.5000 
    110 CA        -0.3048  -22.5224  -51.7392 C.3       20 UNK         0.1400 
    111 CB        -1.5211  -21.9477  -51.0027 C.3       20 UNK        -0.1800 
    112 C          0.2915  -21.4440  -52.6673 C.2       20 UNK         0.5000 
    113 O          0.8423  -20.4692  -52.1568 O.2       20 UNK        -0.5000 
    114 N          0.1513  -21.6208  -53.9904 N.am      21 UNK        -0.5000 
    115 CA         0.3951  -20.6467  -55.0576 C.3       21 UNK         0.1400 
    116 CB         1.8449  -20.1106  -55.0365 C.3       21 UNK        -0.1800 
    117 C         -0.6866  -19.5441  -55.0698 C.2       21 UNK         0.5000 
    118 O         -1.7934  -19.7710  -54.5752 O.2       21 UNK        -0.5000 
    119 N         -0.3668  -18.3895  -55.6704 N.am      22 UNK        -0.5000 
    120 CA        -1.2600  -17.2277  -55.8615 C.3       22 UNK         0.1400 
    121 C         -2.4403  -17.4693  -56.8556 C.2       22 UNK         0.5000 
    122 N         -2.4042  -18.5016  -57.6897 N.am      22 UNK        -0.7600 
    123 O         -3.3899  -16.6917  -56.9035 O.2       22 UNK        -0.5000 
    124 C124       -1.7318  -16.5801  -54.5270 C.3       23 UNK        -0.0398 
    125 S125       -0.3490  -15.9657  -53.5044 S.3       23 UNK        -0.2404 
    126 C126       -0.3336  -17.1602  -52.1301 C.3       23 UNK        -0.0205 
    127 H127       -0.0917  -12.2708  -50.4416 H         1 UNK         0.0600 
    128 H128        1.2250  -12.6106  -49.3166 H         1 UNK         0.0600 
    129 H129        0.8412  -10.9408  -49.7458 H         1 UNK         0.0600 
    130 H130        0.4952  -13.1525  -47.3083 H         1 UNK         0.3000 
    131 H131       -0.6615  -13.4313  -45.4810 H         1 UNK         0.0600 
    132 H132       -3.1764  -12.5904  -47.0123 H         1 UNK         0.0800 
    133 H133       -3.1576  -13.3691  -45.4543 H         1 UNK         0.0800 
    134 H134       -2.6619  -13.7466  -49.2384 H         1 UNK         0.0800 
    135 H135       -4.2254  -14.3693  -48.7574 H         1 UNK         0.0800 
    136 H136       -1.1220  -15.0927  -50.5448 H         1 UNK         0.1150 
    137 H137       -2.2682  -19.0417  -51.7444 H         1 UNK         0.1150 
    138 H138       -4.6987  -16.8460  -48.9717 H         1 UNK         0.1150 
    139 H139       -5.4039  -19.1088  -50.8340 H         1 UNK         0.0800 
    140 H140       -4.0369  -20.1769  -50.6363 H         1 UNK         0.0800 
    141 H141       -3.5904  -19.4214  -46.6099 H         1 UNK         0.0800 
    142 H142       -2.7462  -19.1289  -48.0913 H         1 UNK         0.0800 
    143 H143       -3.0117  -21.6592  -48.6000 H         1 UNK         0.0600 
    144 H144       -1.0258  -20.3348  -47.1260 H         1 UNK         0.3000 
    145 H145        1.2436  -23.0926  -46.7255 H         1 UNK         0.0600 
    146 H146        2.6836  -21.3379  -47.7603 H         1 UNK         0.0600 
    147 H147        1.6308  -22.0788  -48.9558 H         1 UNK         0.0600 
    148 H148        1.2549  -20.4796  -48.3311 H         1 UNK         0.0600 
    149 H149        1.4198  -20.4266  -45.7881 H         1 UNK         0.3000 
    150 H150       -0.2426  -20.8972  -42.6391 H         1 UNK         0.0600 
    151 H151        2.1117  -21.6041  -42.3210 H         1 UNK         0.0600 
    152 H152        1.9211  -19.9070  -41.9093 H         1 UNK         0.0600 
    153 H153        2.6707  -20.3678  -43.4368 H         1 UNK         0.0600 
    154 H154        0.9270  -18.6159  -43.9335 H         1 UNK         0.3000 
    155 H155       -2.0303  -17.4583  -45.5381 H         1 UNK         0.0600 
    156 H156       -0.5282  -16.4431  -43.0637 H         1 UNK         0.0600 
    157 H157       -2.2658  -16.6815  -43.1937 H         1 UNK         0.0600 
    158 H158       -1.4788  -15.4492  -44.1661 H         1 UNK         0.0600 
    159 H159        0.6775  -16.4798  -45.2488 H         1 UNK         0.3000 
    160 H160        1.9275  -18.0104  -48.2346 H         1 UNK         0.0600 
    161 H161        1.1267  -15.0989  -47.7001 H         1 UNK         0.0600 
    162 H162        0.6214  -16.0583  -49.0829 H         1 UNK         0.0600 
    163 H163        2.3156  -15.6434  -48.8858 H         1 UNK         0.0600 
    164 H164        3.0808  -16.0839  -46.5046 H         1 UNK         0.3000 
    165 H165        3.9552  -18.0354  -43.7677 H         1 UNK         0.0600 
    166 H166        6.3471  -17.6981  -44.3136 H         1 UNK         0.0600 
    167 H167        5.6846  -18.9841  -45.3080 H         1 UNK         0.0600 
    168 H168        5.9493  -17.3902  -46.0050 H         1 UNK         0.0600 
    169 H169        5.0684  -15.5878  -44.5071 H         1 UNK         0.3000 
    170 H170        4.4538  -13.7622  -43.3626 H         1 UNK         0.0600 
    171 H171        3.6550  -13.4359  -45.7457 H         1 UNK         0.0600 
    172 H172        2.0433  -13.0767  -45.1341 H         1 UNK         0.0600 
    173 H173        3.3985  -12.0178  -44.7472 H         1 UNK         0.0600 
    174 H174        2.0045  -12.5750  -42.7258 H         1 UNK         0.3000 
    175 H175        0.6967  -13.5362  -40.4393 H         1 UNK         0.0600 
    176 H176        3.0462  -13.0731  -38.5190 H         1 UNK         0.0600 
    177 H177        1.3403  -12.9511  -38.0905 H         1 UNK         0.0600 
    178 H178        2.0153  -14.5007  -38.5637 H         1 UNK         0.0600 
    179 H179        2.5603  -11.3042  -40.8114 H         1 UNK         0.3000 
    180 H180        0.2246   -8.8179  -40.1291 H         1 UNK         0.0600 
    181 H181        2.3610   -7.8553  -40.8446 H         1 UNK         0.0600 
    182 H182        2.9672   -9.4164  -41.3756 H         1 UNK         0.0600 
    183 H183        2.6768   -9.1132  -39.6641 H         1 UNK         0.0600 
    184 H184       -0.3773   -8.4465  -42.2292 H         1 UNK         0.3000 
    185 H185       -0.9485   -8.8795  -44.3518 H         1 UNK         0.0600 
    186 H186        0.4148   -8.0272  -46.2646 H         1 UNK         0.0600 
    187 H187        1.0758   -7.4680  -44.7356 H         1 UNK         0.0600 
    188 H188        1.8594   -8.7875  -45.5960 H         1 UNK         0.0600 
    189 H189        0.4580  -10.7138  -46.1455 H         1 UNK         0.3000 
    190 H190       -2.6917  -21.3397  -45.0326 H         1 UNK         0.3000 
    191 H191       -4.9941  -22.8347  -44.3480 H         1 UNK         0.0600 
    192 H192       -3.9084  -22.9801  -42.1037 H         1 UNK         0.0600 
    193 H193       -3.8161  -21.3512  -42.7570 H         1 UNK         0.0600 
    194 H194       -2.3960  -22.3930  -42.7842 H         1 UNK         0.0600 
    195 H195       -1.5803  -23.9014  -44.7691 H         1 UNK         0.3000 
    196 H196       -1.9778  -26.6218  -44.0922 H         1 UNK         0.0600 
    197 H197        0.1498  -25.3098  -45.8647 H         1 UNK         0.0600 
    198 H198        0.2474  -25.5464  -44.1210 H         1 UNK         0.0600 
    199 H199        0.2473  -26.9354  -45.1969 H         1 UNK         0.0600 
    200 H200       -2.1186  -24.9702  -47.2739 H         1 UNK         0.3000 
    201 H201       -2.6477  -27.3672  -48.7972 H         1 UNK         0.0600 
    202 H202       -3.0914  -24.4178  -49.4841 H         1 UNK         0.0600 
    203 H203       -3.0115  -25.7394  -50.6370 H         1 UNK         0.0600 
    204 H204       -1.5757  -25.2889  -49.7336 H         1 UNK         0.0600 
    205 H205       -4.6450  -25.4238  -46.7933 H         1 UNK         0.3000 
    206 H206       -6.7980  -25.1176  -46.4140 H         1 UNK         0.0600 
    207 H207       -6.9539  -27.6143  -46.2955 H         1 UNK         0.0600 
    208 H208       -8.4449  -26.8898  -46.8762 H         1 UNK         0.0600 
    209 H209       -7.3575  -27.6756  -48.0108 H         1 UNK         0.0600 
    210 H210       -5.6935  -23.5911  -48.2492 H         1 UNK         0.3000 
    211 H211       -5.9441  -22.1041  -49.8204 H         1 UNK         0.0600 
    212 H212       -8.1737  -21.1978  -50.3224 H         1 UNK         0.0600 
    213 H213       -8.0816  -21.6084  -48.6199 H         1 UNK         0.0600 
    214 H214       -8.9528  -22.6611  -49.7364 H         1 UNK         0.0600 
    215 H215       -5.7246  -25.0513  -50.6716 H         1 UNK         0.3000 
    216 H216       -6.6552  -25.0528  -53.4268 H         1 UNK         0.0600 
    217 H217       -4.5746  -26.8329  -52.0410 H         1 UNK         0.0600 
    218 H218       -5.3819  -27.1606  -53.5661 H         1 UNK         0.0600 
    219 H219       -6.3065  -27.1550  -52.0749 H         1 UNK         0.0600 
    220 H220       -5.1198  -25.3118  -55.2316 H         1 UNK         0.3000 
    221 H221       -3.5235  -23.0616  -55.6363 H         1 UNK         0.0600 
    222 H222       -4.6650  -24.3169  -57.4425 H         1 UNK         0.0600 
    223 H223       -3.6106  -25.7077  -57.1829 H         1 UNK         0.0600 
    224 H224       -2.9497  -24.1958  -57.7937 H         1 UNK         0.0600 
    225 H225       -2.5645  -25.9857  -54.0910 H         1 UNK         0.3000 
    226 H226        0.2339  -26.0326  -54.5540 H         1 UNK         0.0600 
    227 H227       -1.4104  -26.9260  -52.1222 H         1 UNK         0.0600 
    228 H228       -1.0189  -27.9138  -53.5297 H         1 UNK         0.0600 
    229 H229        0.2564  -27.3856  -52.4445 H         1 UNK         0.0600 
    230 H230       -1.7097  -23.8291  -52.6350 H         1 UNK         0.3000 
    231 H231        0.4541  -22.7833  -50.9993 H         1 UNK         0.0600 
    232 H232       -2.3104  -21.6571  -51.6971 H         1 UNK         0.0600 
    233 H233       -1.2505  -21.0665  -50.4191 H         1 UNK         0.0600 
    234 H234       -1.9329  -22.6802  -50.3143 H         1 UNK         0.0600 
    235 H235       -0.3251  -22.4595  -54.3032 H         1 UNK         0.3000 
    236 H236        0.2676  -21.2012  -55.9882 H         1 UNK         0.0600 
    237 H237        2.5615  -20.9212  -54.9038 H         1 UNK         0.0600 
    238 H238        2.0963  -19.6157  -55.9748 H         1 UNK         0.0600 
    239 H239        2.0036  -19.3899  -54.2336 H         1 UNK         0.0600 
    240 H240        0.5616  -18.2880  -56.0540 H         1 UNK         0.3000 
    241 H241       -0.6458  -16.4828  -56.3684 H         1 UNK         0.0600 
    242 H242       -3.1644  -18.6419  -58.3367 H         1 UNK         0.3800 
    243 H243       -1.6276  -19.1425  -57.6826 H         1 UNK         0.3800 
    244 H244       -2.3500  -17.2739  -53.9575 H         1 UNK         0.0800 
    245 H245       -2.3688  -15.7173  -54.7268 H         1 UNK         0.0800 
    246 H246       -0.2227  -18.1634  -52.5377 H         1 UNK         0.0800 
    247 H247        0.5488  -16.9823  -51.5144 H         1 UNK         0.0800 
@<TRIPOS>BOND
     1    1    2 1    
     2    1  127 1    
     3    1  128 1    
     4    1  129 1    
     5    2    3 2    
     6    2    4 am   BACKBONE|DICT|INTERRES
     7    4    5 1    
     8    4  130 1    
     9    5    6 1    
    10    5   65 1    
    11    5  131 1    
    12    6    7 1    
    13    6  132 1    
    14    6  133 1    
    15    7    8 1    
    16    8    9 1    
    17    8  134 1    
    18    8  135 1    
    19    9   10 ar   
    20    9   14 ar   
    21   10   11 ar   
    22   10  136 1    
    23   11   12 ar   
    24   11  126 1    
    25   12   13 ar   
    26   12  137 1    
    27   13   14 ar   
    28   13   15 1    
    29   14  138 1    
    30   15   16 1    
    31   15  139 1    
    32   15  140 1    
    33   16   17 1    
    34   17   18 1    
    35   17  141 1    
    36   17  142 1    
    37   18   19 1    
    38   18   67 1    
    39   18  143 1    
    40   19   20 am   BACKBONE|DICT|INTERRES
    41   19  144 1    
    42   20   21 2    
    43   20   22 1    
    44   22   23 1    
    45   22   24 1    
    46   22  145 1    
    47   23  146 1    
    48   23  147 1    
    49   23  148 1    
    50   24   25 am   BACKBONE|DICT|INTERRES
    51   24  149 1    
    52   25   26 2    
    53   25   27 1    
    54   27   28 1    
    55   27   29 1    
    56   27  150 1    
    57   28  151 1    
    58   28  152 1    
    59   28  153 1    
    60   29   30 am   BACKBONE|DICT|INTERRES
    61   29  154 1    
    62   30   31 2    
    63   30   32 1    
    64   32   33 1    
    65   32   34 1    
    66   32  155 1    
    67   33  156 1    
    68   33  157 1    
    69   33  158 1    
    70   34   35 am   BACKBONE|DICT|INTERRES
    71   34  159 1    
    72   35   36 2    
    73   35   37 1    
    74   37   38 1    
    75   37   39 1    
    76   37  160 1    
    77   38  161 1    
    78   38  162 1    
    79   38  163 1    
    80   39   40 am   BACKBONE|DICT|INTERRES
    81   39  164 1    
    82   40   41 2    
    83   40   42 1    
    84   42   43 1    
    85   42   44 1    
    86   42  165 1    
    87   43  166 1    
    88   43  167 1    
    89   43  168 1    
    90   44   45 am   BACKBONE|DICT|INTERRES
    91   44  169 1    
    92   45   46 2    
    93   45   47 1    
    94   47   48 1    
    95   47   49 1    
    96   47  170 1    
    97   48  171 1    
    98   48  172 1    
    99   48  173 1    
   100   49   50 am   BACKBONE|DICT|INTERRES
   101   49  174 1    
   102   50   51 2    
   103   50   52 1    
   104   52   53 1    
   105   52   54 1    
   106   52  175 1    
   107   53  176 1    
   108   53  177 1    
   109   53  178 1    
   110   54   55 am   BACKBONE|DICT|INTERRES
   111   54  179 1    
   112   55   56 2    
   113   55   57 1    
   114   57   58 1    
   115   57   59 1    
   116   57  180 1    
   117   58  181 1    
   118   58  182 1    
   119   58  183 1    
   120   59   60 am   BACKBONE|DICT|INTERRES
   121   59  184 1    
   122   60   61 2    
   123   60   62 1    
   124   62   63 1    
   125   62   64 1    
   126   62  185 1    
   127   63  186 1    
   128   63  187 1    
   129   63  188 1    
   130   64   65 am   BACKBONE|DICT|INTERRES
   131   64  189 1    
   132   65   66 2    
   133   67   68 2    
   134   67   69 am   BACKBONE|DICT|INTERRES
   135   69   70 1    
   136   69  190 1    
   137   70   71 1    
   138   70   72 1    
   139   70  191 1    
   140   71  192 1    
   141   71  193 1    
   142   71  194 1    
   143   72   73 2    
   144   72   74 am   BACKBONE|DICT|INTERRES
   145   74   75 1    
   146   74  195 1    
   147   75   76 1    
   148   75   77 1    
   149   75  196 1    
   150   76  197 1    
   151   76  198 1    
   152   76  199 1    
   153   77   78 2    
   154   77   79 am   BACKBONE|DICT|INTERRES
   155   79   80 1    
   156   79  200 1    
   157   80   81 1    
   158   80   82 1    
   159   80  201 1    
   160   81  202 1    
   161   81  203 1    
   162   81  204 1    
   163   82   83 2    
   164   82   84 am   BACKBONE|DICT|INTERRES
   165   84   85 1    
   166   84  205 1    
   167   85   86 1    
   168   85   87 1    
   169   85  206 1    
   170   86  207 1    
   171   86  208 1    
   172   86  209 1    
   173   87   88 2    
   174   87   89 am   BACKBONE|DICT|INTERRES
   175   89   90 1    
   176   89  210 1    
   177   90   91 1    
   178   90   92 1    
   179   90  211 1    
   180   91  212 1    
   181   91  213 1    
   182   91  214 1    
   183   92   93 2    
   184   92   94 am   BACKBONE|DICT|INTERRES
   185   94   95 1    
   186   94  215 1    
   187   95   96 1    
   188   95   97 1    
   189   95  216 1    
   190   96  217 1    
   191   96  218 1    
   192   96  219 1    
   193   97   98 2    
   194   97   99 am   BACKBONE|DICT|INTERRES
   195   99  100 1    
   196   99  220 1    
   197  100  101 1    
   198  100  102 1    
   199  100  221 1    
   200  101  222 1    
   201  101  223 1    
   202  101  224 1    
   203  102  103 2    
   204  102  104 am   BACKBONE|DICT|INTERRES
   205  104  105 1    
   206  104  225 1    
   207  105  106 1    
   208  105  107 1    
   209  105  226 1    
   210  106  227 1    
   211  106  228 1    
   212  106  229 1    
   213  107  108 2    
   214  107  109 am   BACKBONE|DICT|INTERRES
   215  109  110 1    
   216  109  230 1    
   217  110  111 1    
   218  110  112 1    
   219  110  231 1    
   220  111  232 1    
   221  111  233 1    
   222  111  234 1    
   223  112  113 2    
   224  112  114 am   BACKBONE|DICT|INTERRES
   225  114  115 1    
   226  114  235 1    
   227  115  116 1    
   228  115  117 1    
   229  115  236 1    
   230  116  237 1    
   231  116  238 1    
   232  116  239 1    
   233  117  118 2    
   234  117  119 am   BACKBONE|DICT|INTERRES
   235  119  120 1    
   236  119  240 1    
   237  120  121 1    
   238  120  124 1    
   239  120  241 1    
   240  121  122 am   BACKBONE|DICT|INTERRES
   241  121  123 2    
   242  122  242 1    
   243  122  243 1    
   244  124  125 1    
   245  124  244 1    
   246  124  245 1    
   247  125  126 1    
   248  126  246 1    
   249  126  247 1    
@<TRIPOS>SUBSTRUCTURE
     1 UNK         1 GROUP             0       ****    0 ROOT    
