@<TRIPOS>MOLECULE
3R540
247   249    1
SMALL
USER_CHARGES


@<TRIPOS>ATOM
      1 CA          5.3274  -10.1212  -47.2616 C.3       0 UNK        -0.1800 
      2 C           4.2528  -10.8278  -46.4496 C.2       0 UNK         0.5000 
      3 O           4.3788  -10.9296  -45.2297 O.2       0 UNK        -0.5000 
      4 N           3.1893  -11.2967  -47.1168 N.am      1 UNK        -0.5000 
      5 CA          2.0665  -12.0592  -46.5475 C.3       1 UNK         0.1400 
      6 C6          1.0422  -12.4617  -47.6369 C.3       23 UNK        -0.0398 
      7 S7          1.7412  -13.5428  -48.9330 S.3       23 UNK        -0.2404 
      8 C8          1.0492  -15.1416  -48.4142 C.3       23 UNK        -0.0205 
      9 C9          1.2116  -16.2281  -49.4639 C.ar      23 UNK        -0.0193 
     10 C10         0.4499  -16.1876  -50.6360 C.ar      23 UNK        -0.1150 
     11 C11         0.5491  -17.2114  -51.5820 C.ar      23 UNK        -0.0193 
     12 C12         1.4180  -18.2802  -51.3494 C.ar      23 UNK        -0.1150 
     13 C13         2.1695  -18.3418  -50.1731 C.ar      23 UNK        -0.0193 
     14 C14         2.0718  -17.3071  -49.2378 C.ar      23 UNK        -0.1150 
     15 C15         3.0632  -19.5429  -49.9067 C.3       23 UNK        -0.0205 
     16 S16         2.0883  -21.0247  -49.4910 S.3       23 UNK        -0.2404 
     17 C17         1.4047  -20.5550  -47.8669 C.3       23 UNK        -0.0398 
     18 CA          0.6036  -21.7034  -47.2073 C.3       11 UNK         0.1400 
     19 N           0.5757  -21.5876  -45.7480 N.am      11 UNK        -0.5000 
     20 C           0.1525  -22.5483  -44.9153 C.2       10 UNK         0.5000 
     21 O          -0.2413  -23.6521  -45.2916 O.2       10 UNK        -0.5000 
     22 CA          0.1260  -22.2063  -43.4144 C.3       10 UNK         0.1400 
     23 CB          1.5307  -22.3118  -42.8027 C.3       10 UNK        -0.1800 
     24 N          -0.4326  -20.8803  -43.1456 N.am      10 UNK        -0.5000 
     25 C          -1.6971  -20.5256  -43.4169 C.2       9 UNK         0.5000 
     26 O          -2.5339  -21.2904  -43.8962 O.2       9 UNK        -0.5000 
     27 CA         -2.0824  -19.0594  -43.1522 C.3       9 UNK         0.1400 
     28 CB         -2.3452  -18.8229  -41.6576 C.3       9 UNK        -0.1800 
     29 N          -1.0741  -18.1142  -43.6306 N.am      9 UNK        -0.5000 
     30 C          -0.7006  -17.9824  -44.9116 C.2       8 UNK         0.5000 
     31 O          -1.1870  -18.6250  -45.8412 O.2       8 UNK        -0.5000 
     32 CA          0.4564  -17.0116  -45.1950 C.3       8 UNK         0.1400 
     33 CB         -0.0219  -15.5527  -45.1193 C.3       8 UNK        -0.1800 
     34 N           1.5850  -17.2113  -44.2872 N.am      8 UNK        -0.5000 
     35 C           2.2772  -18.3533  -44.1654 C.2       7 UNK         0.5000 
     36 O           2.0774  -19.3528  -44.8525 O.2       7 UNK        -0.5000 
     37 CA          3.3343  -18.4078  -43.0522 C.3       7 UNK         0.1400 
     38 CB          4.6529  -17.7766  -43.5204 C.3       7 UNK        -0.1800 
     39 N           2.8657  -17.7492  -41.8334 N.am      7 UNK        -0.5000 
     40 C           1.8901  -18.2285  -41.0481 C.2       6 UNK         0.5000 
     41 O           1.3146  -19.2989  -41.2470 O.2       6 UNK        -0.5000 
     42 CA          1.4578  -17.3383  -39.8689 C.3       6 UNK         0.1400 
     43 CB          2.4108  -17.5122  -38.6771 C.3       6 UNK        -0.1800 
     44 N           1.3894  -15.9228  -40.2367 N.am      6 UNK        -0.5000 
     45 C           0.4922  -15.4105  -41.0906 C.2       5 UNK         0.5000 
     46 O          -0.3985  -16.0745  -41.6207 O.2       5 UNK        -0.5000 
     47 CA          0.6386  -13.9181  -41.4428 C.3       5 UNK         0.1400 
     48 CB         -0.1377  -13.0444  -40.4472 C.3       5 UNK        -0.1800 
     49 N           2.0277  -13.4576  -41.5053 N.am      5 UNK        -0.5000 
     50 C           2.9546  -13.9116  -42.3587 C.2       4 UNK         0.5000 
     51 O           2.7572  -14.8439  -43.1393 O.2       4 UNK        -0.5000 
     52 CA          4.3187  -13.1943  -42.3310 C.3       4 UNK         0.1400 
     53 CB          5.2944  -13.7264  -43.3953 C.3       4 UNK        -0.1800 
     54 N           4.1591  -11.7560  -42.5301 N.am      4 UNK        -0.5000 
     55 C           3.8795  -10.8603  -41.5757 C.2       3 UNK         0.5000 
     56 O           3.6975  -11.1574  -40.3943 O.2       3 UNK        -0.5000 
     57 CA          3.7379   -9.4011  -42.0315 C.3       3 UNK         0.1400 
     58 CB          5.1042   -8.8047  -42.4070 C.3       3 UNK        -0.1800 
     59 N           2.8363   -9.3132  -43.1777 N.am      3 UNK        -0.5000 
     60 C           1.5117   -9.1337  -43.0875 C.2       2 UNK         0.5000 
     61 O           0.9144   -8.9626  -42.0241 O.2       2 UNK        -0.5000 
     62 CA          0.7142   -9.1429  -44.4062 C.3       2 UNK         0.1400 
     63 CB          0.5693   -7.7159  -44.9566 C.3       2 UNK        -0.1800 
     64 N           1.3155   -9.9918  -45.4357 N.am      2 UNK        -0.5000 
     65 C           1.3312  -11.3318  -45.3992 C.2       1 UNK         0.5000 
     66 O           0.7963  -11.9936  -44.5104 O.2       1 UNK        -0.5000 
     67 C          -0.8163  -21.8364  -47.7970 C.2       11 UNK         0.5000 
     68 O          -1.0373  -22.6961  -48.6492 O.2       11 UNK        -0.5000 
     69 N          -1.7675  -21.0349  -47.2944 N.am      12 UNK        -0.5000 
     70 CA         -3.1826  -21.1008  -47.6629 C.3       12 UNK         0.1400 
     71 CB         -3.9418  -19.9259  -47.0294 C.3       12 UNK        -0.1800 
     72 C          -3.8354  -22.4422  -47.2836 C.2       12 UNK         0.5000 
     73 O          -4.5787  -23.0002  -48.0906 O.2       12 UNK        -0.5000 
     74 N          -3.5182  -22.9569  -46.0871 N.am      13 UNK        -0.5000 
     75 CA         -3.9636  -24.2655  -45.6057 C.3       13 UNK         0.1400 
     76 CB         -3.6096  -24.4173  -44.1188 C.3       13 UNK        -0.1800 
     77 C          -3.3892  -25.4354  -46.4267 C.2       13 UNK         0.5000 
     78 O          -4.1018  -26.4109  -46.6634 O.2       13 UNK        -0.5000 
     79 N          -2.1264  -25.3130  -46.8593 N.am      14 UNK        -0.5000 
     80 CA         -1.4568  -26.2724  -47.7377 C.3       14 UNK         0.1400 
     81 CB          0.0554  -25.9998  -47.7419 C.3       14 UNK        -0.1800 
     82 C          -2.0237  -26.2564  -49.1700 C.2       14 UNK         0.5000 
     83 O          -2.2079  -27.3227  -49.7582 O.2       14 UNK        -0.5000 
     84 N          -2.2951  -25.0549  -49.6993 N.am      15 UNK        -0.5000 
     85 CA         -2.8998  -24.8339  -51.0138 C.3       15 UNK         0.1400 
     86 CB         -2.8085  -23.3421  -51.3702 C.3       15 UNK        -0.1800 
     87 C          -4.3566  -25.3267  -51.0862 C.2       15 UNK         0.5000 
     88 O          -4.7280  -25.9875  -52.0587 O.2       15 UNK        -0.5000 
     89 N          -5.1372  -25.0138  -50.0412 N.am      16 UNK        -0.5000 
     90 CA         -6.5286  -25.4109  -49.8188 C.3       16 UNK         0.1400 
     91 CB         -6.5854  -26.9100  -49.4467 C.3       16 UNK        -0.1800 
     92 C          -7.4553  -25.0249  -50.9942 C.2       16 UNK         0.5000 
     93 O          -7.2665  -23.9701  -51.6040 O.2       16 UNK        -0.5000 
     94 N          -8.4386  -25.8820  -51.2965 N.am      17 UNK        -0.5000 
     95 CA         -9.3190  -25.7544  -52.4578 C.3       17 UNK         0.1400 
     96 CB        -10.5828  -26.5944  -52.2180 C.3       17 UNK        -0.1800 
     97 C          -8.6327  -26.1824  -53.7709 C.2       17 UNK         0.5000 
     98 O          -9.0527  -25.7436  -54.8418 O.2       17 UNK        -0.5000 
     99 N          -7.6050  -27.0390  -53.6698 N.am      18 UNK        -0.5000 
    100 CA        -6.8804  -27.6256  -54.7984 C.3       18 UNK         0.1400 
    101 CB        -5.9710  -28.7519  -54.2833 C.3       18 UNK        -0.1800 
    102 C         -6.0668  -26.5964  -55.6019 C.2       18 UNK         0.5000 
    103 O         -6.0420  -26.6700  -56.8311 O.2       18 UNK        -0.5000 
    104 N         -5.4365  -25.6520  -54.8954 N.am      19 UNK        -0.5000 
    105 CA        -4.6407  -24.5656  -55.4608 C.3       19 UNK         0.1400 
    106 CB        -3.1538  -24.8043  -55.1419 C.3       19 UNK        -0.1800 
    107 C         -5.1608  -23.2117  -54.9501 C.2       19 UNK         0.5000 
    108 O         -4.3685  -22.3380  -54.5960 O.2       19 UNK        -0.5000 
    109 N         -6.4924  -23.0490  -54.9416 N.am      20 UNK        -0.5000 
    110 CA        -7.2114  -21.8633  -54.4551 C.3       20 UNK         0.1400 
    111 CB        -8.7220  -22.1174  -54.5649 C.3       20 UNK        -0.1800 
    112 C         -6.8453  -20.5418  -55.1638 C.2       20 UNK         0.5000 
    113 O         -7.0144  -19.4724  -54.5770 O.2       20 UNK        -0.5000 
    114 N         -6.3323  -20.6368  -56.3984 N.am      21 UNK        -0.5000 
    115 CA        -5.7944  -19.5203  -57.1784 C.3       21 UNK         0.1400 
    116 CB        -5.6439  -19.9722  -58.6397 C.3       21 UNK        -0.1800 
    117 C         -4.4522  -18.9749  -56.6413 C.2       21 UNK         0.5000 
    118 O         -4.0526  -17.8795  -57.0374 O.2       21 UNK        -0.5000 
    119 N         -3.7810  -19.7345  -55.7627 N.am      22 UNK        -0.5000 
    120 CA        -2.4883  -19.4126  -55.1347 C.3       22 UNK         0.1400 
    121 C         -1.2593  -19.5069  -56.0925 C.2       22 UNK         0.5000 
    122 N         -1.3793  -20.1240  -57.2621 N.am      22 UNK        -0.7600 
    123 O         -0.1706  -19.0415  -55.7699 O.2       22 UNK        -0.5000 
    124 C124       -2.5376  -18.0929  -54.3042 C.3       23 UNK        -0.0398 
    125 S125       -1.7558  -18.2556  -52.6637 S.3       23 UNK        -0.2404 
    126 C126       -0.2975  -17.1832  -52.8435 C.3       23 UNK        -0.0205 
    127 H127        5.0805  -10.0913  -48.3231 H         1 UNK         0.0600 
    128 H128        6.2808  -10.6370  -47.1476 H         1 UNK         0.0600 
    129 H129        5.4489   -9.0966  -46.9103 H         1 UNK         0.0600 
    130 H130        3.1576  -11.1820  -48.1201 H         1 UNK         0.3000 
    131 H131        2.4867  -12.9715  -46.1181 H         1 UNK         0.0600 
    132 H132        0.1797  -12.9579  -47.1879 H         1 UNK         0.0800 
    133 H133        0.6439  -11.5709  -48.1262 H         1 UNK         0.0800 
    134 H134       -0.0133  -15.0348  -48.1925 H         1 UNK         0.0800 
    135 H135        1.5437  -15.4317  -47.4882 H         1 UNK         0.0800 
    136 H136       -0.2299  -15.3638  -50.8032 H         1 UNK         0.1150 
    137 H137        1.4847  -19.0828  -52.0709 H         1 UNK         0.1150 
    138 H138        2.6462  -17.3553  -48.3232 H         1 UNK         0.1150 
    139 H139        3.6609  -19.7503  -50.7954 H         1 UNK         0.0800 
    140 H140        3.7713  -19.3336  -49.1033 H         1 UNK         0.0800 
    141 H141        0.8025  -19.6488  -47.9561 H         1 UNK         0.0800 
    142 H142        2.2579  -20.2914  -47.2419 H         1 UNK         0.0800 
    143 H143        1.1262  -22.6386  -47.4206 H         1 UNK         0.0600 
    144 H144        0.9268  -20.7167  -45.3557 H         1 UNK         0.3000 
    145 H145       -0.5128  -22.9410  -42.9200 H         1 UNK         0.0600 
    146 H146        1.5048  -22.1441  -41.7259 H         1 UNK         0.0600 
    147 H147        1.9548  -23.3030  -42.9680 H         1 UNK         0.0600 
    148 H148        2.2164  -21.5845  -43.2373 H         1 UNK         0.0600 
    149 H149        0.1879  -20.2011  -42.7178 H         1 UNK         0.3000 
    150 H150       -3.0080  -18.8578  -43.6951 H         1 UNK         0.0600 
    151 H151       -3.1031  -19.5105  -41.2801 H         1 UNK         0.0600 
    152 H152       -2.7058  -17.8101  -41.4774 H         1 UNK         0.0600 
    153 H153       -1.4436  -18.9664  -41.0614 H         1 UNK         0.0600 
    154 H154       -0.6466  -17.5139  -42.9312 H         1 UNK         0.3000 
    155 H155        0.8124  -17.2129  -46.2065 H         1 UNK         0.0600 
    156 H156       -0.4593  -15.3188  -44.1501 H         1 UNK         0.0600 
    157 H157        0.7971  -14.8532  -45.2859 H         1 UNK         0.0600 
    158 H158       -0.7857  -15.3541  -45.8714 H         1 UNK         0.0600 
    159 H159        1.8634  -16.4143  -43.7204 H         1 UNK         0.3000 
    160 H160        3.5262  -19.4571  -42.8183 H         1 UNK         0.0600 
    161 H161        5.0699  -18.3339  -44.3601 H         1 UNK         0.0600 
    162 H162        4.5113  -16.7493  -43.8536 H         1 UNK         0.0600 
    163 H163        5.3994  -17.7768  -42.7261 H         1 UNK         0.0600 
    164 H164        3.2441  -16.8347  -41.6369 H         1 UNK         0.3000 
    165 H165        0.4610  -17.6588  -39.5580 H         1 UNK         0.0600 
    166 H166        2.0685  -16.9428  -37.8128 H         1 UNK         0.0600 
    167 H167        2.4681  -18.5584  -38.3737 H         1 UNK         0.0600 
    168 H168        3.4230  -17.1837  -38.9165 H         1 UNK         0.0600 
    169 H169        2.0873  -15.3087  -39.8436 H         1 UNK         0.3000 
    170 H170        0.2019  -13.7708  -42.4321 H         1 UNK         0.0600 
    171 H171       -1.1845  -13.3468  -40.3955 H         1 UNK         0.0600 
    172 H172        0.2764  -13.1151  -39.4407 H         1 UNK         0.0600 
    173 H173       -0.1175  -11.9959  -40.7464 H         1 UNK         0.0600 
    174 H174        2.2827  -12.6834  -40.9038 H         1 UNK         0.3000 
    175 H175        4.7647  -13.3750  -41.3509 H         1 UNK         0.0600 
    176 H176        4.8761  -13.6522  -44.4002 H         1 UNK         0.0600 
    177 H177        6.2322  -13.1707  -43.3835 H         1 UNK         0.0600 
    178 H178        5.5395  -14.7720  -43.2117 H         1 UNK         0.0600 
    179 H179        4.2508  -11.4318  -43.4911 H         1 UNK         0.3000 
    180 H180        3.3381   -8.8212  -41.1968 H         1 UNK         0.0600 
    181 H181        5.5613   -9.3276  -43.2479 H         1 UNK         0.0600 
    182 H182        5.7983   -8.8624  -41.5676 H         1 UNK         0.0600 
    183 H183        5.0108   -7.7534  -42.6797 H         1 UNK         0.0600 
    184 H184        3.2387   -9.5193  -44.0834 H         1 UNK         0.3000 
    185 H185       -0.2846   -9.5261  -44.1858 H         1 UNK         0.0600 
    186 H186       -0.0546   -7.6990  -45.8504 H         1 UNK         0.0600 
    187 H187        0.1002   -7.0600  -44.2219 H         1 UNK         0.0600 
    188 H188        1.5369   -7.2826  -45.2129 H         1 UNK         0.0600 
    189 H189        1.7771   -9.5247  -46.2026 H         1 UNK         0.3000 
    190 H190       -1.5096  -20.3202  -46.6181 H         1 UNK         0.3000 
    191 H191       -3.2463  -20.9972  -48.7479 H         1 UNK         0.0600 
    192 H192       -3.8796  -19.9456  -45.9410 H         1 UNK         0.0600 
    193 H193       -4.9981  -19.9513  -47.2998 H         1 UNK         0.0600 
    194 H194       -3.5419  -18.9705  -47.3695 H         1 UNK         0.0600 
    195 H195       -2.9434  -22.4101  -45.4522 H         1 UNK         0.3000 
    196 H196       -5.0510  -24.3013  -45.6989 H         1 UNK         0.0600 
    197 H197       -3.9469  -25.3799  -43.7326 H         1 UNK         0.0600 
    198 H198       -4.0864  -23.6415  -43.5196 H         1 UNK         0.0600 
    199 H199       -2.5341  -24.3544  -43.9519 H         1 UNK         0.0600 
    200 H200       -1.5832  -24.5099  -46.5599 H         1 UNK         0.3000 
    201 H201       -1.6156  -27.2724  -47.3286 H         1 UNK         0.0600 
    202 H202        0.4716  -26.0747  -46.7371 H         1 UNK         0.0600 
    203 H203        0.2868  -25.0059  -48.1251 H         1 UNK         0.0600 
    204 H204        0.5803  -26.7231  -48.3670 H         1 UNK         0.0600 
    205 H205       -2.0406  -24.2230  -49.1728 H         1 UNK         0.3000 
    206 H206       -2.3207  -25.3967  -51.7485 H         1 UNK         0.0600 
    207 H207       -1.7711  -23.0108  -51.4189 H         1 UNK         0.0600 
    208 H208       -3.2598  -23.1409  -52.3406 H         1 UNK         0.0600 
    209 H209       -3.3231  -22.7203  -50.6373 H         1 UNK         0.0600 
    210 H210       -4.7549  -24.3949  -49.3301 H         1 UNK         0.3000 
    211 H211       -6.8722  -24.8377  -48.9568 H         1 UNK         0.0600 
    212 H212       -6.3232  -27.5490  -50.2910 H         1 UNK         0.0600 
    213 H213       -7.5765  -27.2004  -49.0970 H         1 UNK         0.0600 
    214 H214       -5.8896  -27.1360  -48.6387 H         1 UNK         0.0600 
    215 H215       -8.5454  -26.7151  -50.7360 H         1 UNK         0.3000 
    216 H216       -9.6227  -24.7112  -52.5576 H         1 UNK         0.0600 
    217 H217      -11.2780  -26.5007  -53.0535 H         1 UNK         0.0600 
    218 H218      -11.1094  -26.2676  -51.3211 H         1 UNK         0.0600 
    219 H219      -10.3483  -27.6535  -52.1036 H         1 UNK         0.0600 
    220 H220       -7.3007  -27.3150  -52.7484 H         1 UNK         0.3000 
    221 H221       -7.6158  -28.0660  -55.4751 H         1 UNK         0.0600 
    222 H222       -5.2325  -28.3797  -53.5718 H         1 UNK         0.0600 
    223 H223       -6.5501  -29.5320  -53.7889 H         1 UNK         0.0600 
    224 H224       -5.4280  -29.2219  -55.1043 H         1 UNK         0.0600 
    225 H225       -5.4790  -25.6903  -53.8801 H         1 UNK         0.3000 
    226 H226       -4.7469  -24.5361  -56.5468 H         1 UNK         0.0600 
    227 H227       -2.8111  -25.7505  -55.5606 H         1 UNK         0.0600 
    228 H228       -2.5272  -24.0177  -55.5642 H         1 UNK         0.0600 
    229 H229       -2.9727  -24.8316  -54.0685 H         1 UNK         0.0600 
    230 H230       -7.0657  -23.8245  -55.2431 H         1 UNK         0.3000 
    231 H231       -6.9599  -21.7421  -53.3995 H         1 UNK         0.0600 
    232 H232       -9.2927  -21.2613  -54.2027 H         1 UNK         0.0600 
    233 H233       -9.0190  -22.9767  -53.9669 H         1 UNK         0.0600 
    234 H234       -9.0251  -22.3041  -55.5958 H         1 UNK         0.0600 
    235 H235       -6.2436  -21.5563  -56.8042 H         1 UNK         0.3000 
    236 H236       -6.5151  -18.7006  -57.1458 H         1 UNK         0.0600 
    237 H237       -6.6007  -20.2895  -59.0550 H         1 UNK         0.0600 
    238 H238       -5.2747  -19.1586  -59.2656 H         1 UNK         0.0600 
    239 H239       -4.9437  -20.8030  -58.7344 H         1 UNK         0.0600 
    240 H240       -4.1750  -20.6275  -55.4808 H         1 UNK         0.3000 
    241 H241       -2.3398  -20.2386  -54.4382 H         1 UNK         0.0600 
    242 H242       -0.5796  -20.1892  -57.8720 H         1 UNK         0.3800 
    243 H243       -2.2598  -20.5239  -57.5426 H         1 UNK         0.3800 
    244 H244       -2.1098  -17.2546  -54.8567 H         1 UNK         0.0800 
    245 H245       -3.5719  -17.8069  -54.1087 H         1 UNK         0.0800 
    246 H246        0.3034  -17.5117  -53.6918 H         1 UNK         0.0800 
    247 H247       -0.6191  -16.1644  -53.0653 H         1 UNK         0.0800 
@<TRIPOS>BOND
     1    1    2 1    
     2    1  127 1    
     3    1  128 1    
     4    1  129 1    
     5    2    3 2    
     6    2    4 am   BACKBONE|DICT|INTERRES
     7    4    5 1    
     8    4  130 1    
     9    5    6 1    
    10    5   65 1    
    11    5  131 1    
    12    6    7 1    
    13    6  132 1    
    14    6  133 1    
    15    7    8 1    
    16    8    9 1    
    17    8  134 1    
    18    8  135 1    
    19    9   10 ar   
    20    9   14 ar   
    21   10   11 ar   
    22   10  136 1    
    23   11   12 ar   
    24   11  126 1    
    25   12   13 ar   
    26   12  137 1    
    27   13   14 ar   
    28   13   15 1    
    29   14  138 1    
    30   15   16 1    
    31   15  139 1    
    32   15  140 1    
    33   16   17 1    
    34   17   18 1    
    35   17  141 1    
    36   17  142 1    
    37   18   19 1    
    38   18   67 1    
    39   18  143 1    
    40   19   20 am   BACKBONE|DICT|INTERRES
    41   19  144 1    
    42   20   21 2    
    43   20   22 1    
    44   22   23 1    
    45   22   24 1    
    46   22  145 1    
    47   23  146 1    
    48   23  147 1    
    49   23  148 1    
    50   24   25 am   BACKBONE|DICT|INTERRES
    51   24  149 1    
    52   25   26 2    
    53   25   27 1    
    54   27   28 1    
    55   27   29 1    
    56   27  150 1    
    57   28  151 1    
    58   28  152 1    
    59   28  153 1    
    60   29   30 am   BACKBONE|DICT|INTERRES
    61   29  154 1    
    62   30   31 2    
    63   30   32 1    
    64   32   33 1    
    65   32   34 1    
    66   32  155 1    
    67   33  156 1    
    68   33  157 1    
    69   33  158 1    
    70   34   35 am   BACKBONE|DICT|INTERRES
    71   34  159 1    
    72   35   36 2    
    73   35   37 1    
    74   37   38 1    
    75   37   39 1    
    76   37  160 1    
    77   38  161 1    
    78   38  162 1    
    79   38  163 1    
    80   39   40 am   BACKBONE|DICT|INTERRES
    81   39  164 1    
    82   40   41 2    
    83   40   42 1    
    84   42   43 1    
    85   42   44 1    
    86   42  165 1    
    87   43  166 1    
    88   43  167 1    
    89   43  168 1    
    90   44   45 am   BACKBONE|DICT|INTERRES
    91   44  169 1    
    92   45   46 2    
    93   45   47 1    
    94   47   48 1    
    95   47   49 1    
    96   47  170 1    
    97   48  171 1    
    98   48  172 1    
    99   48  173 1    
   100   49   50 am   BACKBONE|DICT|INTERRES
   101   49  174 1    
   102   50   51 2    
   103   50   52 1    
   104   52   53 1    
   105   52   54 1    
   106   52  175 1    
   107   53  176 1    
   108   53  177 1    
   109   53  178 1    
   110   54   55 am   BACKBONE|DICT|INTERRES
   111   54  179 1    
   112   55   56 2    
   113   55   57 1    
   114   57   58 1    
   115   57   59 1    
   116   57  180 1    
   117   58  181 1    
   118   58  182 1    
   119   58  183 1    
   120   59   60 am   BACKBONE|DICT|INTERRES
   121   59  184 1    
   122   60   61 2    
   123   60   62 1    
   124   62   63 1    
   125   62   64 1    
   126   62  185 1    
   127   63  186 1    
   128   63  187 1    
   129   63  188 1    
   130   64   65 am   BACKBONE|DICT|INTERRES
   131   64  189 1    
   132   65   66 2    
   133   67   68 2    
   134   67   69 am   BACKBONE|DICT|INTERRES
   135   69   70 1    
   136   69  190 1    
   137   70   71 1    
   138   70   72 1    
   139   70  191 1    
   140   71  192 1    
   141   71  193 1    
   142   71  194 1    
   143   72   73 2    
   144   72   74 am   BACKBONE|DICT|INTERRES
   145   74   75 1    
   146   74  195 1    
   147   75   76 1    
   148   75   77 1    
   149   75  196 1    
   150   76  197 1    
   151   76  198 1    
   152   76  199 1    
   153   77   78 2    
   154   77   79 am   BACKBONE|DICT|INTERRES
   155   79   80 1    
   156   79  200 1    
   157   80   81 1    
   158   80   82 1    
   159   80  201 1    
   160   81  202 1    
   161   81  203 1    
   162   81  204 1    
   163   82   83 2    
   164   82   84 am   BACKBONE|DICT|INTERRES
   165   84   85 1    
   166   84  205 1    
   167   85   86 1    
   168   85   87 1    
   169   85  206 1    
   170   86  207 1    
   171   86  208 1    
   172   86  209 1    
   173   87   88 2    
   174   87   89 am   BACKBONE|DICT|INTERRES
   175   89   90 1    
   176   89  210 1    
   177   90   91 1    
   178   90   92 1    
   179   90  211 1    
   180   91  212 1    
   181   91  213 1    
   182   91  214 1    
   183   92   93 2    
   184   92   94 am   BACKBONE|DICT|INTERRES
   185   94   95 1    
   186   94  215 1    
   187   95   96 1    
   188   95   97 1    
   189   95  216 1    
   190   96  217 1    
   191   96  218 1    
   192   96  219 1    
   193   97   98 2    
   194   97   99 am   BACKBONE|DICT|INTERRES
   195   99  100 1    
   196   99  220 1    
   197  100  101 1    
   198  100  102 1    
   199  100  221 1    
   200  101  222 1    
   201  101  223 1    
   202  101  224 1    
   203  102  103 2    
   204  102  104 am   BACKBONE|DICT|INTERRES
   205  104  105 1    
   206  104  225 1    
   207  105  106 1    
   208  105  107 1    
   209  105  226 1    
   210  106  227 1    
   211  106  228 1    
   212  106  229 1    
   213  107  108 2    
   214  107  109 am   BACKBONE|DICT|INTERRES
   215  109  110 1    
   216  109  230 1    
   217  110  111 1    
   218  110  112 1    
   219  110  231 1    
   220  111  232 1    
   221  111  233 1    
   222  111  234 1    
   223  112  113 2    
   224  112  114 am   BACKBONE|DICT|INTERRES
   225  114  115 1    
   226  114  235 1    
   227  115  116 1    
   228  115  117 1    
   229  115  236 1    
   230  116  237 1    
   231  116  238 1    
   232  116  239 1    
   233  117  118 2    
   234  117  119 am   BACKBONE|DICT|INTERRES
   235  119  120 1    
   236  119  240 1    
   237  120  121 1    
   238  120  124 1    
   239  120  241 1    
   240  121  122 am   BACKBONE|DICT|INTERRES
   241  121  123 2    
   242  122  242 1    
   243  122  243 1    
   244  124  125 1    
   245  124  244 1    
   246  124  245 1    
   247  125  126 1    
   248  126  246 1    
   249  126  247 1    
@<TRIPOS>SUBSTRUCTURE
     1 UNK         1 GROUP             0       ****    0 ROOT    
