@<TRIPOS>MOLECULE
3R540
247   249    1
SMALL
USER_CHARGES


@<TRIPOS>ATOM
      1 CA          6.4292  -14.5908  -45.1114 C.3       0 UNK        -0.1800 
      2 C           5.0515  -13.9489  -45.1641 C.2       0 UNK         0.5000 
      3 O           4.6181  -13.3519  -44.1800 O.2       0 UNK        -0.5000 
      4 N           4.3671  -14.0554  -46.3107 N.am      1 UNK        -0.5000 
      5 CA          2.9976  -13.5699  -46.5478 C.3       1 UNK         0.1400 
      6 C6          2.4963  -13.9398  -47.9644 C.3       23 UNK        -0.0398 
      7 S7          2.5292  -15.7345  -48.2779 S.3       23 UNK        -0.2404 
      8 C8          2.0816  -15.7794  -50.0414 C.3       23 UNK        -0.0205 
      9 C9          1.0806  -16.8882  -50.3179 C.ar      23 UNK        -0.0193 
     10 C10        -0.2835  -16.6000  -50.4102 C.ar      23 UNK        -0.1150 
     11 C11        -1.2089  -17.6202  -50.6466 C.ar      23 UNK        -0.0193 
     12 C12        -0.7628  -18.9388  -50.7687 C.ar      23 UNK        -0.1150 
     13 C13         0.6010  -19.2399  -50.6955 C.ar      23 UNK        -0.0193 
     14 C14         1.5180  -18.2046  -50.4817 C.ar      23 UNK        -0.1150 
     15 C15         1.0676  -20.6838  -50.8582 C.3       23 UNK        -0.0205 
     16 S16         2.3390  -21.1977  -49.6499 S.3       23 UNK        -0.2404 
     17 C17         1.5339  -20.8087  -48.0578 C.3       23 UNK        -0.0398 
     18 CA          0.8790  -22.0280  -47.3725 C.3       11 UNK         0.1400 
     19 N           0.5407  -21.7347  -45.9798 N.am      11 UNK        -0.5000 
     20 C           0.0932  -22.6312  -45.0906 C.2       10 UNK         0.5000 
     21 O          -0.0268  -23.8332  -45.3289 O.2       10 UNK        -0.5000 
     22 CA         -0.3398  -22.0804  -43.7205 C.3       10 UNK         0.1400 
     23 CB          0.8800  -21.8415  -42.8186 C.3       10 UNK        -0.1800 
     24 N          -1.1197  -20.8461  -43.8357 N.am      10 UNK        -0.5000 
     25 C          -2.3193  -20.7629  -44.4297 C.2       9 UNK         0.5000 
     26 O          -2.9151  -21.7325  -44.8989 O.2       9 UNK        -0.5000 
     27 CA         -2.9404  -19.3594  -44.5598 C.3       9 UNK         0.1400 
     28 CB         -3.5778  -18.9160  -43.2350 C.3       9 UNK        -0.1800 
     29 N          -1.9781  -18.3506  -45.0041 N.am      9 UNK        -0.5000 
     30 C          -1.3508  -18.3640  -46.1890 C.2       8 UNK         0.5000 
     31 O          -1.5388  -19.2171  -47.0529 O.2       8 UNK        -0.5000 
     32 CA         -0.2932  -17.2738  -46.4259 C.3       8 UNK         0.1400 
     33 CB         -0.9507  -15.9485  -46.8421 C.3       8 UNK        -0.1800 
     34 N           0.5494  -17.0685  -45.2471 N.am      8 UNK        -0.5000 
     35 C           1.3924  -17.9877  -44.7534 C.2       7 UNK         0.5000 
     36 O           1.5808  -19.0913  -45.2641 O.2       7 UNK        -0.5000 
     37 CA          2.0990  -17.6368  -43.4334 C.3       7 UNK         0.1400 
     38 CB          3.3186  -16.7426  -43.6902 C.3       7 UNK        -0.1800 
     39 N           1.1965  -16.9780  -42.4893 N.am      7 UNK        -0.5000 
     40 C           0.1659  -17.5904  -41.8865 C.2       6 UNK         0.5000 
     41 O          -0.0968  -18.7836  -42.0314 O.2       6 UNK        -0.5000 
     42 CA         -0.7558  -16.7175  -41.0133 C.3       6 UNK         0.1400 
     43 CB         -0.2333  -16.6600  -39.5704 C.3       6 UNK        -0.1800 
     44 N          -0.9075  -15.3549  -41.5240 N.am      6 UNK        -0.5000 
     45 C          -1.4121  -15.0310  -42.7235 C.2       5 UNK         0.5000 
     46 O          -1.8801  -15.8569  -43.5061 O.2       5 UNK        -0.5000 
     47 CA         -1.3441  -13.5468  -43.1361 C.3       5 UNK         0.1400 
     48 CB         -2.7169  -12.8794  -42.9678 C.3       5 UNK        -0.1800 
     49 N          -0.3415  -12.7815  -42.3871 N.am      5 UNK        -0.5000 
     50 C           0.9828  -12.9581  -42.4859 C.2       4 UNK         0.5000 
     51 O           1.5102  -13.7783  -43.2392 O.2       4 UNK        -0.5000 
     52 CA          1.8457  -12.1485  -41.5126 C.3       4 UNK         0.1400 
     53 CB          2.2119  -13.0027  -40.2848 C.3       4 UNK        -0.1800 
     54 N           3.0582  -11.6855  -42.1784 N.am      4 UNK        -0.5000 
     55 C           3.7619  -10.6110  -41.7975 C.2       3 UNK         0.5000 
     56 O           3.4639   -9.9073  -40.8310 O.2       3 UNK        -0.5000 
     57 CA          4.9935  -10.2404  -42.6384 C.3       3 UNK         0.1400 
     58 CB          6.2164  -11.0721  -42.2192 C.3       3 UNK        -0.1800 
     59 N           4.7403  -10.4172  -44.0669 N.am      3 UNK        -0.5000 
     60 C           4.1817   -9.4878  -44.8554 C.2       2 UNK         0.5000 
     61 O           3.8447   -8.3716  -44.4583 O.2       2 UNK        -0.5000 
     62 CA          3.9747   -9.8461  -46.3404 C.3       2 UNK         0.1400 
     63 CB          5.1083   -9.2589  -47.1955 C.3       2 UNK        -0.1800 
     64 N           3.9053  -11.2874  -46.5771 N.am      2 UNK        -0.5000 
     65 C           2.8346  -12.0509  -46.3190 C.2       1 UNK         0.5000 
     66 O           1.7612  -11.6054  -45.9122 O.2       1 UNK        -0.5000 
     67 C          -0.3455  -22.5455  -48.1547 C.2       11 UNK         0.5000 
     68 O          -0.2409  -23.5729  -48.8224 O.2       11 UNK        -0.5000 
     69 N          -1.4902  -21.8604  -48.0248 N.am      12 UNK        -0.5000 
     70 CA         -2.7635  -22.2418  -48.6349 C.3       12 UNK         0.1400 
     71 CB         -3.8194  -21.1646  -48.3498 C.3       12 UNK        -0.1800 
     72 C          -3.2619  -23.6198  -48.1713 C.2       12 UNK         0.5000 
     73 O          -3.7138  -24.4085  -49.0011 O.2       12 UNK        -0.5000 
     74 N          -3.1344  -23.9026  -46.8673 N.am      13 UNK        -0.5000 
     75 CA         -3.4496  -25.1985  -46.2678 C.3       13 UNK         0.1400 
     76 CB         -3.3758  -25.0942  -44.7371 C.3       13 UNK        -0.1800 
     77 C          -2.5424  -26.3273  -46.7910 C.2       13 UNK         0.5000 
     78 O          -3.0486  -27.3952  -47.1363 O.2       13 UNK        -0.5000 
     79 N          -1.2312  -26.0609  -46.8807 N.am      14 UNK        -0.5000 
     80 CA         -0.2293  -26.9832  -47.4217 C.3       14 UNK         0.1400 
     81 CB          1.1775  -26.4351  -47.1378 C.3       14 UNK        -0.1800 
     82 C          -0.4150  -27.2616  -48.9263 C.2       14 UNK         0.5000 
     83 O          -0.2561  -28.4037  -49.3585 O.2       14 UNK        -0.5000 
     84 N          -0.7740  -26.2210  -49.6891 N.am      15 UNK        -0.5000 
     85 CA         -1.0736  -26.2837  -51.1213 C.3       15 UNK         0.1400 
     86 CB         -1.0089  -24.8612  -51.6991 C.3       15 UNK        -0.1800 
     87 C          -2.4377  -26.9279  -51.4447 C.2       15 UNK         0.5000 
     88 O          -2.6810  -27.2547  -52.6068 O.2       15 UNK        -0.5000 
     89 N          -3.2961  -27.0860  -50.4260 N.am      16 UNK        -0.5000 
     90 CA         -4.6798  -27.5658  -50.4865 C.3       16 UNK         0.1400 
     91 CB         -4.7451  -29.0330  -50.9604 C.3       16 UNK        -0.1800 
     92 C          -5.5942  -26.6157  -51.2892 C.2       16 UNK         0.5000 
     93 O          -6.4315  -27.0695  -52.0716 O.2       16 UNK        -0.5000 
     94 N          -5.4159  -25.3081  -51.0532 N.am      17 UNK        -0.5000 
     95 CA         -6.1330  -24.1800  -51.6452 C.3       17 UNK         0.1400 
     96 CB         -7.5851  -24.1283  -51.1181 C.3       17 UNK        -0.1800 
     97 C          -6.0074  -24.1424  -53.1832 C.2       17 UNK         0.5000 
     98 O          -4.8908  -24.0045  -53.6868 O.2       17 UNK        -0.5000 
     99 N          -7.1410  -24.2315  -53.8961 N.am      18 UNK        -0.5000 
    100 CA        -7.2794  -24.1552  -55.3537 C.3       18 UNK         0.1400 
    101 CB        -6.6536  -25.3992  -56.0250 C.3       18 UNK        -0.1800 
    102 C         -6.7526  -22.8081  -55.8900 C.2       18 UNK         0.5000 
    103 O         -7.3070  -21.7659  -55.5390 O.2       18 UNK        -0.5000 
    104 N         -5.6813  -22.8354  -56.6930 N.am      19 UNK        -0.5000 
    105 CA        -4.9950  -21.6486  -57.2107 C.3       19 UNK         0.1400 
    106 CB        -4.0027  -22.0862  -58.2991 C.3       19 UNK        -0.1800 
    107 C         -4.2729  -20.8260  -56.1221 C.2       19 UNK         0.5000 
    108 O         -4.0089  -19.6433  -56.3386 O.2       19 UNK        -0.5000 
    109 N         -3.9779  -21.4558  -54.9780 N.am      20 UNK        -0.5000 
    110 CA        -3.3101  -20.8637  -53.8217 C.3       20 UNK         0.1400 
    111 CB        -2.0933  -21.7378  -53.4690 C.3       20 UNK        -0.1800 
    112 C         -4.2871  -20.7190  -52.6380 C.2       20 UNK         0.5000 
    113 O         -3.8685  -20.8445  -51.4900 O.2       20 UNK        -0.5000 
    114 N         -5.5754  -20.4853  -52.9311 N.am      21 UNK        -0.5000 
    115 CA        -6.6571  -20.3045  -51.9585 C.3       21 UNK         0.1400 
    116 CB        -8.0000  -20.1186  -52.6814 C.3       21 UNK        -0.1800 
    117 C         -6.4284  -19.2322  -50.8653 C.2       21 UNK         0.5000 
    118 O         -6.6251  -19.5550  -49.6957 O.2       21 UNK        -0.5000 
    119 N         -6.0120  -17.9912  -51.1584 N.am      22 UNK        -0.5000 
    120 CA        -5.9482  -17.2994  -52.4586 C.3       22 UNK         0.1400 
    121 C         -7.2707  -16.5610  -52.8267 C.2       22 UNK         0.5000 
    122 N         -8.2914  -16.5478  -51.9774 N.am      22 UNK        -0.7600 
    123 O         -7.3820  -16.0059  -53.9159 O.2       22 UNK        -0.5000 
    124 C124       -4.7442  -16.3227  -52.4990 C.3       23 UNK        -0.0398 
    125 S125       -3.1344  -17.1781  -52.5555 S.3       23 UNK        -0.2404 
    126 C126       -2.6859  -17.2940  -50.7949 C.3       23 UNK        -0.0205 
    127 H127        6.4541  -15.3546  -44.3343 H         1 UNK         0.0600 
    128 H128        7.1836  -13.8397  -44.8774 H         1 UNK         0.0600 
    129 H129        6.6953  -15.0593  -46.0591 H         1 UNK         0.0600 
    130 H130        4.7751  -14.5696  -47.0785 H         1 UNK         0.3000 
    131 H131        2.3525  -14.0685  -45.8217 H         1 UNK         0.0600 
    132 H132        1.4706  -13.5947  -48.1086 H         1 UNK         0.0800 
    133 H133        3.1009  -13.4427  -48.7255 H         1 UNK         0.0800 
    134 H134        1.6667  -14.8200  -50.3541 H         1 UNK         0.0800 
    135 H135        2.9829  -15.9308  -50.6371 H         1 UNK         0.0800 
    136 H136       -0.6249  -15.5801  -50.3030 H         1 UNK         0.1150 
    137 H137       -1.4837  -19.7263  -50.9354 H         1 UNK         0.1150 
    138 H138        2.5745  -18.4244  -50.4209 H         1 UNK         0.1150 
    139 H139        0.2222  -21.3694  -50.7861 H         1 UNK         0.0800 
    140 H140        1.4726  -20.8054  -51.8634 H         1 UNK         0.0800 
    141 H141        0.8189  -19.9936  -48.1679 H         1 UNK         0.0800 
    142 H142        2.3217  -20.4159  -47.4144 H         1 UNK         0.0800 
    143 H143        1.6150  -22.8345  -47.3510 H         1 UNK         0.0600 
    144 H144        0.6497  -20.7684  -45.6859 H         1 UNK         0.3000 
    145 H145       -0.9721  -22.8330  -43.2450 H         1 UNK         0.0600 
    146 H146        0.5748  -21.5375  -41.8172 H         1 UNK         0.0600 
    147 H147        1.4745  -22.7502  -42.7157 H         1 UNK         0.0600 
    148 H148        1.5317  -21.0644  -43.2191 H         1 UNK         0.0600 
    149 H149       -0.7142  -20.0118  -43.4217 H         1 UNK         0.3000 
    150 H150       -3.7294  -19.4146  -45.3125 H         1 UNK         0.0600 
    151 H151       -4.3416  -19.6252  -42.9141 H         1 UNK         0.0600 
    152 H152       -4.0574  -17.9420  -43.3340 H         1 UNK         0.0600 
    153 H153       -2.8399  -18.8457  -42.4362 H         1 UNK         0.0600 
    154 H154       -1.8002  -17.5757  -44.3713 H         1 UNK         0.3000 
    155 H155        0.3480  -17.6060  -47.2452 H         1 UNK         0.0600 
    156 H156       -1.6320  -15.5709  -46.0807 H         1 UNK         0.0600 
    157 H157       -1.5284  -16.0768  -47.7580 H         1 UNK         0.0600 
    158 H158       -0.2049  -15.1782  -47.0338 H         1 UNK         0.0600 
    159 H159        0.4251  -16.2045  -44.7409 H         1 UNK         0.3000 
    160 H160        2.4485  -18.5674  -42.9811 H         1 UNK         0.0600 
    161 H161        3.0256  -15.7938  -44.1378 H         1 UNK         0.0600 
    162 H162        4.0213  -17.2234  -44.3718 H         1 UNK         0.0600 
    163 H163        3.8546  -16.5248  -42.7663 H         1 UNK         0.0600 
    164 H164        1.3257  -15.9839  -42.3566 H         1 UNK         0.3000 
    165 H165       -1.7435  -17.1821  -41.0032 H         1 UNK         0.0600 
    166 H166       -0.9183  -16.1110  -38.9240 H         1 UNK         0.0600 
    167 H167       -0.1284  -17.6626  -39.1535 H         1 UNK         0.0600 
    168 H168        0.7431  -16.1769  -39.5139 H         1 UNK         0.0600 
    169 H169       -0.5600  -14.6107  -40.9389 H         1 UNK         0.3000 
    170 H170       -1.0741  -13.5153  -44.1940 H         1 UNK         0.0600 
    171 H171       -3.4813  -13.4102  -43.5372 H         1 UNK         0.0600 
    172 H172       -3.0341  -12.8673  -41.9243 H         1 UNK         0.0600 
    173 H173       -2.7022  -11.8505  -43.3278 H         1 UNK         0.0600 
    174 H174       -0.6984  -12.0971  -41.7354 H         1 UNK         0.3000 
    175 H175        1.2673  -11.2819  -41.1845 H         1 UNK         0.0600 
    176 H176        2.8099  -13.8707  -40.5661 H         1 UNK         0.0600 
    177 H177        2.7823  -12.4269  -39.5558 H         1 UNK         0.0600 
    178 H178        1.3180  -13.3681  -39.7781 H         1 UNK         0.0600 
    179 H179        3.3645  -12.2409  -42.9734 H         1 UNK         0.3000 
    180 H180        5.2289   -9.1918  -42.4434 H         1 UNK         0.0600 
    181 H181        6.0462  -12.1417  -42.3418 H         1 UNK         0.0600 
    182 H182        6.4593  -10.9005  -41.1699 H         1 UNK         0.0600 
    183 H183        7.0957  -10.8031  -42.8046 H         1 UNK         0.0600 
    184 H184        4.9098  -11.3444  -44.4380 H         1 UNK         0.3000 
    185 H185        3.0353   -9.3915  -46.6625 H         1 UNK         0.0600 
    186 H186        4.9427   -9.4506  -48.2559 H         1 UNK         0.0600 
    187 H187        5.1734   -8.1775  -47.0687 H         1 UNK         0.0600 
    188 H188        6.0772   -9.6800  -46.9244 H         1 UNK         0.0600 
    189 H189        4.7468  -11.7362  -46.9088 H         1 UNK         0.3000 
    190 H190       -1.4901  -20.9887  -47.4986 H         1 UNK         0.3000 
    191 H191       -2.6049  -22.2950  -49.7131 H         1 UNK         0.0600 
    192 H192       -3.9904  -21.0331  -47.2819 H         1 UNK         0.0600 
    193 H193       -4.7738  -21.4281  -48.8067 H         1 UNK         0.0600 
    194 H194       -3.5199  -20.2014  -48.7632 H         1 UNK         0.0600 
    195 H195       -2.8033  -23.1755  -46.2396 H         1 UNK         0.3000 
    196 H196       -4.4776  -25.4472  -46.5394 H         1 UNK         0.0600 
    197 H197       -3.6300  -26.0455  -44.2682 H         1 UNK         0.0600 
    198 H198       -4.0751  -24.3478  -44.3599 H         1 UNK         0.0600 
    199 H199       -2.3779  -24.8166  -44.3977 H         1 UNK         0.0600 
    200 H200       -0.8893  -25.1654  -46.5442 H         1 UNK         0.3000 
    201 H201       -0.3337  -27.9340  -46.8950 H         1 UNK         0.0600 
    202 H202        1.3424  -26.3094  -46.0675 H         1 UNK         0.0600 
    203 H203        1.3377  -25.4681  -47.6153 H         1 UNK         0.0600 
    204 H204        1.9447  -27.1161  -47.5081 H         1 UNK         0.0600 
    205 H205       -0.8025  -25.2960  -49.2649 H         1 UNK         0.3000 
    206 H206       -0.3035  -26.8855  -51.6080 H         1 UNK         0.0600 
    207 H207       -0.0306  -24.4095  -51.5335 H         1 UNK         0.0600 
    208 H208       -1.1860  -24.8668  -52.7752 H         1 UNK         0.0600 
    209 H209       -1.7585  -24.2120  -51.2445 H         1 UNK         0.0600 
    210 H210       -2.9952  -26.7567  -49.5181 H         1 UNK         0.3000 
    211 H211       -5.0479  -27.5403  -49.4598 H         1 UNK         0.0600 
    212 H212       -4.4581  -29.1377  -52.0069 H         1 UNK         0.0600 
    213 H213       -5.7563  -29.4289  -50.8600 H         1 UNK         0.0600 
    214 H214       -4.0880  -29.6680  -50.3662 H         1 UNK         0.0600 
    215 H215       -4.6944  -25.0478  -50.3820 H         1 UNK         0.3000 
    216 H216       -5.6188  -23.2895  -51.2825 H         1 UNK         0.0600 
    217 H217       -8.1177  -23.2559  -51.4980 H         1 UNK         0.0600 
    218 H218       -7.5975  -24.0580  -50.0303 H         1 UNK         0.0600 
    219 H219       -8.1562  -25.0150  -51.3952 H         1 UNK         0.0600 
    220 H220       -8.0071  -24.3276  -53.3859 H         1 UNK         0.3000 
    221 H221       -8.3492  -24.1696  -55.5667 H         1 UNK         0.0600 
    222 H222       -5.5813  -25.4773  -55.8426 H         1 UNK         0.0600 
    223 H223       -7.1140  -26.3127  -55.6482 H         1 UNK         0.0600 
    224 H224       -6.8099  -25.3851  -57.1043 H         1 UNK         0.0600 
    225 H225       -5.2706  -23.7302  -56.9171 H         1 UNK         0.3000 
    226 H226       -5.7421  -20.9979  -57.6702 H         1 UNK         0.0600 
    227 H227       -4.5113  -22.6042  -59.1124 H         1 UNK         0.0600 
    228 H228       -3.4931  -21.2249  -58.7330 H         1 UNK         0.0600 
    229 H229       -3.2376  -22.7537  -57.9004 H         1 UNK         0.0600 
    230 H230       -4.2753  -22.4190  -54.8559 H         1 UNK         0.3000 
    231 H231       -2.9473  -19.8618  -54.0575 H         1 UNK         0.0600 
    232 H232       -1.5207  -21.3121  -52.6459 H         1 UNK         0.0600 
    233 H233       -1.4157  -21.8322  -54.3175 H         1 UNK         0.0600 
    234 H234       -2.4019  -22.7403  -53.1732 H         1 UNK         0.0600 
    235 H235       -5.8387  -20.4417  -53.9056 H         1 UNK         0.3000 
    236 H236       -6.7292  -21.2472  -51.4167 H         1 UNK         0.0600 
    237 H237       -7.9500  -19.3484  -53.4501 H         1 UNK         0.0600 
    238 H238       -8.3119  -21.0449  -53.1634 H         1 UNK         0.0600 
    239 H239       -8.7918  -19.8404  -51.9845 H         1 UNK         0.0600 
    240 H240       -5.8462  -17.3816  -50.3728 H         1 UNK         0.3000 
    241 H241       -5.8023  -18.0154  -53.2633 H         1 UNK         0.0600 
    242 H242       -9.1418  -16.0714  -52.2348 H         1 UNK         0.3800 
    243 H243       -8.2234  -16.9950  -51.0771 H         1 UNK         0.3800 
    244 H244       -4.7849  -15.6996  -53.3943 H         1 UNK         0.0800 
    245 H245       -4.7720  -15.6310  -51.6558 H         1 UNK         0.0800 
    246 H246       -3.2859  -18.0686  -50.3146 H         1 UNK         0.0800 
    247 H247       -2.9162  -16.3565  -50.2870 H         1 UNK         0.0800 
@<TRIPOS>BOND
     1    1    2 1    
     2    1  127 1    
     3    1  128 1    
     4    1  129 1    
     5    2    3 2    
     6    2    4 am   BACKBONE|DICT|INTERRES
     7    4    5 1    
     8    4  130 1    
     9    5    6 1    
    10    5   65 1    
    11    5  131 1    
    12    6    7 1    
    13    6  132 1    
    14    6  133 1    
    15    7    8 1    
    16    8    9 1    
    17    8  134 1    
    18    8  135 1    
    19    9   10 ar   
    20    9   14 ar   
    21   10   11 ar   
    22   10  136 1    
    23   11   12 ar   
    24   11  126 1    
    25   12   13 ar   
    26   12  137 1    
    27   13   14 ar   
    28   13   15 1    
    29   14  138 1    
    30   15   16 1    
    31   15  139 1    
    32   15  140 1    
    33   16   17 1    
    34   17   18 1    
    35   17  141 1    
    36   17  142 1    
    37   18   19 1    
    38   18   67 1    
    39   18  143 1    
    40   19   20 am   BACKBONE|DICT|INTERRES
    41   19  144 1    
    42   20   21 2    
    43   20   22 1    
    44   22   23 1    
    45   22   24 1    
    46   22  145 1    
    47   23  146 1    
    48   23  147 1    
    49   23  148 1    
    50   24   25 am   BACKBONE|DICT|INTERRES
    51   24  149 1    
    52   25   26 2    
    53   25   27 1    
    54   27   28 1    
    55   27   29 1    
    56   27  150 1    
    57   28  151 1    
    58   28  152 1    
    59   28  153 1    
    60   29   30 am   BACKBONE|DICT|INTERRES
    61   29  154 1    
    62   30   31 2    
    63   30   32 1    
    64   32   33 1    
    65   32   34 1    
    66   32  155 1    
    67   33  156 1    
    68   33  157 1    
    69   33  158 1    
    70   34   35 am   BACKBONE|DICT|INTERRES
    71   34  159 1    
    72   35   36 2    
    73   35   37 1    
    74   37   38 1    
    75   37   39 1    
    76   37  160 1    
    77   38  161 1    
    78   38  162 1    
    79   38  163 1    
    80   39   40 am   BACKBONE|DICT|INTERRES
    81   39  164 1    
    82   40   41 2    
    83   40   42 1    
    84   42   43 1    
    85   42   44 1    
    86   42  165 1    
    87   43  166 1    
    88   43  167 1    
    89   43  168 1    
    90   44   45 am   BACKBONE|DICT|INTERRES
    91   44  169 1    
    92   45   46 2    
    93   45   47 1    
    94   47   48 1    
    95   47   49 1    
    96   47  170 1    
    97   48  171 1    
    98   48  172 1    
    99   48  173 1    
   100   49   50 am   BACKBONE|DICT|INTERRES
   101   49  174 1    
   102   50   51 2    
   103   50   52 1    
   104   52   53 1    
   105   52   54 1    
   106   52  175 1    
   107   53  176 1    
   108   53  177 1    
   109   53  178 1    
   110   54   55 am   BACKBONE|DICT|INTERRES
   111   54  179 1    
   112   55   56 2    
   113   55   57 1    
   114   57   58 1    
   115   57   59 1    
   116   57  180 1    
   117   58  181 1    
   118   58  182 1    
   119   58  183 1    
   120   59   60 am   BACKBONE|DICT|INTERRES
   121   59  184 1    
   122   60   61 2    
   123   60   62 1    
   124   62   63 1    
   125   62   64 1    
   126   62  185 1    
   127   63  186 1    
   128   63  187 1    
   129   63  188 1    
   130   64   65 am   BACKBONE|DICT|INTERRES
   131   64  189 1    
   132   65   66 2    
   133   67   68 2    
   134   67   69 am   BACKBONE|DICT|INTERRES
   135   69   70 1    
   136   69  190 1    
   137   70   71 1    
   138   70   72 1    
   139   70  191 1    
   140   71  192 1    
   141   71  193 1    
   142   71  194 1    
   143   72   73 2    
   144   72   74 am   BACKBONE|DICT|INTERRES
   145   74   75 1    
   146   74  195 1    
   147   75   76 1    
   148   75   77 1    
   149   75  196 1    
   150   76  197 1    
   151   76  198 1    
   152   76  199 1    
   153   77   78 2    
   154   77   79 am   BACKBONE|DICT|INTERRES
   155   79   80 1    
   156   79  200 1    
   157   80   81 1    
   158   80   82 1    
   159   80  201 1    
   160   81  202 1    
   161   81  203 1    
   162   81  204 1    
   163   82   83 2    
   164   82   84 am   BACKBONE|DICT|INTERRES
   165   84   85 1    
   166   84  205 1    
   167   85   86 1    
   168   85   87 1    
   169   85  206 1    
   170   86  207 1    
   171   86  208 1    
   172   86  209 1    
   173   87   88 2    
   174   87   89 am   BACKBONE|DICT|INTERRES
   175   89   90 1    
   176   89  210 1    
   177   90   91 1    
   178   90   92 1    
   179   90  211 1    
   180   91  212 1    
   181   91  213 1    
   182   91  214 1    
   183   92   93 2    
   184   92   94 am   BACKBONE|DICT|INTERRES
   185   94   95 1    
   186   94  215 1    
   187   95   96 1    
   188   95   97 1    
   189   95  216 1    
   190   96  217 1    
   191   96  218 1    
   192   96  219 1    
   193   97   98 2    
   194   97   99 am   BACKBONE|DICT|INTERRES
   195   99  100 1    
   196   99  220 1    
   197  100  101 1    
   198  100  102 1    
   199  100  221 1    
   200  101  222 1    
   201  101  223 1    
   202  101  224 1    
   203  102  103 2    
   204  102  104 am   BACKBONE|DICT|INTERRES
   205  104  105 1    
   206  104  225 1    
   207  105  106 1    
   208  105  107 1    
   209  105  226 1    
   210  106  227 1    
   211  106  228 1    
   212  106  229 1    
   213  107  108 2    
   214  107  109 am   BACKBONE|DICT|INTERRES
   215  109  110 1    
   216  109  230 1    
   217  110  111 1    
   218  110  112 1    
   219  110  231 1    
   220  111  232 1    
   221  111  233 1    
   222  111  234 1    
   223  112  113 2    
   224  112  114 am   BACKBONE|DICT|INTERRES
   225  114  115 1    
   226  114  235 1    
   227  115  116 1    
   228  115  117 1    
   229  115  236 1    
   230  116  237 1    
   231  116  238 1    
   232  116  239 1    
   233  117  118 2    
   234  117  119 am   BACKBONE|DICT|INTERRES
   235  119  120 1    
   236  119  240 1    
   237  120  121 1    
   238  120  124 1    
   239  120  241 1    
   240  121  122 am   BACKBONE|DICT|INTERRES
   241  121  123 2    
   242  122  242 1    
   243  122  243 1    
   244  124  125 1    
   245  124  244 1    
   246  124  245 1    
   247  125  126 1    
   248  126  246 1    
   249  126  247 1    
@<TRIPOS>SUBSTRUCTURE
     1 UNK         1 GROUP             0       ****    0 ROOT    
