@<TRIPOS>MOLECULE
3R540
247   249    1
SMALL
USER_CHARGES


@<TRIPOS>ATOM
      1 CA          2.1827   -9.1388  -48.9911 C.3       0 UNK        -0.1800 
      2 C           1.5592  -10.4154  -48.4478 C.2       0 UNK         0.5000 
      3 O           1.4720  -10.5838  -47.2326 O.2       0 UNK        -0.5000 
      4 N           1.1036  -11.3067  -49.3380 N.am      1 UNK        -0.5000 
      5 CA          0.4965  -12.6067  -49.0117 C.3       1 UNK         0.1400 
      6 C6          0.2786  -13.4559  -50.2937 C.3       23 UNK        -0.0398 
      7 S7          0.5980  -15.2359  -50.0530 S.3       23 UNK        -0.2404 
      8 C8          2.4062  -15.2979  -50.2550 C.3       23 UNK        -0.0205 
      9 C9          2.8552  -16.6035  -50.8913 C.ar      23 UNK        -0.0193 
     10 C10         2.7734  -16.7623  -52.2778 C.ar      23 UNK        -0.1150 
     11 C11         3.2197  -17.9379  -52.8866 C.ar      23 UNK        -0.0193 
     12 C12         3.7544  -18.9580  -52.0936 C.ar      23 UNK        -0.1150 
     13 C13         3.8514  -18.8131  -50.7061 C.ar      23 UNK        -0.0193 
     14 C14         3.3933  -17.6315  -50.1103 C.ar      23 UNK        -0.1150 
     15 C15         4.5288  -19.9058  -49.8813 C.3       23 UNK        -0.0205 
     16 S16         3.6419  -20.3409  -48.3499 S.3       23 UNK        -0.2404 
     17 C17         2.1223  -21.1106  -48.9946 C.3       23 UNK        -0.0398 
     18 CA          1.7692  -22.4413  -48.2843 C.3       11 UNK         0.1400 
     19 N           1.5001  -22.2621  -46.8536 N.am      11 UNK        -0.5000 
     20 C           1.3583  -23.2579  -45.9672 C.2       10 UNK         0.5000 
     21 O           1.5330  -24.4460  -46.2381 O.2       10 UNK        -0.5000 
     22 CA          0.9117  -22.8679  -44.5457 C.3       10 UNK         0.1400 
     23 CB          2.1143  -22.4815  -43.6712 C.3       10 UNK        -0.1800 
     24 N          -0.0684  -21.7813  -44.5469 N.am      10 UNK        -0.5000 
     25 C          -1.3299  -21.9040  -44.9833 C.2       9 UNK         0.5000 
     26 O          -1.8132  -22.9602  -45.3940 O.2       9 UNK        -0.5000 
     27 CA         -2.1879  -20.6259  -44.9955 C.3       9 UNK         0.1400 
     28 CB         -2.7737  -20.3626  -43.6008 C.3       9 UNK        -0.1800 
     29 N          -1.4613  -19.4407  -45.4501 N.am      9 UNK        -0.5000 
     30 C          -0.8999  -19.3013  -46.6598 C.2       8 UNK         0.5000 
     31 O          -0.9546  -20.1562  -47.5409 O.2       8 UNK        -0.5000 
     32 CA         -0.0677  -18.0289  -46.8973 C.3       8 UNK         0.1400 
     33 CB         -0.9808  -16.8380  -47.2109 C.3       8 UNK        -0.1800 
     34 N           0.8013  -17.6989  -45.7656 N.am      8 UNK        -0.5000 
     35 C           1.7258  -18.5183  -45.2431 C.2       7 UNK         0.5000 
     36 O           1.9500  -19.6524  -45.6588 O.2       7 UNK        -0.5000 
     37 CA          2.4770  -18.0143  -44.0029 C.3       7 UNK         0.1400 
     38 CB          3.5737  -17.0094  -44.3872 C.3       7 UNK        -0.1800 
     39 N           1.5515  -17.4137  -43.0446 N.am      7 UNK        -0.5000 
     40 C           0.7013  -18.1192  -42.2844 C.2       6 UNK         0.5000 
     41 O           0.6674  -19.3500  -42.2573 O.2       6 UNK        -0.5000 
     42 CA         -0.3016  -17.3131  -41.4377 C.3       6 UNK         0.1400 
     43 CB          0.3212  -16.9182  -40.0904 C.3       6 UNK        -0.1800 
     44 N          -0.7809  -16.1100  -42.1208 N.am      6 UNK        -0.5000 
     45 C          -1.5534  -16.1204  -43.2162 C.2       5 UNK         0.5000 
     46 O          -1.9725  -17.1491  -43.7447 O.2       5 UNK        -0.5000 
     47 CA         -1.8795  -14.7562  -43.8510 C.3       5 UNK         0.1400 
     48 CB         -3.1516  -14.1603  -43.2314 C.3       5 UNK        -0.1800 
     49 N          -0.7938  -13.7794  -43.7514 N.am      5 UNK        -0.5000 
     50 C           0.4324  -13.9207  -44.2718 C.2       4 UNK         0.5000 
     51 O           0.8234  -14.9605  -44.8047 O.2       4 UNK        -0.5000 
     52 CA          1.3676  -12.6961  -44.1760 C.3       4 UNK         0.1400 
     53 CB          2.6667  -12.8835  -44.9800 C.3       4 UNK        -0.1800 
     54 N           0.7092  -11.4730  -44.6359 N.am      4 UNK        -0.5000 
     55 C          -0.1440  -10.7226  -43.9273 C.2       3 UNK         0.5000 
     56 O          -0.4652  -10.9705  -42.7645 O.2       3 UNK        -0.5000 
     57 CA         -0.7920   -9.5415  -44.6660 C.3       3 UNK         0.1400 
     58 CB          0.1943   -8.3730  -44.8208 C.3       3 UNK        -0.1800 
     59 N          -1.2754   -9.9592  -45.9818 N.am      3 UNK        -0.5000 
     60 C          -2.4453  -10.5792  -46.1938 C.2       2 UNK         0.5000 
     61 O          -3.2730  -10.7960  -45.3084 O.2       2 UNK        -0.5000 
     62 CA         -2.7484  -11.0337  -47.6353 C.3       2 UNK         0.1400 
     63 CB         -3.5214   -9.9424  -48.3914 C.3       2 UNK        -0.1800 
     64 N          -1.5443  -11.3776  -48.3931 N.am      2 UNK        -0.5000 
     65 C          -0.8035  -12.4758  -48.1828 C.2       1 UNK         0.5000 
     66 O          -1.0943  -13.3388  -47.3566 O.2       1 UNK        -0.5000 
     67 C           0.5853  -23.1314  -48.9953 C.2       11 UNK         0.5000 
     68 O           0.8051  -24.0289  -49.8081 O.2       11 UNK        -0.5000 
     69 N          -0.6417  -22.6966  -48.6753 N.am      12 UNK        -0.5000 
     70 CA         -1.8970  -23.2328  -49.1956 C.3       12 UNK         0.1400 
     71 CB         -3.0601  -22.3622  -48.7007 C.3       12 UNK        -0.1800 
     72 C          -2.1318  -24.6942  -48.7903 C.2       12 UNK         0.5000 
     73 O          -2.4269  -25.5195  -49.6556 O.2       12 UNK        -0.5000 
     74 N          -2.0084  -24.9727  -47.4831 N.am      13 UNK        -0.5000 
     75 CA         -2.2135  -26.2668  -46.8304 C.3       13 UNK         0.1400 
     76 CB         -1.0346  -27.2134  -47.1453 C.3       13 UNK        -0.1800 
     77 C          -3.5988  -26.8586  -47.1651 C.2       13 UNK         0.5000 
     78 O          -4.6005  -26.4012  -46.6140 O.2       13 UNK        -0.5000 
     79 N          -3.6347  -27.8278  -48.0893 N.am      14 UNK        -0.5000 
     80 CA         -4.8421  -28.4721  -48.6056 C.3       14 UNK         0.1400 
     81 CB         -4.4314  -29.6733  -49.4705 C.3       14 UNK        -0.1800 
     82 C          -5.7735  -27.5325  -49.3988 C.2       14 UNK         0.5000 
     83 O          -6.9683  -27.8201  -49.4902 O.2       14 UNK        -0.5000 
     84 N          -5.2455  -26.4223  -49.9391 N.am      15 UNK        -0.5000 
     85 CA         -6.0008  -25.3931  -50.6633 C.3       15 UNK         0.1400 
     86 CB         -5.0497  -24.6244  -51.5955 C.3       15 UNK        -0.1800 
     87 C          -6.7791  -24.4703  -49.6991 C.2       15 UNK         0.5000 
     88 O          -6.5219  -23.2641  -49.6280 O.2       15 UNK        -0.5000 
     89 N          -7.6856  -25.0882  -48.9273 N.am      16 UNK        -0.5000 
     90 CA         -8.6025  -24.5183  -47.9302 C.3       16 UNK         0.1400 
     91 CB         -9.6291  -23.6022  -48.6274 C.3       16 UNK        -0.1800 
     92 C          -7.9206  -23.8007  -46.7442 C.2       16 UNK         0.5000 
     93 O          -8.6141  -23.1635  -45.9503 O.2       16 UNK        -0.5000 
     94 N          -6.5836  -23.8853  -46.6615 N.am      17 UNK        -0.5000 
     95 CA         -5.6896  -23.1090  -45.7971 C.3       17 UNK         0.1400 
     96 CB         -5.8223  -23.5635  -44.3299 C.3       17 UNK        -0.1800 
     97 C          -5.8639  -21.5814  -45.9768 C.2       17 UNK         0.5000 
     98 O          -5.6940  -20.8331  -45.0139 O.2       17 UNK        -0.5000 
     99 N          -6.2326  -21.1489  -47.1932 N.am      18 UNK        -0.5000 
    100 CA        -6.6574  -19.7744  -47.4767 C.3       18 UNK         0.1400 
    101 CB        -8.1951  -19.7302  -47.4977 C.3       18 UNK        -0.1800 
    102 C         -6.0822  -19.2002  -48.7823 C.2       18 UNK         0.5000 
    103 O         -6.1263  -17.9815  -48.9579 O.2       18 UNK        -0.5000 
    104 N         -5.5746  -20.0579  -49.6777 N.am      19 UNK        -0.5000 
    105 CA        -4.9478  -19.6640  -50.9405 C.3       19 UNK         0.1400 
    106 CB        -5.2335  -20.7654  -51.9819 C.3       19 UNK        -0.1800 
    107 C         -3.4434  -19.3694  -50.7337 C.2       19 UNK         0.5000 
    108 O         -3.0836  -18.6044  -49.8388 O.2       19 UNK        -0.5000 
    109 N         -2.5917  -20.0055  -51.5422 N.am      20 UNK        -0.5000 
    110 CA        -1.1359  -20.0330  -51.4628 C.3       20 UNK         0.1400 
    111 CB        -0.5400  -18.6935  -51.9322 C.3       20 UNK        -0.1800 
    112 C         -0.6637  -21.2014  -52.3444 C.2       20 UNK         0.5000 
    113 O         -1.4755  -21.7742  -53.0785 O.2       20 UNK        -0.5000 
    114 N          0.6347  -21.5295  -52.2935 N.am      21 UNK        -0.5000 
    115 CA         1.2372  -22.6183  -53.0802 C.3       21 UNK         0.1400 
    116 CB         2.6843  -22.8503  -52.6183 C.3       21 UNK        -0.1800 
    117 C          1.1918  -22.3647  -54.6017 C.2       21 UNK         0.5000 
    118 O          1.1179  -23.3113  -55.3852 O.2       21 UNK        -0.5000 
    119 N          1.2041  -21.0816  -54.9732 N.am      22 UNK        -0.5000 
    120 CA         0.9605  -20.5491  -56.3200 C.3       22 UNK         0.1400 
    121 C         -0.5406  -20.5137  -56.7433 C.2       22 UNK         0.5000 
    122 N         -1.4962  -20.8988  -55.9047 N.am      22 UNK        -0.7600 
    123 O         -0.8476  -20.1454  -57.8740 O.2       22 UNK        -0.5000 
    124 C124        1.6589  -19.1717  -56.5122 C.3       23 UNK        -0.0398 
    125 S125        1.4882  -18.0473  -55.0737 S.3       23 UNK        -0.2404 
    126 C126        3.1836  -18.0868  -54.4017 C.3       23 UNK        -0.0205 
    127 H127        3.2169   -9.0572  -48.6569 H         1 UNK         0.0600 
    128 H128        2.1732   -9.1140  -50.0810 H         1 UNK         0.0600 
    129 H129        1.6357   -8.2700  -48.6249 H         1 UNK         0.0600 
    130 H130        1.1957  -11.0996  -50.3224 H         1 UNK         0.3000 
    131 H131        1.2203  -13.1194  -48.3741 H         1 UNK         0.0600 
    132 H132       -0.7334  -13.3366  -50.6855 H         1 UNK         0.0800 
    133 H133        0.9269  -13.1143  -51.1016 H         1 UNK         0.0800 
    134 H134        2.7521  -14.4701  -50.8752 H         1 UNK         0.0800 
    135 H135        2.8765  -15.1627  -49.2797 H         1 UNK         0.0800 
    136 H136        2.3698  -15.9652  -52.8865 H         1 UNK         0.1150 
    137 H137        4.1358  -19.8521  -52.5642 H         1 UNK         0.1150 
    138 H138        3.4782  -17.5021  -49.0404 H         1 UNK         0.1150 
    139 H139        4.6706  -20.8114  -50.4734 H         1 UNK         0.0800 
    140 H140        5.5273  -19.5588  -49.6128 H         1 UNK         0.0800 
    141 H141        2.2594  -21.2823  -50.0608 H         1 UNK         0.0800 
    142 H142        1.3112  -20.3879  -48.9017 H         1 UNK         0.0800 
    143 H143        2.6298  -23.1077  -48.3740 H         1 UNK         0.0600 
    144 H144        1.4270  -21.3037  -46.5218 H         1 UNK         0.3000 
    145 H145        0.4394  -23.7440  -44.0962 H         1 UNK         0.0600 
    146 H146        1.8011  -22.2369  -42.6560 H         1 UNK         0.0600 
    147 H147        2.8256  -23.3055  -43.6037 H         1 UNK         0.0600 
    148 H148        2.6496  -21.6209  -44.0714 H         1 UNK         0.0600 
    149 H149        0.2596  -20.8725  -44.2475 H         1 UNK         0.3000 
    150 H150       -3.0109  -20.7880  -45.6922 H         1 UNK         0.0600 
    151 H151       -3.3222  -21.2317  -43.2359 H         1 UNK         0.0600 
    152 H152       -3.4724  -19.5261  -43.6208 H         1 UNK         0.0600 
    153 H153       -1.9955  -20.1321  -42.8724 H         1 UNK         0.0600 
    154 H154       -1.4129  -18.6623  -44.7983 H         1 UNK         0.3000 
    155 H155        0.5774  -18.2010  -47.7614 H         1 UNK         0.0600 
    156 H156       -0.4063  -15.9177  -47.3091 H         1 UNK         0.0600 
    157 H157       -1.7287  -16.6835  -46.4345 H         1 UNK         0.0600 
    158 H158       -1.5125  -16.9946  -48.1502 H         1 UNK         0.0600 
    159 H159        0.7025  -16.7664  -45.3720 H         1 UNK         0.3000 
    160 H160        2.9596  -18.8714  -43.5280 H         1 UNK         0.0600 
    161 H161        3.1705  -16.1478  -44.9182 H         1 UNK         0.0600 
    162 H162        4.3109  -17.4764  -45.0414 H         1 UNK         0.0600 
    163 H163        4.1034  -16.6454  -43.5068 H         1 UNK         0.0600 
    164 H164        1.4652  -16.4077  -43.0682 H         1 UNK         0.3000 
    165 H165       -1.1617  -17.9569  -41.2410 H         1 UNK         0.0600 
    166 H166        1.1751  -16.2520  -40.2198 H         1 UNK         0.0600 
    167 H167       -0.4053  -16.4138  -39.4529 H         1 UNK         0.0600 
    168 H168        0.6705  -17.7987  -39.5495 H         1 UNK         0.0600 
    169 H169       -0.4800  -15.2198  -41.7522 H         1 UNK         0.3000 
    170 H170       -2.0669  -14.9217  -44.9132 H         1 UNK         0.0600 
    171 H171       -3.9882  -14.8556  -43.3119 H         1 UNK         0.0600 
    172 H172       -3.0148  -13.9297  -42.1742 H         1 UNK         0.0600 
    173 H173       -3.4437  -13.2414  -43.7405 H         1 UNK         0.0600 
    174 H174       -1.0157  -12.8912  -43.3167 H         1 UNK         0.3000 
    175 H175        1.6394  -12.5776  -43.1253 H         1 UNK         0.0600 
    176 H176        2.4620  -13.0607  -46.0367 H         1 UNK         0.0600 
    177 H177        3.3061  -12.0036  -44.9073 H         1 UNK         0.0600 
    178 H178        3.2408  -13.7316  -44.6065 H         1 UNK         0.0600 
    179 H179        0.9129  -11.1959  -45.5940 H         1 UNK         0.3000 
    180 H180       -1.6355   -9.1892  -44.0681 H         1 UNK         0.0600 
    181 H181        1.0709   -8.6512  -45.4062 H         1 UNK         0.0600 
    182 H182        0.5469   -8.0314  -43.8468 H         1 UNK         0.0600 
    183 H183       -0.2787   -7.5222  -45.3114 H         1 UNK         0.0600 
    184 H184       -0.6224   -9.8767  -46.7487 H         1 UNK         0.3000 
    185 H185       -3.3824  -11.9210  -47.5758 H         1 UNK         0.0600 
    186 H186       -3.8050  -10.2788  -49.3888 H         1 UNK         0.0600 
    187 H187       -4.4399   -9.6793  -47.8651 H         1 UNK         0.0600 
    188 H188       -2.9318   -9.0309  -48.4982 H         1 UNK         0.0600 
    189 H189       -1.2357  -10.7130  -49.0876 H         1 UNK         0.3000 
    190 H190       -0.7238  -21.9004  -48.0458 H         1 UNK         0.3000 
    191 H191       -1.8609  -23.1802  -50.2854 H         1 UNK         0.0600 
    192 H192       -2.8959  -21.3162  -48.9387 H         1 UNK         0.0600 
    193 H193       -4.0014  -22.6641  -49.1559 H         1 UNK         0.0600 
    194 H194       -3.1807  -22.4210  -47.6212 H         1 UNK         0.0600 
    195 H195       -1.8095  -24.2037  -46.8476 H         1 UNK         0.3000 
    196 H196       -2.2094  -26.0772  -45.7560 H         1 UNK         0.0600 
    197 H197       -1.1690  -28.1834  -46.6650 H         1 UNK         0.0600 
    198 H198       -0.0983  -26.7977  -46.7724 H         1 UNK         0.0600 
    199 H199       -0.9106  -27.3831  -48.2153 H         1 UNK         0.0600 
    200 H200       -2.7633  -28.0987  -48.5214 H         1 UNK         0.3000 
    201 H201       -5.4106  -28.8446  -47.7511 H         1 UNK         0.0600 
    202 H202       -3.8449  -30.3912  -48.8967 H         1 UNK         0.0600 
    203 H203       -3.8370  -29.3638  -50.3312 H         1 UNK         0.0600 
    204 H204       -5.3077  -30.2012  -49.8492 H         1 UNK         0.0600 
    205 H205       -4.2532  -26.2442  -49.8101 H         1 UNK         0.3000 
    206 H206       -6.7402  -25.8869  -51.2972 H         1 UNK         0.0600 
    207 H207       -4.5368  -25.3008  -52.2792 H         1 UNK         0.0600 
    208 H208       -5.6013  -23.9073  -52.2041 H         1 UNK         0.0600 
    209 H209       -4.2906  -24.0746  -51.0417 H         1 UNK         0.0600 
    210 H210       -7.7473  -26.0966  -49.0401 H         1 UNK         0.3000 
    211 H211       -9.1448  -25.3613  -47.5000 H         1 UNK         0.0600 
    212 H212       -9.1573  -22.7144  -49.0492 H         1 UNK         0.0600 
    213 H213      -10.3961  -23.2639  -47.9297 H         1 UNK         0.0600 
    214 H214      -10.1390  -24.1260  -49.4359 H         1 UNK         0.0600 
    215 H215       -6.1207  -24.4814  -47.3334 H         1 UNK         0.3000 
    216 H216       -4.6748  -23.3458  -46.1167 H         1 UNK         0.0600 
    217 H217       -5.6905  -24.6419  -44.2409 H         1 UNK         0.0600 
    218 H218       -6.7965  -23.3073  -43.9126 H         1 UNK         0.0600 
    219 H219       -5.0627  -23.0932  -43.7048 H         1 UNK         0.0600 
    220 H220       -6.3820  -21.8355  -47.9227 H         1 UNK         0.3000 
    221 H221       -6.3112  -19.1058  -46.6858 H         1 UNK         0.0600 
    222 H222       -8.6029  -20.3719  -48.2793 H         1 UNK         0.0600 
    223 H223       -8.6117  -20.0586  -46.5452 H         1 UNK         0.0600 
    224 H224       -8.5581  -18.7178  -47.6791 H         1 UNK         0.0600 
    225 H225       -5.5892  -21.0472  -49.4785 H         1 UNK         0.3000 
    226 H226       -5.4055  -18.7419  -51.3046 H         1 UNK         0.0600 
    227 H227       -6.3042  -20.9517  -52.0702 H         1 UNK         0.0600 
    228 H228       -4.8780  -20.4802  -52.9729 H         1 UNK         0.0600 
    229 H229       -4.7583  -21.7079  -51.7105 H         1 UNK         0.0600 
    230 H230       -2.9531  -20.6416  -52.2440 H         1 UNK         0.3000 
    231 H231       -0.8399  -20.2315  -50.4310 H         1 UNK         0.0600 
    232 H232        0.5484  -18.7057  -51.8782 H         1 UNK         0.0600 
    233 H233       -0.8764  -17.8660  -51.3077 H         1 UNK         0.0600 
    234 H234       -0.8183  -18.4690  -52.9625 H         1 UNK         0.0600 
    235 H235        1.2590  -20.9903  -51.7147 H         1 UNK         0.3000 
    236 H236        0.6675  -23.5289  -52.8817 H         1 UNK         0.0600 
    237 H237        3.1433  -23.6666  -53.1776 H         1 UNK         0.0600 
    238 H238        3.3032  -21.9669  -52.7673 H         1 UNK         0.0600 
    239 H239        2.7287  -23.1228  -51.5645 H         1 UNK         0.0600 
    240 H240        1.2618  -20.3784  -54.2515 H         1 UNK         0.3000 
    241 H241        1.4260  -21.2387  -57.0265 H         1 UNK         0.0600 
    242 H242       -1.2884  -21.2372  -54.9722 H         1 UNK         0.3800 
    243 H243       -2.4539  -20.8727  -56.2158 H         1 UNK         0.3800 
    244 H244        2.7173  -19.3377  -56.7144 H         1 UNK         0.0800 
    245 H245        1.2897  -18.6555  -57.4000 H         1 UNK         0.0800 
    246 H246        3.7655  -17.2845  -54.8573 H         1 UNK         0.0800 
    247 H247        3.6735  -19.0187  -54.6876 H         1 UNK         0.0800 
@<TRIPOS>BOND
     1    1    2 1    
     2    1  127 1    
     3    1  128 1    
     4    1  129 1    
     5    2    3 2    
     6    2    4 am   BACKBONE|DICT|INTERRES
     7    4    5 1    
     8    4  130 1    
     9    5    6 1    
    10    5   65 1    
    11    5  131 1    
    12    6    7 1    
    13    6  132 1    
    14    6  133 1    
    15    7    8 1    
    16    8    9 1    
    17    8  134 1    
    18    8  135 1    
    19    9   10 ar   
    20    9   14 ar   
    21   10   11 ar   
    22   10  136 1    
    23   11   12 ar   
    24   11  126 1    
    25   12   13 ar   
    26   12  137 1    
    27   13   14 ar   
    28   13   15 1    
    29   14  138 1    
    30   15   16 1    
    31   15  139 1    
    32   15  140 1    
    33   16   17 1    
    34   17   18 1    
    35   17  141 1    
    36   17  142 1    
    37   18   19 1    
    38   18   67 1    
    39   18  143 1    
    40   19   20 am   BACKBONE|DICT|INTERRES
    41   19  144 1    
    42   20   21 2    
    43   20   22 1    
    44   22   23 1    
    45   22   24 1    
    46   22  145 1    
    47   23  146 1    
    48   23  147 1    
    49   23  148 1    
    50   24   25 am   BACKBONE|DICT|INTERRES
    51   24  149 1    
    52   25   26 2    
    53   25   27 1    
    54   27   28 1    
    55   27   29 1    
    56   27  150 1    
    57   28  151 1    
    58   28  152 1    
    59   28  153 1    
    60   29   30 am   BACKBONE|DICT|INTERRES
    61   29  154 1    
    62   30   31 2    
    63   30   32 1    
    64   32   33 1    
    65   32   34 1    
    66   32  155 1    
    67   33  156 1    
    68   33  157 1    
    69   33  158 1    
    70   34   35 am   BACKBONE|DICT|INTERRES
    71   34  159 1    
    72   35   36 2    
    73   35   37 1    
    74   37   38 1    
    75   37   39 1    
    76   37  160 1    
    77   38  161 1    
    78   38  162 1    
    79   38  163 1    
    80   39   40 am   BACKBONE|DICT|INTERRES
    81   39  164 1    
    82   40   41 2    
    83   40   42 1    
    84   42   43 1    
    85   42   44 1    
    86   42  165 1    
    87   43  166 1    
    88   43  167 1    
    89   43  168 1    
    90   44   45 am   BACKBONE|DICT|INTERRES
    91   44  169 1    
    92   45   46 2    
    93   45   47 1    
    94   47   48 1    
    95   47   49 1    
    96   47  170 1    
    97   48  171 1    
    98   48  172 1    
    99   48  173 1    
   100   49   50 am   BACKBONE|DICT|INTERRES
   101   49  174 1    
   102   50   51 2    
   103   50   52 1    
   104   52   53 1    
   105   52   54 1    
   106   52  175 1    
   107   53  176 1    
   108   53  177 1    
   109   53  178 1    
   110   54   55 am   BACKBONE|DICT|INTERRES
   111   54  179 1    
   112   55   56 2    
   113   55   57 1    
   114   57   58 1    
   115   57   59 1    
   116   57  180 1    
   117   58  181 1    
   118   58  182 1    
   119   58  183 1    
   120   59   60 am   BACKBONE|DICT|INTERRES
   121   59  184 1    
   122   60   61 2    
   123   60   62 1    
   124   62   63 1    
   125   62   64 1    
   126   62  185 1    
   127   63  186 1    
   128   63  187 1    
   129   63  188 1    
   130   64   65 am   BACKBONE|DICT|INTERRES
   131   64  189 1    
   132   65   66 2    
   133   67   68 2    
   134   67   69 am   BACKBONE|DICT|INTERRES
   135   69   70 1    
   136   69  190 1    
   137   70   71 1    
   138   70   72 1    
   139   70  191 1    
   140   71  192 1    
   141   71  193 1    
   142   71  194 1    
   143   72   73 2    
   144   72   74 am   BACKBONE|DICT|INTERRES
   145   74   75 1    
   146   74  195 1    
   147   75   76 1    
   148   75   77 1    
   149   75  196 1    
   150   76  197 1    
   151   76  198 1    
   152   76  199 1    
   153   77   78 2    
   154   77   79 am   BACKBONE|DICT|INTERRES
   155   79   80 1    
   156   79  200 1    
   157   80   81 1    
   158   80   82 1    
   159   80  201 1    
   160   81  202 1    
   161   81  203 1    
   162   81  204 1    
   163   82   83 2    
   164   82   84 am   BACKBONE|DICT|INTERRES
   165   84   85 1    
   166   84  205 1    
   167   85   86 1    
   168   85   87 1    
   169   85  206 1    
   170   86  207 1    
   171   86  208 1    
   172   86  209 1    
   173   87   88 2    
   174   87   89 am   BACKBONE|DICT|INTERRES
   175   89   90 1    
   176   89  210 1    
   177   90   91 1    
   178   90   92 1    
   179   90  211 1    
   180   91  212 1    
   181   91  213 1    
   182   91  214 1    
   183   92   93 2    
   184   92   94 am   BACKBONE|DICT|INTERRES
   185   94   95 1    
   186   94  215 1    
   187   95   96 1    
   188   95   97 1    
   189   95  216 1    
   190   96  217 1    
   191   96  218 1    
   192   96  219 1    
   193   97   98 2    
   194   97   99 am   BACKBONE|DICT|INTERRES
   195   99  100 1    
   196   99  220 1    
   197  100  101 1    
   198  100  102 1    
   199  100  221 1    
   200  101  222 1    
   201  101  223 1    
   202  101  224 1    
   203  102  103 2    
   204  102  104 am   BACKBONE|DICT|INTERRES
   205  104  105 1    
   206  104  225 1    
   207  105  106 1    
   208  105  107 1    
   209  105  226 1    
   210  106  227 1    
   211  106  228 1    
   212  106  229 1    
   213  107  108 2    
   214  107  109 am   BACKBONE|DICT|INTERRES
   215  109  110 1    
   216  109  230 1    
   217  110  111 1    
   218  110  112 1    
   219  110  231 1    
   220  111  232 1    
   221  111  233 1    
   222  111  234 1    
   223  112  113 2    
   224  112  114 am   BACKBONE|DICT|INTERRES
   225  114  115 1    
   226  114  235 1    
   227  115  116 1    
   228  115  117 1    
   229  115  236 1    
   230  116  237 1    
   231  116  238 1    
   232  116  239 1    
   233  117  118 2    
   234  117  119 am   BACKBONE|DICT|INTERRES
   235  119  120 1    
   236  119  240 1    
   237  120  121 1    
   238  120  124 1    
   239  120  241 1    
   240  121  122 am   BACKBONE|DICT|INTERRES
   241  121  123 2    
   242  122  242 1    
   243  122  243 1    
   244  124  125 1    
   245  124  244 1    
   246  124  245 1    
   247  125  126 1    
   248  126  246 1    
   249  126  247 1    
@<TRIPOS>SUBSTRUCTURE
     1 UNK         1 GROUP             0       ****    0 ROOT    
