@<TRIPOS>MOLECULE
3R540
247   249    1
SMALL
USER_CHARGES


@<TRIPOS>ATOM
      1 CA          6.4021  -14.0913  -46.8374 C.3       0 UNK        -0.1800 
      2 C           6.6983  -15.4734  -47.4016 C.2       0 UNK         0.5000 
      3 O           7.8410  -15.9278  -47.3458 O.2       0 UNK        -0.5000 
      4 N           5.6725  -16.1422  -47.9441 N.am      1 UNK        -0.5000 
      5 CA          5.7594  -17.4886  -48.5328 C.3       1 UNK         0.1400 
      6 C6          4.5332  -17.8130  -49.4212 C.3       23 UNK        -0.0398 
      7 S7          4.2825  -16.5941  -50.7611 S.3       23 UNK        -0.2404 
      8 C8          2.6969  -15.8231  -50.2790 C.3       23 UNK        -0.0205 
      9 C9          1.4532  -16.5354  -50.8126 C.ar      23 UNK        -0.0193 
     10 C10         0.3434  -15.7749  -51.1958 C.ar      23 UNK        -0.1150 
     11 C11        -0.8188  -16.3886  -51.6728 C.ar      23 UNK        -0.0193 
     12 C12        -0.8718  -17.7823  -51.7560 C.ar      23 UNK        -0.1150 
     13 C13         0.2190  -18.5609  -51.3629 C.ar      23 UNK        -0.0193 
     14 C14         1.3791  -17.9302  -50.9042 C.ar      23 UNK        -0.1150 
     15 C15         0.1364  -20.0810  -51.4492 C.3       23 UNK        -0.0205 
     16 S16         0.7280  -20.9315  -49.9505 S.3       23 UNK        -0.2404 
     17 C17        -0.2624  -20.1227  -48.6495 C.3       23 UNK        -0.0398 
     18 CA         -0.3938  -20.9914  -47.3752 C.3       11 UNK         0.1400 
     19 N          -0.4701  -20.1668  -46.1676 N.am      11 UNK        -0.5000 
     20 C          -0.0817  -20.5622  -44.9480 C.2       10 UNK         0.5000 
     21 O           0.3350  -21.6940  -44.6984 O.2       10 UNK        -0.5000 
     22 CA         -0.2265  -19.5297  -43.8169 C.3       10 UNK         0.1400 
     23 CB          0.8830  -18.4735  -43.8872 C.3       10 UNK        -0.1800 
     24 N          -1.5242  -18.8585  -43.8470 N.am      10 UNK        -0.5000 
     25 C          -2.6895  -19.4577  -43.5703 C.2       9 UNK         0.5000 
     26 O          -2.7877  -20.6356  -43.2299 O.2       9 UNK        -0.5000 
     27 CA         -3.9582  -18.6036  -43.7234 C.3       9 UNK         0.1400 
     28 CB         -4.1980  -17.7611  -42.4622 C.3       9 UNK        -0.1800 
     29 N          -3.8900  -17.7290  -44.8939 N.am      9 UNK        -0.5000 
     30 C          -3.9937  -18.1579  -46.1600 C.2       8 UNK         0.5000 
     31 O          -4.1743  -19.3326  -46.4725 O.2       8 UNK        -0.5000 
     32 CA         -3.8446  -17.0987  -47.2655 C.3       8 UNK         0.1400 
     33 CB         -5.1881  -16.4010  -47.5216 C.3       8 UNK        -0.1800 
     34 N          -2.8274  -16.0939  -46.9573 N.am      8 UNK        -0.5000 
     35 C          -1.5190  -16.3570  -46.8408 C.2       7 UNK         0.5000 
     36 O          -1.0299  -17.4782  -46.9703 O.2       7 UNK        -0.5000 
     37 CA         -0.6137  -15.1782  -46.4474 C.3       7 UNK         0.1400 
     38 CB         -0.2362  -14.3465  -47.6811 C.3       7 UNK        -0.1800 
     39 N          -1.1984  -14.3066  -45.4224 N.am      7 UNK        -0.5000 
     40 C          -1.5215  -14.7113  -44.1877 C.2       6 UNK         0.5000 
     41 O          -1.4379  -15.8826  -43.8081 O.2       6 UNK        -0.5000 
     42 CA         -1.9505  -13.6347  -43.1844 C.3       6 UNK         0.1400 
     43 CB         -3.4049  -13.8190  -42.7254 C.3       6 UNK        -0.1800 
     44 N          -1.0401  -13.7948  -42.0636 N.am      6 UNK        -0.5000 
     45 C          -0.4498  -12.8137  -41.3734 C.2       5 UNK         0.5000 
     46 O          -0.8174  -11.6386  -41.3840 O.2       5 UNK        -0.5000 
     47 CA          0.8324  -13.2221  -40.6179 C.3       5 UNK         0.1400 
     48 CB          0.4965  -13.8459  -39.2551 C.3       5 UNK        -0.1800 
     49 N           1.6227  -14.1723  -41.4099 N.am      5 UNK        -0.5000 
     50 C           2.2019  -13.8826  -42.5827 C.2       4 UNK         0.5000 
     51 O           2.3530  -12.7324  -42.9980 O.2       4 UNK        -0.5000 
     52 CA          2.6252  -15.0832  -43.4524 C.3       4 UNK         0.1400 
     53 CB          3.1386  -14.6665  -44.8431 C.3       4 UNK        -0.1800 
     54 N           3.6256  -15.9465  -42.8298 N.am      4 UNK        -0.5000 
     55 C           3.4428  -16.8096  -41.8243 C.2       3 UNK         0.5000 
     56 O           2.3934  -16.8958  -41.1835 O.2       3 UNK        -0.5000 
     57 CA          4.6181  -17.7751  -41.5460 C.3       3 UNK         0.1400 
     58 CB          4.3441  -18.7110  -40.3554 C.3       3 UNK        -0.1800 
     59 N           4.9306  -18.5931  -42.7252 N.am      3 UNK        -0.5000 
     60 C           5.5662  -18.1632  -43.8235 C.2       2 UNK         0.5000 
     61 O           6.0309  -17.0236  -43.9240 O.2       2 UNK        -0.5000 
     62 CA          5.6538  -19.1166  -45.0301 C.3       2 UNK         0.1400 
     63 CB          4.5798  -20.2269  -45.0446 C.3       2 UNK        -0.1800 
     64 N           5.5428  -18.2899  -46.2251 N.am      2 UNK        -0.5000 
     65 C           5.9428  -18.5914  -47.4641 C.2       1 UNK         0.5000 
     66 O           6.4337  -19.6753  -47.7817 O.2       1 UNK        -0.5000 
     67 C          -1.5305  -22.0353  -47.4768 C.2       11 UNK         0.5000 
     68 O          -1.5150  -22.8539  -48.3989 O.2       11 UNK        -0.5000 
     69 N          -2.4821  -22.0357  -46.5301 N.am      12 UNK        -0.5000 
     70 CA         -3.5321  -23.0514  -46.4007 C.3       12 UNK         0.1400 
     71 CB         -4.5153  -22.6598  -45.2892 C.3       12 UNK        -0.1800 
     72 C          -2.9633  -24.4581  -46.1416 C.2       12 UNK         0.5000 
     73 O          -3.4774  -25.4327  -46.6889 O.2       12 UNK        -0.5000 
     74 N          -1.8903  -24.5313  -45.3439 N.am      13 UNK        -0.5000 
     75 CA         -1.1672  -25.7696  -45.0605 C.3       13 UNK         0.1400 
     76 CB         -0.3813  -25.5960  -43.7518 C.3       13 UNK        -0.1800 
     77 C          -0.2190  -26.1762  -46.2042 C.2       13 UNK         0.5000 
     78 O           0.0156  -27.3693  -46.3985 O.2       13 UNK        -0.5000 
     79 N           0.3297  -25.1831  -46.9170 N.am      14 UNK        -0.5000 
     80 CA          1.3657  -25.3772  -47.9295 C.3       14 UNK         0.1400 
     81 CB          2.2240  -24.1074  -48.0301 C.3       14 UNK        -0.1800 
     82 C           0.8039  -25.7592  -49.3087 C.2       14 UNK         0.5000 
     83 O           1.3431  -26.6691  -49.9404 O.2       14 UNK        -0.5000 
     84 N          -0.2394  -25.0538  -49.7669 N.am      15 UNK        -0.5000 
     85 CA         -0.7575  -25.1664  -51.1339 C.3       15 UNK         0.1400 
     86 CB          0.0541  -24.2480  -52.0699 C.3       15 UNK        -0.1800 
     87 C          -2.2672  -24.8854  -51.2155 C.2       15 UNK         0.5000 
     88 O          -2.7478  -24.4531  -52.2658 O.2       15 UNK        -0.5000 
     89 N          -2.9956  -25.1035  -50.1096 N.am      16 UNK        -0.5000 
     90 CA         -4.4440  -24.8949  -49.9706 C.3       16 UNK         0.1400 
     91 CB         -5.2194  -25.9473  -50.7912 C.3       16 UNK        -0.1800 
     92 C          -4.8779  -23.4491  -50.2947 C.2       16 UNK         0.5000 
     93 O          -5.9195  -23.2441  -50.9177 O.2       16 UNK        -0.5000 
     94 N          -4.0393  -22.4751  -49.9073 N.am      17 UNK        -0.5000 
     95 CA         -4.1748  -21.0405  -50.1843 C.3       17 UNK         0.1400 
     96 CB         -5.4177  -20.4573  -49.4810 C.3       17 UNK        -0.1800 
     97 C          -4.1276  -20.7389  -51.6966 C.2       17 UNK         0.5000 
     98 O          -4.8976  -19.9131  -52.1888 O.2       17 UNK        -0.5000 
     99 N          -3.2321  -21.4513  -52.3989 N.am      18 UNK        -0.5000 
    100 CA        -3.0550  -21.4844  -53.8541 C.3       18 UNK         0.1400 
    101 CB        -2.5800  -20.1184  -54.3946 C.3       18 UNK        -0.1800 
    102 C         -4.3163  -22.0204  -54.5572 C.2       18 UNK         0.5000 
    103 O         -4.8147  -21.4001  -55.4955 O.2       18 UNK        -0.5000 
    104 N         -4.8379  -23.1454  -54.0445 N.am      19 UNK        -0.5000 
    105 CA        -6.1181  -23.7644  -54.4134 C.3       19 UNK         0.1400 
    106 CB        -6.0330  -24.3944  -55.8187 C.3       19 UNK        -0.1800 
    107 C         -7.3007  -22.7816  -54.2551 C.2       19 UNK         0.5000 
    108 O         -8.1025  -22.6072  -55.1742 O.2       19 UNK        -0.5000 
    109 N         -7.3411  -22.1287  -53.0862 N.am      20 UNK        -0.5000 
    110 CA        -8.2786  -21.0963  -52.6359 C.3       20 UNK         0.1400 
    111 CB        -9.7245  -21.6325  -52.6155 C.3       20 UNK        -0.1800 
    112 C         -8.1774  -19.7382  -53.3645 C.2       20 UNK         0.5000 
    113 O         -8.9470  -18.8350  -53.0305 O.2       20 UNK        -0.5000 
    114 N         -7.2353  -19.5724  -54.3065 N.am      21 UNK        -0.5000 
    115 CA        -7.0498  -18.3401  -55.0825 C.3       21 UNK         0.1400 
    116 CB        -6.0493  -18.5820  -56.2209 C.3       21 UNK        -0.1800 
    117 C         -6.6175  -17.1254  -54.2384 C.2       21 UNK         0.5000 
    118 O         -6.9219  -15.9938  -54.6184 O.2       21 UNK        -0.5000 
    119 N         -5.9450  -17.3726  -53.1064 N.am      22 UNK        -0.5000 
    120 CA        -5.6069  -16.3523  -52.1015 C.3       22 UNK         0.1400 
    121 C         -6.8112  -15.9027  -51.2166 C.2       22 UNK         0.5000 
    122 N         -7.9740  -16.5431  -51.2829 N.am      22 UNK        -0.7600 
    123 O         -6.6989  -14.9391  -50.4653 O.2       22 UNK        -0.5000 
    124 C124       -4.3830  -16.7895  -51.2509 C.3       23 UNK        -0.0398 
    125 S125       -3.2740  -15.4037  -50.8214 S.3       23 UNK        -0.2404 
    126 C126       -2.0017  -15.5398  -52.1173 C.3       23 UNK        -0.0205 
    127 H127        5.3740  -13.7851  -47.0323 H         1 UNK         0.0600 
    128 H128        7.0663  -13.3520  -47.2851 H         1 UNK         0.0600 
    129 H129        6.5611  -14.0865  -45.7590 H         1 UNK         0.0600 
    130 H130        4.7665  -15.7008  -47.9941 H         1 UNK         0.3000 
    131 H131        6.6469  -17.5151  -49.1690 H         1 UNK         0.0600 
    132 H132        4.6572  -18.7908  -49.8905 H         1 UNK         0.0800 
    133 H133        3.6304  -17.8847  -48.8119 H         1 UNK         0.0800 
    134 H134        2.6289  -15.7494  -49.1933 H         1 UNK         0.0800 
    135 H135        2.7132  -14.7971  -50.6499 H         1 UNK         0.0800 
    136 H136        0.3833  -14.6969  -51.1248 H         1 UNK         0.1150 
    137 H137       -1.7611  -18.2647  -52.1309 H         1 UNK         0.1150 
    138 H138        2.2190  -18.5406  -50.6126 H         1 UNK         0.1150 
    139 H139       -0.8887  -20.3970  -51.6321 H         1 UNK         0.0800 
    140 H140        0.7232  -20.4194  -52.3038 H         1 UNK         0.0800 
    141 H141       -1.2355  -19.8154  -49.0329 H         1 UNK         0.0800 
    142 H142        0.2663  -19.1979  -48.4157 H         1 UNK         0.0800 
    143 H143        0.5276  -21.5684  -47.2828 H         1 UNK         0.0600 
    144 H144       -0.7882  -19.2089  -46.3012 H         1 UNK         0.3000 
    145 H145       -0.1367  -20.0549  -42.8637 H         1 UNK         0.0600 
    146 H146        0.7495  -17.7340  -43.0992 H         1 UNK         0.0600 
    147 H147        1.8641  -18.9254  -43.7456 H         1 UNK         0.0600 
    148 H148        0.8893  -17.9467  -44.8421 H         1 UNK         0.0600 
    149 H149       -1.5248  -17.8677  -44.0686 H         1 UNK         0.3000 
    150 H150       -4.8074  -19.2791  -43.8483 H         1 UNK         0.0600 
    151 H151       -5.0844  -17.1349  -42.5641 H         1 UNK         0.0600 
    152 H152       -4.3497  -18.4015  -41.5925 H         1 UNK         0.0600 
    153 H153       -3.3486  -17.1138  -42.2436 H         1 UNK         0.0600 
    154 H154       -3.6868  -16.7553  -44.7248 H         1 UNK         0.3000 
    155 H155       -3.5406  -17.6122  -48.1801 H         1 UNK         0.0600 
    156 H156       -5.5561  -15.8916  -46.6302 H         1 UNK         0.0600 
    157 H157       -5.9490  -17.1199  -47.8283 H         1 UNK         0.0600 
    158 H158       -5.1035  -15.6601  -48.3161 H         1 UNK         0.0600 
    159 H159       -3.1439  -15.1448  -46.8253 H         1 UNK         0.3000 
    160 H160        0.3045  -15.6009  -46.0339 H         1 UNK         0.0600 
    161 H161       -1.1089  -13.8758  -48.1355 H         1 UNK         0.0600 
    162 H162        0.2294  -14.9743  -48.4406 H         1 UNK         0.0600 
    163 H163        0.4777  -13.5627  -47.4276 H         1 UNK         0.0600 
    164 H164       -1.2864  -13.3289  -45.6601 H         1 UNK         0.3000 
    165 H165       -1.8308  -12.6471  -43.6351 H         1 UNK         0.0600 
    166 H166       -3.6938  -13.0361  -42.0241 H         1 UNK         0.0600 
    167 H167       -4.0917  -13.7701  -43.5711 H         1 UNK         0.0600 
    168 H168       -3.5556  -14.7777  -42.2302 H         1 UNK         0.0600 
    169 H169       -0.6598  -14.7293  -41.9878 H         1 UNK         0.3000 
    170 H170        1.4319  -12.3247  -40.4517 H         1 UNK         0.0600 
    171 H171       -0.0828  -13.1541  -38.6423 H         1 UNK         0.0600 
    172 H172       -0.0882  -14.7604  -39.3619 H         1 UNK         0.0600 
    173 H173        1.4028  -14.0910  -38.7010 H         1 UNK         0.0600 
    174 H174        1.6127  -15.1469  -41.1204 H         1 UNK         0.3000 
    175 H175        1.7222  -15.6736  -43.6127 H         1 UNK         0.0600 
    176 H176        4.0590  -14.0861  -44.7716 H         1 UNK         0.0600 
    177 H177        3.3377  -15.5376  -45.4675 H         1 UNK         0.0600 
    178 H178        2.4028  -14.0556  -45.3678 H         1 UNK         0.0600 
    179 H179        4.5339  -15.9722  -43.2830 H         1 UNK         0.3000 
    180 H180        5.4890  -17.1651  -41.2970 H         1 UNK         0.0600 
    181 H181        3.4867  -19.3594  -40.5407 H         1 UNK         0.0600 
    182 H182        4.1355  -18.1406  -39.4494 H         1 UNK         0.0600 
    183 H183        5.2056  -19.3454  -40.1464 H         1 UNK         0.0600 
    184 H184        4.5508  -19.5284  -42.7271 H         1 UNK         0.3000 
    185 H185        6.6440  -19.5755  -45.0068 H         1 UNK         0.0600 
    186 H186        4.6580  -20.8751  -44.1714 H         1 UNK         0.0600 
    187 H187        3.5724  -19.8121  -45.0707 H         1 UNK         0.0600 
    188 H188        4.6897  -20.8683  -45.9191 H         1 UNK         0.0600 
    189 H189        5.2452  -17.3410  -46.0430 H         1 UNK         0.3000 
    190 H190       -2.4636  -21.3119  -45.8252 H         1 UNK         0.3000 
    191 H191       -4.0907  -23.0825  -47.3344 H         1 UNK         0.0600 
    192 H192       -4.9369  -21.6697  -45.4591 H         1 UNK         0.0600 
    193 H193       -5.3486  -23.3621  -45.2448 H         1 UNK         0.0600 
    194 H194       -4.0382  -22.6613  -44.3093 H         1 UNK         0.0600 
    195 H195       -1.5270  -23.6823  -44.9327 H         1 UNK         0.3000 
    196 H196       -1.8875  -26.5785  -44.9191 H         1 UNK         0.0600 
    197 H197        0.1629  -26.5068  -43.4985 H         1 UNK         0.0600 
    198 H198       -1.0483  -25.3745  -42.9184 H         1 UNK         0.0600 
    199 H199        0.3466  -24.7864  -43.8230 H         1 UNK         0.0600 
    200 H200        0.0672  -24.2339  -46.7028 H         1 UNK         0.3000 
    201 H201        2.0224  -26.1872  -47.6038 H         1 UNK         0.0600 
    202 H202        2.6442  -23.8325  -47.0625 H         1 UNK         0.0600 
    203 H203        1.6476  -23.2619  -48.4005 H         1 UNK         0.0600 
    204 H204        3.0580  -24.2559  -48.7171 H         1 UNK         0.0600 
    205 H205       -0.6301  -24.3041  -49.2003 H         1 UNK         0.3000 
    206 H206       -0.6390  -26.1949  -51.4803 H         1 UNK         0.0600 
    207 H207        1.1193  -24.4741  -52.0251 H         1 UNK         0.0600 
    208 H208       -0.2546  -24.3682  -53.1090 H         1 UNK         0.0600 
    209 H209       -0.0760  -23.1983  -51.8073 H         1 UNK         0.0600 
    210 H210       -2.5207  -25.4458  -49.2857 H         1 UNK         0.3000 
    211 H211       -4.6927  -25.0551  -48.9227 H         1 UNK         0.0600 
    212 H212       -5.0587  -25.8277  -51.8628 H         1 UNK         0.0600 
    213 H213       -6.2925  -25.8730  -50.6111 H         1 UNK         0.0600 
    214 H214       -4.9164  -26.9581  -50.5188 H         1 UNK         0.0600 
    215 H215       -3.1854  -22.7496  -49.4303 H         1 UNK         0.3000 
    216 H216       -3.3005  -20.5577  -49.7499 H         1 UNK         0.0600 
    217 H217       -5.4376  -19.3706  -49.5524 H         1 UNK         0.0600 
    218 H218       -5.4226  -20.7116  -48.4213 H         1 UNK         0.0600 
    219 H219       -6.3454  -20.8285  -49.9140 H         1 UNK         0.0600 
    220 H220       -2.7188  -22.1651  -51.9005 H         1 UNK         0.3000 
    221 H221       -2.2647  -22.2092  -54.0556 H         1 UNK         0.0600 
    222 H222       -3.2985  -19.3234  -54.1960 H         1 UNK         0.0600 
    223 H223       -1.6278  -19.8304  -53.9518 H         1 UNK         0.0600 
    224 H224       -2.4289  -20.1574  -55.4738 H         1 UNK         0.0600 
    225 H225       -4.3317  -23.5907  -53.2856 H         1 UNK         0.3000 
    226 H226       -6.2905  -24.5704  -53.6990 H         1 UNK         0.0600 
    227 H227       -5.2048  -25.1000  -55.8836 H         1 UNK         0.0600 
    228 H228       -6.9456  -24.9422  -56.0559 H         1 UNK         0.0600 
    229 H229       -5.8931  -23.6410  -56.5945 H         1 UNK         0.0600 
    230 H230       -6.6503  -22.3956  -52.3871 H         1 UNK         0.3000 
    231 H231       -7.9994  -20.8898  -51.6027 H         1 UNK         0.0600 
    232 H232      -10.1106  -21.8000  -53.6212 H         1 UNK         0.0600 
    233 H233      -10.3965  -20.9279  -52.1242 H         1 UNK         0.0600 
    234 H234       -9.7886  -22.5733  -52.0687 H         1 UNK         0.0600 
    235 H235       -6.6059  -20.3382  -54.5122 H         1 UNK         0.3000 
    236 H236       -8.0135  -18.0940  -55.5330 H         1 UNK         0.0600 
    237 H237       -6.3488  -19.4280  -56.8399 H         1 UNK         0.0600 
    238 H238       -5.9822  -17.7098  -56.8722 H         1 UNK         0.0600 
    239 H239       -5.0479  -18.7797  -55.8389 H         1 UNK         0.0600 
    240 H240       -5.7195  -18.3354  -52.8662 H         1 UNK         0.3000 
    241 H241       -5.3137  -15.4625  -52.6619 H         1 UNK         0.0600 
    242 H242       -8.7391  -16.2264  -50.7093 H         1 UNK         0.3800 
    243 H243       -8.1201  -17.3153  -51.9226 H         1 UNK         0.3800 
    244 H244       -4.6973  -17.2895  -50.3355 H         1 UNK         0.0800 
    245 H245       -3.7979  -17.5301  -51.7912 H         1 UNK         0.0800 
    246 H246       -1.6611  -14.5346  -52.3701 H         1 UNK         0.0800 
    247 H247       -2.4349  -15.9454  -53.0330 H         1 UNK         0.0800 
@<TRIPOS>BOND
     1    1    2 1    
     2    1  127 1    
     3    1  128 1    
     4    1  129 1    
     5    2    3 2    
     6    2    4 am   BACKBONE|DICT|INTERRES
     7    4    5 1    
     8    4  130 1    
     9    5    6 1    
    10    5   65 1    
    11    5  131 1    
    12    6    7 1    
    13    6  132 1    
    14    6  133 1    
    15    7    8 1    
    16    8    9 1    
    17    8  134 1    
    18    8  135 1    
    19    9   10 ar   
    20    9   14 ar   
    21   10   11 ar   
    22   10  136 1    
    23   11   12 ar   
    24   11  126 1    
    25   12   13 ar   
    26   12  137 1    
    27   13   14 ar   
    28   13   15 1    
    29   14  138 1    
    30   15   16 1    
    31   15  139 1    
    32   15  140 1    
    33   16   17 1    
    34   17   18 1    
    35   17  141 1    
    36   17  142 1    
    37   18   19 1    
    38   18   67 1    
    39   18  143 1    
    40   19   20 am   BACKBONE|DICT|INTERRES
    41   19  144 1    
    42   20   21 2    
    43   20   22 1    
    44   22   23 1    
    45   22   24 1    
    46   22  145 1    
    47   23  146 1    
    48   23  147 1    
    49   23  148 1    
    50   24   25 am   BACKBONE|DICT|INTERRES
    51   24  149 1    
    52   25   26 2    
    53   25   27 1    
    54   27   28 1    
    55   27   29 1    
    56   27  150 1    
    57   28  151 1    
    58   28  152 1    
    59   28  153 1    
    60   29   30 am   BACKBONE|DICT|INTERRES
    61   29  154 1    
    62   30   31 2    
    63   30   32 1    
    64   32   33 1    
    65   32   34 1    
    66   32  155 1    
    67   33  156 1    
    68   33  157 1    
    69   33  158 1    
    70   34   35 am   BACKBONE|DICT|INTERRES
    71   34  159 1    
    72   35   36 2    
    73   35   37 1    
    74   37   38 1    
    75   37   39 1    
    76   37  160 1    
    77   38  161 1    
    78   38  162 1    
    79   38  163 1    
    80   39   40 am   BACKBONE|DICT|INTERRES
    81   39  164 1    
    82   40   41 2    
    83   40   42 1    
    84   42   43 1    
    85   42   44 1    
    86   42  165 1    
    87   43  166 1    
    88   43  167 1    
    89   43  168 1    
    90   44   45 am   BACKBONE|DICT|INTERRES
    91   44  169 1    
    92   45   46 2    
    93   45   47 1    
    94   47   48 1    
    95   47   49 1    
    96   47  170 1    
    97   48  171 1    
    98   48  172 1    
    99   48  173 1    
   100   49   50 am   BACKBONE|DICT|INTERRES
   101   49  174 1    
   102   50   51 2    
   103   50   52 1    
   104   52   53 1    
   105   52   54 1    
   106   52  175 1    
   107   53  176 1    
   108   53  177 1    
   109   53  178 1    
   110   54   55 am   BACKBONE|DICT|INTERRES
   111   54  179 1    
   112   55   56 2    
   113   55   57 1    
   114   57   58 1    
   115   57   59 1    
   116   57  180 1    
   117   58  181 1    
   118   58  182 1    
   119   58  183 1    
   120   59   60 am   BACKBONE|DICT|INTERRES
   121   59  184 1    
   122   60   61 2    
   123   60   62 1    
   124   62   63 1    
   125   62   64 1    
   126   62  185 1    
   127   63  186 1    
   128   63  187 1    
   129   63  188 1    
   130   64   65 am   BACKBONE|DICT|INTERRES
   131   64  189 1    
   132   65   66 2    
   133   67   68 2    
   134   67   69 am   BACKBONE|DICT|INTERRES
   135   69   70 1    
   136   69  190 1    
   137   70   71 1    
   138   70   72 1    
   139   70  191 1    
   140   71  192 1    
   141   71  193 1    
   142   71  194 1    
   143   72   73 2    
   144   72   74 am   BACKBONE|DICT|INTERRES
   145   74   75 1    
   146   74  195 1    
   147   75   76 1    
   148   75   77 1    
   149   75  196 1    
   150   76  197 1    
   151   76  198 1    
   152   76  199 1    
   153   77   78 2    
   154   77   79 am   BACKBONE|DICT|INTERRES
   155   79   80 1    
   156   79  200 1    
   157   80   81 1    
   158   80   82 1    
   159   80  201 1    
   160   81  202 1    
   161   81  203 1    
   162   81  204 1    
   163   82   83 2    
   164   82   84 am   BACKBONE|DICT|INTERRES
   165   84   85 1    
   166   84  205 1    
   167   85   86 1    
   168   85   87 1    
   169   85  206 1    
   170   86  207 1    
   171   86  208 1    
   172   86  209 1    
   173   87   88 2    
   174   87   89 am   BACKBONE|DICT|INTERRES
   175   89   90 1    
   176   89  210 1    
   177   90   91 1    
   178   90   92 1    
   179   90  211 1    
   180   91  212 1    
   181   91  213 1    
   182   91  214 1    
   183   92   93 2    
   184   92   94 am   BACKBONE|DICT|INTERRES
   185   94   95 1    
   186   94  215 1    
   187   95   96 1    
   188   95   97 1    
   189   95  216 1    
   190   96  217 1    
   191   96  218 1    
   192   96  219 1    
   193   97   98 2    
   194   97   99 am   BACKBONE|DICT|INTERRES
   195   99  100 1    
   196   99  220 1    
   197  100  101 1    
   198  100  102 1    
   199  100  221 1    
   200  101  222 1    
   201  101  223 1    
   202  101  224 1    
   203  102  103 2    
   204  102  104 am   BACKBONE|DICT|INTERRES
   205  104  105 1    
   206  104  225 1    
   207  105  106 1    
   208  105  107 1    
   209  105  226 1    
   210  106  227 1    
   211  106  228 1    
   212  106  229 1    
   213  107  108 2    
   214  107  109 am   BACKBONE|DICT|INTERRES
   215  109  110 1    
   216  109  230 1    
   217  110  111 1    
   218  110  112 1    
   219  110  231 1    
   220  111  232 1    
   221  111  233 1    
   222  111  234 1    
   223  112  113 2    
   224  112  114 am   BACKBONE|DICT|INTERRES
   225  114  115 1    
   226  114  235 1    
   227  115  116 1    
   228  115  117 1    
   229  115  236 1    
   230  116  237 1    
   231  116  238 1    
   232  116  239 1    
   233  117  118 2    
   234  117  119 am   BACKBONE|DICT|INTERRES
   235  119  120 1    
   236  119  240 1    
   237  120  121 1    
   238  120  124 1    
   239  120  241 1    
   240  121  122 am   BACKBONE|DICT|INTERRES
   241  121  123 2    
   242  122  242 1    
   243  122  243 1    
   244  124  125 1    
   245  124  244 1    
   246  124  245 1    
   247  125  126 1    
   248  126  246 1    
   249  126  247 1    
@<TRIPOS>SUBSTRUCTURE
     1 UNK         1 GROUP             0       ****    0 ROOT    
