@<TRIPOS>MOLECULE
3R540
247   249    1
SMALL
USER_CHARGES


@<TRIPOS>ATOM
      1 CA         -2.4612   -8.5877  -46.5855 C.3       0 UNK        -0.1800 
      2 C          -2.4842   -9.6799  -47.6456 C.2       0 UNK         0.5000 
      3 O          -1.9699   -9.4759  -48.7454 O.2       0 UNK        -0.5000 
      4 N          -3.0805  -10.8344  -47.3193 N.am      1 UNK        -0.5000 
      5 CA         -3.1711  -12.0165  -48.1891 C.3       1 UNK         0.1400 
      6 C6         -4.1918  -13.0429  -47.6276 C.3       23 UNK        -0.0398 
      7 S7         -5.1678  -13.8642  -48.9296 S.3       23 UNK        -0.2404 
      8 C8         -4.9640  -15.6286  -48.5221 C.3       23 UNK        -0.0205 
      9 C9         -3.8249  -16.2714  -49.2990 C.ar      23 UNK        -0.0193 
     10 C10        -3.9578  -16.4691  -50.6760 C.ar      23 UNK        -0.1150 
     11 C11        -2.9510  -17.1017  -51.4093 C.ar      23 UNK        -0.0193 
     12 C12        -1.8015  -17.5436  -50.7485 C.ar      23 UNK        -0.1150 
     13 C13        -1.6550  -17.3556  -49.3701 C.ar      23 UNK        -0.0193 
     14 C14        -2.6680  -16.7132  -48.6494 C.ar      23 UNK        -0.1150 
     15 C15        -0.4016  -17.8543  -48.6659 C.3       23 UNK        -0.0205 
     16 S16        -0.2947  -19.6678  -48.6726 S.3       23 UNK        -0.2404 
     17 C17        -1.6592  -20.1102  -47.5474 C.3       23 UNK        -0.0398 
     18 CA         -1.4671  -21.5303  -46.9728 C.3       11 UNK         0.1400 
     19 N          -0.2681  -21.6418  -46.1345 N.am      11 UNK        -0.5000 
     20 C           0.2520  -22.8058  -45.7233 C.2       10 UNK         0.5000 
     21 O          -0.2213  -23.9032  -46.0135 O.2       10 UNK        -0.5000 
     22 CA          1.4769  -22.7385  -44.7975 C.3       10 UNK         0.1400 
     23 CB          2.7566  -22.4780  -45.6055 C.3       10 UNK        -0.1800 
     24 N           1.3305  -21.7324  -43.7456 N.am      10 UNK        -0.5000 
     25 C           0.4026  -21.7804  -42.7788 C.2       9 UNK         0.5000 
     26 O          -0.4070  -22.6993  -42.6562 O.2       9 UNK        -0.5000 
     27 CA          0.3331  -20.5850  -41.8113 C.3       9 UNK         0.1400 
     28 CB          1.4255  -20.6869  -40.7373 C.3       9 UNK        -0.1800 
     29 N           0.4230  -19.2934  -42.4937 N.am      9 UNK        -0.5000 
     30 C          -0.4670  -18.8522  -43.3962 C.2       8 UNK         0.5000 
     31 O          -1.4754  -19.4755  -43.7272 O.2       8 UNK        -0.5000 
     32 CA         -0.1555  -17.5139  -44.0883 C.3       8 UNK         0.1400 
     33 CB         -0.6114  -16.3331  -43.2212 C.3       8 UNK        -0.1800 
     34 N           1.2613  -17.3689  -44.4217 N.am      8 UNK        -0.5000 
     35 C           1.9178  -18.1804  -45.2626 C.2       7 UNK         0.5000 
     36 O           1.3880  -19.1159  -45.8617 O.2       7 UNK        -0.5000 
     37 CA          3.4295  -17.9459  -45.4113 C.3       7 UNK         0.1400 
     38 CB          3.7263  -16.6464  -46.1731 C.3       7 UNK        -0.1800 
     39 N           4.1165  -17.9463  -44.1176 N.am      7 UNK        -0.5000 
     40 C           4.2374  -19.0360  -43.3456 C.2       6 UNK         0.5000 
     41 O           3.7523  -20.1297  -43.6298 O.2       6 UNK        -0.5000 
     42 CA          5.0286  -18.8998  -42.0334 C.3       6 UNK         0.1400 
     43 CB          6.5251  -19.1374  -42.2859 C.3       6 UNK        -0.1800 
     44 N           4.8584  -17.6285  -41.3296 N.am      6 UNK        -0.5000 
     45 C           3.6992  -17.1280  -40.8813 C.2       5 UNK         0.5000 
     46 O           2.6005  -17.6202  -41.1470 O.2       5 UNK        -0.5000 
     47 CA          3.7872  -15.8921  -39.9567 C.3       5 UNK         0.1400 
     48 CB          5.2247  -15.3977  -39.6918 C.3       5 UNK        -0.1800 
     49 N           3.0143  -14.7871  -40.5082 N.am      5 UNK        -0.5000 
     50 C           1.6971  -14.6087  -40.3597 C.2       4 UNK         0.5000 
     51 O           0.9909  -15.2909  -39.6157 O.2       4 UNK        -0.5000 
     52 CA          1.0511  -13.4636  -41.1667 C.3       4 UNK         0.1400 
     53 CB          0.6315  -12.3184  -40.2309 C.3       4 UNK        -0.1800 
     54 N           1.8719  -12.9030  -42.2477 N.am      4 UNK        -0.5000 
     55 C           2.3043  -13.5605  -43.3313 C.2       3 UNK         0.5000 
     56 O           2.2092  -14.7794  -43.4891 O.2       3 UNK        -0.5000 
     57 CA          2.9417  -12.7044  -44.4410 C.3       3 UNK         0.1400 
     58 CB          4.4446  -12.9986  -44.5691 C.3       3 UNK        -0.1800 
     59 N           2.2765  -12.9520  -45.7216 N.am      3 UNK        -0.5000 
     60 C           0.9918  -12.6569  -45.9616 C.2       2 UNK         0.5000 
     61 O           0.2806  -12.0197  -45.1766 O.2       2 UNK        -0.5000 
     62 CA          0.3939  -13.1706  -47.2811 C.3       2 UNK         0.1400 
     63 CB          0.3954  -14.7097  -47.3342 C.3       2 UNK        -0.1800 
     64 N          -0.9707  -12.6677  -47.3622 N.am      2 UNK        -0.5000 
     65 C          -1.7878  -12.6656  -48.4202 C.2       1 UNK         0.5000 
     66 O          -1.4864  -13.1107  -49.5277 O.2       1 UNK        -0.5000 
     67 C          -2.7359  -22.0197  -46.2438 C.2       11 UNK         0.5000 
     68 O          -3.5764  -22.6688  -46.8698 O.2       11 UNK        -0.5000 
     69 N          -2.8363  -21.7459  -44.9346 N.am      12 UNK        -0.5000 
     70 CA         -3.8952  -22.2547  -44.0629 C.3       12 UNK         0.1400 
     71 CB         -3.8480  -21.5365  -42.7061 C.3       12 UNK        -0.1800 
     72 C          -3.8194  -23.7814  -43.8830 C.2       12 UNK         0.5000 
     73 O          -4.8427  -24.4534  -44.0108 O.2       12 UNK        -0.5000 
     74 N          -2.6099  -24.3100  -43.6428 N.am      13 UNK        -0.5000 
     75 CA         -2.3324  -25.7465  -43.5341 C.3       13 UNK         0.1400 
     76 CB         -0.8822  -25.9578  -43.0743 C.3       13 UNK        -0.1800 
     77 C          -2.6076  -26.5149  -44.8415 C.2       13 UNK         0.5000 
     78 O          -3.0921  -27.6458  -44.7945 O.2       13 UNK        -0.5000 
     79 N          -2.3405  -25.8663  -45.9824 N.am      14 UNK        -0.5000 
     80 CA         -2.6601  -26.3423  -47.3288 C.3       14 UNK         0.1400 
     81 CB         -1.7893  -25.5795  -48.3413 C.3       14 UNK        -0.1800 
     82 C          -4.1537  -26.2113  -47.6966 C.2       14 UNK         0.5000 
     83 O          -4.5274  -26.6121  -48.7983 O.2       14 UNK        -0.5000 
     84 N          -4.9768  -25.6357  -46.8059 N.am      15 UNK        -0.5000 
     85 CA         -6.4165  -25.3959  -46.9542 C.3       15 UNK         0.1400 
     86 CB         -7.1922  -26.7296  -46.9596 C.3       15 UNK        -0.1800 
     87 C          -6.7523  -24.4927  -48.1597 C.2       15 UNK         0.5000 
     88 O          -7.7324  -24.7370  -48.8653 O.2       15 UNK        -0.5000 
     89 N          -5.9107  -23.4705  -48.3744 N.am      16 UNK        -0.5000 
     90 CA         -5.9721  -22.4732  -49.4465 C.3       16 UNK         0.1400 
     91 CB         -7.2653  -21.6358  -49.3643 C.3       16 UNK        -0.1800 
     92 C          -5.7149  -23.0357  -50.8613 C.2       16 UNK         0.5000 
     93 O          -6.0044  -22.3496  -51.8429 O.2       16 UNK        -0.5000 
     94 N          -5.1049  -24.2294  -50.9663 N.am      17 UNK        -0.5000 
     95 CA         -4.6702  -24.8370  -52.2348 C.3       17 UNK         0.1400 
     96 CB         -4.1700  -26.2653  -51.9805 C.3       17 UNK        -0.1800 
     97 C          -3.5972  -24.0138  -52.9800 C.2       17 UNK         0.5000 
     98 O          -3.4435  -24.1612  -54.1933 O.2       17 UNK        -0.5000 
     99 N          -2.9275  -23.1093  -52.2500 N.am      18 UNK        -0.5000 
    100 CA        -2.0251  -22.0719  -52.7501 C.3       18 UNK         0.1400 
    101 CB        -1.4562  -21.2994  -51.5529 C.3       18 UNK        -0.1800 
    102 C         -2.6692  -21.0940  -53.7547 C.2       18 UNK         0.5000 
    103 O         -1.9374  -20.4005  -54.4594 O.2       18 UNK        -0.5000 
    104 N         -4.0086  -21.0709  -53.8554 N.am      19 UNK        -0.5000 
    105 CA        -4.7686  -20.3567  -54.8871 C.3       19 UNK         0.1400 
    106 CB        -6.2669  -20.6210  -54.6855 C.3       19 UNK        -0.1800 
    107 C         -4.3463  -20.7137  -56.3276 C.2       19 UNK         0.5000 
    108 O         -4.3933  -19.8485  -57.2023 O.2       19 UNK        -0.5000 
    109 N         -3.8819  -21.9550  -56.5352 N.am      20 UNK        -0.5000 
    110 CA        -3.2994  -22.4268  -57.7920 C.3       20 UNK         0.1400 
    111 CB        -3.1375  -23.9527  -57.7224 C.3       20 UNK        -0.1800 
    112 C         -1.9524  -21.7573  -58.1389 C.2       20 UNK         0.5000 
    113 O         -1.6185  -21.6655  -59.3209 O.2       20 UNK        -0.5000 
    114 N         -1.2080  -21.3017  -57.1207 N.am      21 UNK        -0.5000 
    115 CA         0.0395  -20.5546  -57.2768 C.3       21 UNK         0.1400 
    116 CB         0.9752  -20.8468  -56.0925 C.3       21 UNK        -0.1800 
    117 C         -0.2283  -19.0456  -57.4103 C.2       21 UNK         0.5000 
    118 O          0.4322  -18.3910  -58.2184 O.2       21 UNK        -0.5000 
    119 N         -1.1934  -18.5226  -56.6382 N.am      22 UNK        -0.5000 
    120 CA        -1.6635  -17.1292  -56.7364 C.3       22 UNK         0.1400 
    121 C         -2.3498  -16.8014  -58.0938 C.2       22 UNK         0.5000 
    122 N         -3.1706  -17.6885  -58.6429 N.am      22 UNK        -0.7600 
    123 O         -2.1343  -15.7300  -58.6538 O.2       22 UNK        -0.5000 
    124 C124       -2.5988  -16.7259  -55.5692 C.3       23 UNK        -0.0398 
    125 S125       -1.7886  -16.7282  -53.9334 S.3       23 UNK        -0.2404 
    126 C126       -3.1487  -17.3571  -52.8969 C.3       23 UNK        -0.0205 
    127 H127       -2.9658   -8.8991  -45.6705 H         1 UNK         0.0600 
    128 H128       -1.4319   -8.3307  -46.3350 H         1 UNK         0.0600 
    129 H129       -2.9567   -7.6914  -46.9587 H         1 UNK         0.0600 
    130 H130       -3.4893  -10.9297  -46.4004 H         1 UNK         0.3000 
    131 H131       -3.5276  -11.6600  -49.1582 H         1 UNK         0.0600 
    132 H132       -3.7114  -13.7787  -46.9796 H         1 UNK         0.0800 
    133 H133       -4.9222  -12.5394  -46.9925 H         1 UNK         0.0800 
    134 H134       -5.8900  -16.1472  -48.7750 H         1 UNK         0.0800 
    135 H135       -4.8352  -15.7615  -47.4470 H         1 UNK         0.0800 
    136 H136       -4.8595  -16.1386  -51.1725 H         1 UNK         0.1150 
    137 H137       -1.0248  -18.0485  -51.3056 H         1 UNK         0.1150 
    138 H138       -2.5620  -16.5698  -47.5834 H         1 UNK         0.1150 
    139 H139       -0.3577  -17.4999  -47.6354 H         1 UNK         0.0800 
    140 H140        0.4766  -17.4482  -49.1692 H         1 UNK         0.0800 
    141 H141       -2.5911  -20.0387  -48.1117 H         1 UNK         0.0800 
    142 H142       -1.7221  -19.3773  -46.7410 H         1 UNK         0.0800 
    143 H143       -1.3259  -22.2049  -47.8201 H         1 UNK         0.0600 
    144 H144        0.2068  -20.7761  -45.8957 H         1 UNK         0.3000 
    145 H145        1.5782  -23.7120  -44.3135 H         1 UNK         0.0600 
    146 H146        3.6412  -22.5423  -44.9719 H         1 UNK         0.0600 
    147 H147        2.8736  -23.2144  -46.4015 H         1 UNK         0.0600 
    148 H148        2.7478  -21.4909  -46.0688 H         1 UNK         0.0600 
    149 H149        1.9905  -20.9602  -43.7656 H         1 UNK         0.3000 
    150 H150       -0.6359  -20.6238  -41.3095 H         1 UNK         0.0600 
    151 H151        2.4231  -20.6288  -41.1718 H         1 UNK         0.0600 
    152 H152        1.3562  -21.6325  -40.1983 H         1 UNK         0.0600 
    153 H153        1.3326  -19.8863  -40.0033 H         1 UNK         0.0600 
    154 H154        1.2177  -18.7066  -42.2596 H         1 UNK         0.3000 
    155 H155       -0.7204  -17.4857  -45.0223 H         1 UNK         0.0600 
    156 H156       -0.0490  -16.2868  -42.2882 H         1 UNK         0.0600 
    157 H157       -1.6683  -16.4188  -42.9660 H         1 UNK         0.0600 
    158 H158       -0.4787  -15.3856  -43.7439 H         1 UNK         0.0600 
    159 H159        1.7582  -16.6045  -43.9715 H         1 UNK         0.3000 
    160 H160        3.8336  -18.7720  -46.0008 H         1 UNK         0.0600 
    161 H161        3.3040  -15.7783  -45.6707 H         1 UNK         0.0600 
    162 H162        3.3010  -16.6836  -47.1766 H         1 UNK         0.0600 
    163 H163        4.7989  -16.4860  -46.2814 H         1 UNK         0.0600 
    164 H164        4.5069  -17.0729  -43.7966 H         1 UNK         0.3000 
    165 H165        4.6751  -19.6852  -41.3628 H         1 UNK         0.0600 
    166 H166        7.0846  -19.1656  -41.3507 H         1 UNK         0.0600 
    167 H167        6.9564  -18.3561  -42.9131 H         1 UNK         0.0600 
    168 H168        6.6904  -20.0910  -42.7895 H         1 UNK         0.0600 
    169 H169        5.7087  -17.1488  -41.0729 H         1 UNK         0.3000 
    170 H170        3.3589  -16.1872  -38.9966 H         1 UNK         0.0600 
    171 H171        5.8333  -16.1734  -39.2252 H         1 UNK         0.0600 
    172 H172        5.7241  -15.0780  -40.6074 H         1 UNK         0.0600 
    173 H173        5.2210  -14.5483  -39.0081 H         1 UNK         0.0600 
    174 H174        3.4897  -14.1904  -41.1680 H         1 UNK         0.3000 
    175 H175        0.1482  -13.8713  -41.6248 H         1 UNK         0.0600 
    176 H176        1.4961  -11.8466  -39.7623 H         1 UNK         0.0600 
    177 H177        0.0786  -11.5492  -40.7704 H         1 UNK         0.0600 
    178 H178       -0.0177  -12.6802  -39.4324 H         1 UNK         0.0600 
    179 H179        2.0095  -11.9033  -42.2121 H         1 UNK         0.3000 
    180 H180        2.8212  -11.6472  -44.1952 H         1 UNK         0.0600 
    181 H181        4.6390  -14.0438  -44.8089 H         1 UNK         0.0600 
    182 H182        4.9639  -12.7773  -43.6358 H         1 UNK         0.0600 
    183 H183        4.9013  -12.3860  -45.3465 H         1 UNK         0.0600 
    184 H184        2.7959  -13.4849  -46.4027 H         1 UNK         0.3000 
    185 H185        0.9758  -12.7644  -48.1105 H         1 UNK         0.0600 
    186 H186       -0.0387  -15.0661  -48.2671 H         1 UNK         0.0600 
    187 H187        1.4071  -15.1099  -47.2827 H         1 UNK         0.0600 
    188 H188       -0.1733  -15.1419  -46.5098 H         1 UNK         0.0600 
    189 H189       -1.2699  -12.2166  -46.5052 H         1 UNK         0.3000 
    190 H190       -2.1355  -21.1539  -44.4977 H         1 UNK         0.3000 
    191 H191       -4.8540  -22.0235  -44.5317 H         1 UNK         0.0600 
    192 H192       -4.6390  -21.8950  -42.0464 H         1 UNK         0.0600 
    193 H193       -3.9864  -20.4618  -42.8256 H         1 UNK         0.0600 
    194 H194       -2.8976  -21.6951  -42.1964 H         1 UNK         0.0600 
    195 H195       -1.8192  -23.6855  -43.5053 H         1 UNK         0.3000 
    196 H196       -2.9941  -26.1543  -42.7673 H         1 UNK         0.0600 
    197 H197       -0.1695  -25.5436  -43.7877 H         1 UNK         0.0600 
    198 H198       -0.7022  -25.4846  -42.1090 H         1 UNK         0.0600 
    199 H199       -0.6576  -27.0193  -42.9634 H         1 UNK         0.0600 
    200 H200       -1.8583  -24.9738  -45.9259 H         1 UNK         0.3000 
    201 H201       -2.4039  -27.4017  -47.3901 H         1 UNK         0.0600 
    202 H202       -2.0266  -24.5157  -48.3531 H         1 UNK         0.0600 
    203 H203       -1.9339  -25.9600  -49.3524 H         1 UNK         0.0600 
    204 H204       -0.7296  -25.6842  -48.1083 H         1 UNK         0.0600 
    205 H205       -4.5799  -25.3112  -45.9322 H         1 UNK         0.3000 
    206 H206       -6.7255  -24.8408  -46.0676 H         1 UNK         0.0600 
    207 H207       -6.9772  -27.3208  -47.8502 H         1 UNK         0.0600 
    208 H208       -6.9415  -27.3335  -46.0875 H         1 UNK         0.0600 
    209 H209       -8.2686  -26.5561  -46.9343 H         1 UNK         0.0600 
    210 H210       -5.1204  -23.3618  -47.7415 H         1 UNK         0.3000 
    211 H211       -5.1408  -21.7939  -49.2524 H         1 UNK         0.0600 
    212 H212       -7.2239  -20.7846  -50.0450 H         1 UNK         0.0600 
    213 H213       -7.4146  -21.2381  -48.3605 H         1 UNK         0.0600 
    214 H214       -8.1463  -22.2202  -49.6301 H         1 UNK         0.0600 
    215 H215       -4.9254  -24.7633  -50.1250 H         1 UNK         0.3000 
    216 H216       -5.5423  -24.8945  -52.8891 H         1 UNK         0.0600 
    217 H217       -3.3035  -26.2763  -51.3193 H         1 UNK         0.0600 
    218 H218       -3.8771  -26.7495  -52.9130 H         1 UNK         0.0600 
    219 H219       -4.9476  -26.8805  -51.5275 H         1 UNK         0.0600 
    220 H220       -3.1287  -23.0796  -51.2624 H         1 UNK         0.3000 
    221 H221       -1.2016  -22.5693  -53.2660 H         1 UNK         0.0600 
    222 H222       -0.9328  -21.9629  -50.8642 H         1 UNK         0.0600 
    223 H223       -2.2406  -20.7856  -50.9952 H         1 UNK         0.0600 
    224 H224       -0.7398  -20.5439  -51.8788 H         1 UNK         0.0600 
    225 H225       -4.5540  -21.6408  -53.2184 H         1 UNK         0.3000 
    226 H226       -4.5942  -19.2896  -54.7523 H         1 UNK         0.0600 
    227 H227       -6.5003  -21.6841  -54.7578 H         1 UNK         0.0600 
    228 H228       -6.5999  -20.2717  -53.7079 H         1 UNK         0.0600 
    229 H229       -6.8624  -20.0998  -55.4362 H         1 UNK         0.0600 
    230 H230       -3.8614  -22.6040  -55.7572 H         1 UNK         0.3000 
    231 H231       -3.9996  -22.1936  -58.5968 H         1 UNK         0.0600 
    232 H232       -2.4574  -24.2479  -56.9222 H         1 UNK         0.0600 
    233 H233       -2.7371  -24.3473  -58.6572 H         1 UNK         0.0600 
    234 H234       -4.0947  -24.4438  -57.5460 H         1 UNK         0.0600 
    235 H235       -1.5785  -21.3511  -56.1793 H         1 UNK         0.3000 
    236 H236        0.5471  -20.8868  -58.1851 H         1 UNK         0.0600 
    237 H237        1.1652  -21.9157  -55.9945 H         1 UNK         0.0600 
    238 H238        1.9393  -20.3567  -56.2327 H         1 UNK         0.0600 
    239 H239        0.5660  -20.4908  -55.1472 H         1 UNK         0.0600 
    240 H240       -1.6394  -19.1127  -55.9443 H         1 UNK         0.3000 
    241 H241       -0.7789  -16.4919  -56.6764 H         1 UNK         0.0600 
    242 H242       -3.6087  -17.4740  -59.5242 H         1 UNK         0.3800 
    243 H243       -3.4314  -18.5401  -58.1522 H         1 UNK         0.3800 
    244 H244       -3.4691  -17.3824  -55.5533 H         1 UNK         0.0800 
    245 H245       -2.9871  -15.7172  -55.7230 H         1 UNK         0.0800 
    246 H246       -4.0854  -16.9097  -53.2331 H         1 UNK         0.0800 
    247 H247       -3.2459  -18.4288  -53.0461 H         1 UNK         0.0800 
@<TRIPOS>BOND
     1    1    2 1    
     2    1  127 1    
     3    1  128 1    
     4    1  129 1    
     5    2    3 2    
     6    2    4 am   BACKBONE|DICT|INTERRES
     7    4    5 1    
     8    4  130 1    
     9    5    6 1    
    10    5   65 1    
    11    5  131 1    
    12    6    7 1    
    13    6  132 1    
    14    6  133 1    
    15    7    8 1    
    16    8    9 1    
    17    8  134 1    
    18    8  135 1    
    19    9   10 ar   
    20    9   14 ar   
    21   10   11 ar   
    22   10  136 1    
    23   11   12 ar   
    24   11  126 1    
    25   12   13 ar   
    26   12  137 1    
    27   13   14 ar   
    28   13   15 1    
    29   14  138 1    
    30   15   16 1    
    31   15  139 1    
    32   15  140 1    
    33   16   17 1    
    34   17   18 1    
    35   17  141 1    
    36   17  142 1    
    37   18   19 1    
    38   18   67 1    
    39   18  143 1    
    40   19   20 am   BACKBONE|DICT|INTERRES
    41   19  144 1    
    42   20   21 2    
    43   20   22 1    
    44   22   23 1    
    45   22   24 1    
    46   22  145 1    
    47   23  146 1    
    48   23  147 1    
    49   23  148 1    
    50   24   25 am   BACKBONE|DICT|INTERRES
    51   24  149 1    
    52   25   26 2    
    53   25   27 1    
    54   27   28 1    
    55   27   29 1    
    56   27  150 1    
    57   28  151 1    
    58   28  152 1    
    59   28  153 1    
    60   29   30 am   BACKBONE|DICT|INTERRES
    61   29  154 1    
    62   30   31 2    
    63   30   32 1    
    64   32   33 1    
    65   32   34 1    
    66   32  155 1    
    67   33  156 1    
    68   33  157 1    
    69   33  158 1    
    70   34   35 am   BACKBONE|DICT|INTERRES
    71   34  159 1    
    72   35   36 2    
    73   35   37 1    
    74   37   38 1    
    75   37   39 1    
    76   37  160 1    
    77   38  161 1    
    78   38  162 1    
    79   38  163 1    
    80   39   40 am   BACKBONE|DICT|INTERRES
    81   39  164 1    
    82   40   41 2    
    83   40   42 1    
    84   42   43 1    
    85   42   44 1    
    86   42  165 1    
    87   43  166 1    
    88   43  167 1    
    89   43  168 1    
    90   44   45 am   BACKBONE|DICT|INTERRES
    91   44  169 1    
    92   45   46 2    
    93   45   47 1    
    94   47   48 1    
    95   47   49 1    
    96   47  170 1    
    97   48  171 1    
    98   48  172 1    
    99   48  173 1    
   100   49   50 am   BACKBONE|DICT|INTERRES
   101   49  174 1    
   102   50   51 2    
   103   50   52 1    
   104   52   53 1    
   105   52   54 1    
   106   52  175 1    
   107   53  176 1    
   108   53  177 1    
   109   53  178 1    
   110   54   55 am   BACKBONE|DICT|INTERRES
   111   54  179 1    
   112   55   56 2    
   113   55   57 1    
   114   57   58 1    
   115   57   59 1    
   116   57  180 1    
   117   58  181 1    
   118   58  182 1    
   119   58  183 1    
   120   59   60 am   BACKBONE|DICT|INTERRES
   121   59  184 1    
   122   60   61 2    
   123   60   62 1    
   124   62   63 1    
   125   62   64 1    
   126   62  185 1    
   127   63  186 1    
   128   63  187 1    
   129   63  188 1    
   130   64   65 am   BACKBONE|DICT|INTERRES
   131   64  189 1    
   132   65   66 2    
   133   67   68 2    
   134   67   69 am   BACKBONE|DICT|INTERRES
   135   69   70 1    
   136   69  190 1    
   137   70   71 1    
   138   70   72 1    
   139   70  191 1    
   140   71  192 1    
   141   71  193 1    
   142   71  194 1    
   143   72   73 2    
   144   72   74 am   BACKBONE|DICT|INTERRES
   145   74   75 1    
   146   74  195 1    
   147   75   76 1    
   148   75   77 1    
   149   75  196 1    
   150   76  197 1    
   151   76  198 1    
   152   76  199 1    
   153   77   78 2    
   154   77   79 am   BACKBONE|DICT|INTERRES
   155   79   80 1    
   156   79  200 1    
   157   80   81 1    
   158   80   82 1    
   159   80  201 1    
   160   81  202 1    
   161   81  203 1    
   162   81  204 1    
   163   82   83 2    
   164   82   84 am   BACKBONE|DICT|INTERRES
   165   84   85 1    
   166   84  205 1    
   167   85   86 1    
   168   85   87 1    
   169   85  206 1    
   170   86  207 1    
   171   86  208 1    
   172   86  209 1    
   173   87   88 2    
   174   87   89 am   BACKBONE|DICT|INTERRES
   175   89   90 1    
   176   89  210 1    
   177   90   91 1    
   178   90   92 1    
   179   90  211 1    
   180   91  212 1    
   181   91  213 1    
   182   91  214 1    
   183   92   93 2    
   184   92   94 am   BACKBONE|DICT|INTERRES
   185   94   95 1    
   186   94  215 1    
   187   95   96 1    
   188   95   97 1    
   189   95  216 1    
   190   96  217 1    
   191   96  218 1    
   192   96  219 1    
   193   97   98 2    
   194   97   99 am   BACKBONE|DICT|INTERRES
   195   99  100 1    
   196   99  220 1    
   197  100  101 1    
   198  100  102 1    
   199  100  221 1    
   200  101  222 1    
   201  101  223 1    
   202  101  224 1    
   203  102  103 2    
   204  102  104 am   BACKBONE|DICT|INTERRES
   205  104  105 1    
   206  104  225 1    
   207  105  106 1    
   208  105  107 1    
   209  105  226 1    
   210  106  227 1    
   211  106  228 1    
   212  106  229 1    
   213  107  108 2    
   214  107  109 am   BACKBONE|DICT|INTERRES
   215  109  110 1    
   216  109  230 1    
   217  110  111 1    
   218  110  112 1    
   219  110  231 1    
   220  111  232 1    
   221  111  233 1    
   222  111  234 1    
   223  112  113 2    
   224  112  114 am   BACKBONE|DICT|INTERRES
   225  114  115 1    
   226  114  235 1    
   227  115  116 1    
   228  115  117 1    
   229  115  236 1    
   230  116  237 1    
   231  116  238 1    
   232  116  239 1    
   233  117  118 2    
   234  117  119 am   BACKBONE|DICT|INTERRES
   235  119  120 1    
   236  119  240 1    
   237  120  121 1    
   238  120  124 1    
   239  120  241 1    
   240  121  122 am   BACKBONE|DICT|INTERRES
   241  121  123 2    
   242  122  242 1    
   243  122  243 1    
   244  124  125 1    
   245  124  244 1    
   246  124  245 1    
   247  125  126 1    
   248  126  246 1    
   249  126  247 1    
@<TRIPOS>SUBSTRUCTURE
     1 UNK         1 GROUP             0       ****    0 ROOT    
