@<TRIPOS>MOLECULE
3R540
247   249    1
SMALL
USER_CHARGES


@<TRIPOS>ATOM
      1 CA          4.2983  -12.6603  -50.8853 C.3       0 UNK        -0.1800 
      2 C           4.0045  -12.8808  -49.4086 C.2       0 UNK         0.5000 
      3 O           3.2594  -12.1035  -48.8115 O.2       0 UNK        -0.5000 
      4 N           4.5937  -13.9303  -48.8196 N.am      1 UNK        -0.5000 
      5 CA          4.4629  -14.3894  -47.4272 C.3       1 UNK         0.1400 
      6 C6          3.0094  -14.7392  -47.0114 C.3       23 UNK        -0.0398 
      7 S7          2.4616  -16.3068  -47.7512 S.3       23 UNK        -0.2404 
      8 C8          1.3441  -15.7666  -49.0880 C.3       23 UNK        -0.0205 
      9 C9          0.4492  -16.9123  -49.5475 C.ar      23 UNK        -0.0193 
     10 C10        -0.9429  -16.7714  -49.5541 C.ar      23 UNK        -0.1150 
     11 C11        -1.7629  -17.8497  -49.9033 C.ar      23 UNK        -0.0193 
     12 C12        -1.1840  -19.0813  -50.2179 C.ar      23 UNK        -0.1150 
     13 C13         0.2044  -19.2325  -50.2326 C.ar      23 UNK        -0.0193 
     14 C14         1.0131  -18.1323  -49.9328 C.ar      23 UNK        -0.1150 
     15 C15         0.8130  -20.5972  -50.5376 C.3       23 UNK        -0.0205 
     16 S16         2.1769  -21.0777  -49.4167 S.3       23 UNK        -0.2404 
     17 C17         1.4948  -20.7302  -47.7550 C.3       23 UNK        -0.0398 
     18 CA          0.9342  -21.9746  -47.0346 C.3       11 UNK         0.1400 
     19 N           0.7715  -21.7297  -45.6020 N.am      11 UNK        -0.5000 
     20 C           0.5027  -22.6727  -44.6895 C.2       10 UNK         0.5000 
     21 O           0.4192  -23.8738  -44.9487 O.2       10 UNK        -0.5000 
     22 CA          0.2384  -22.1806  -43.2543 C.3       10 UNK         0.1400 
     23 CB          1.5560  -21.8697  -42.5287 C.3       10 UNK        -0.1800 
     24 N          -0.6324  -21.0037  -43.2162 N.am      10 UNK        -0.5000 
     25 C          -1.9048  -20.9925  -43.6407 C.2       9 UNK         0.5000 
     26 O          -2.4907  -21.9852  -44.0737 O.2       9 UNK        -0.5000 
     27 CA         -2.6326  -19.6370  -43.6171 C.3       9 UNK         0.1400 
     28 CB         -3.1310  -19.3093  -42.2017 C.3       9 UNK        -0.1800 
     29 N          -1.7996  -18.5403  -44.1089 N.am      9 UNK        -0.5000 
     30 C          -1.3205  -18.4409  -45.3560 C.2       8 UNK         0.5000 
     31 O          -1.5510  -19.2573  -46.2436 O.2       8 UNK        -0.5000 
     32 CA         -0.3717  -17.2697  -45.6483 C.3       8 UNK         0.1400 
     33 CB         -1.1388  -15.9569  -45.8666 C.3       8 UNK        -0.1800 
     34 N           0.6279  -17.0961  -44.5958 N.am      8 UNK        -0.5000 
     35 C           1.5901  -17.9861  -44.3151 C.2       7 UNK         0.5000 
     36 O           1.7490  -19.0428  -44.9260 O.2       7 UNK        -0.5000 
     37 CA          2.4999  -17.6605  -43.1189 C.3       7 UNK         0.1400 
     38 CB          3.6915  -16.7970  -43.5563 C.3       7 UNK        -0.1800 
     39 N           1.7810  -16.9997  -42.0273 N.am      7 UNK        -0.5000 
     40 C           0.8487  -17.6065  -41.2798 C.2       6 UNK         0.5000 
     41 O           0.5026  -18.7789  -41.4374 O.2       6 UNK        -0.5000 
     42 CA          0.1599  -16.7492  -40.2020 C.3       6 UNK         0.1400 
     43 CB          1.1239  -16.4447  -39.0447 C.3       6 UNK        -0.1800 
     44 N          -0.4106  -15.4946  -40.7033 N.am      6 UNK        -0.5000 
     45 C          -1.3126  -15.3893  -41.6897 C.2       5 UNK         0.5000 
     46 O          -1.6910  -16.3407  -42.3681 O.2       5 UNK        -0.5000 
     47 CA         -1.9066  -13.9978  -41.9820 C.3       5 UNK         0.1400 
     48 CB         -3.3860  -13.9623  -41.5687 C.3       5 UNK        -0.1800 
     49 N          -1.2086  -12.9060  -41.2974 N.am      5 UNK        -0.5000 
     50 C          -0.0876  -12.2803  -41.6810 C.2       4 UNK         0.5000 
     51 O           0.3930  -11.3726  -41.0009 O.2       4 UNK        -0.5000 
     52 CA          0.6038  -12.6707  -43.0089 C.3       4 UNK         0.1400 
     53 CB          0.0481  -11.8488  -44.1824 C.3       4 UNK        -0.1800 
     54 N           2.0419  -12.4408  -42.9252 N.am      4 UNK        -0.5000 
     55 C           2.8978  -13.1961  -42.2295 C.2       3 UNK         0.5000 
     56 O           2.5704  -14.2518  -41.6822 O.2       3 UNK        -0.5000 
     57 CA          4.3553  -12.6902  -42.1616 C.3       3 UNK         0.1400 
     58 CB          5.3118  -13.7146  -41.5270 C.3       3 UNK        -0.1800 
     59 N           4.8707  -12.3232  -43.4821 N.am      3 UNK        -0.5000 
     60 C           4.6469  -11.1785  -44.1378 C.2       2 UNK         0.5000 
     61 O           3.9680  -10.2596  -43.6785 O.2       2 UNK        -0.5000 
     62 CA          5.2267  -11.0580  -45.5616 C.3       2 UNK         0.1400 
     63 CB          6.7561  -10.8735  -45.5369 C.3       2 UNK        -0.1800 
     64 N           4.8242  -12.1515  -46.4572 N.am      2 UNK        -0.5000 
     65 C           5.1225  -13.4558  -46.3912 C.2       1 UNK         0.5000 
     66 O           5.8708  -13.9441  -45.5429 O.2       1 UNK        -0.5000 
     67 C          -0.3789  -22.4689  -47.6737 C.2       11 UNK         0.5000 
     68 O          -0.3585  -23.4648  -48.3950 O.2       11 UNK        -0.5000 
     69 N          -1.5025  -21.8028  -47.3709 N.am      12 UNK        -0.5000 
     70 CA         -2.8380  -22.1471  -47.8582 C.3       12 UNK         0.1400 
     71 CB         -3.8582  -21.1040  -47.3804 C.3       12 UNK        -0.1800 
     72 C          -3.2948  -23.5570  -47.4533 C.2       12 UNK         0.5000 
     73 O          -3.9087  -24.2407  -48.2714 O.2       12 UNK        -0.5000 
     74 N          -2.9649  -23.9788  -46.2261 N.am      13 UNK        -0.5000 
     75 CA         -3.2363  -25.3241  -45.7195 C.3       13 UNK         0.1400 
     76 CB         -2.9166  -25.3750  -44.2180 C.3       13 UNK        -0.1800 
     77 C          -2.4657  -26.4231  -46.4776 C.2       13 UNK         0.5000 
     78 O          -3.0014  -27.5156  -46.6673 O.2       13 UNK        -0.5000 
     79 N          -1.2340  -26.1147  -46.9036 N.am      14 UNK        -0.5000 
     80 CA         -0.3693  -27.0221  -47.6548 C.3       14 UNK         0.1400 
     81 CB          1.0971  -26.6207  -47.4280 C.3       14 UNK        -0.1800 
     82 C          -0.7018  -27.0388  -49.1577 C.2       14 UNK         0.5000 
     83 O          -0.7753  -28.1136  -49.7540 O.2       14 UNK        -0.5000 
     84 N          -0.8803  -25.8489  -49.7446 N.am      15 UNK        -0.5000 
     85 CA         -1.0146  -25.6327  -51.1870 C.3       15 UNK         0.1400 
     86 CB         -0.3149  -24.3101  -51.5424 C.3       15 UNK        -0.1800 
     87 C          -2.4727  -25.6226  -51.6851 C.2       15 UNK         0.5000 
     88 O          -2.6942  -25.3201  -52.8587 O.2       15 UNK        -0.5000 
     89 N          -3.4402  -25.9059  -50.8004 N.am      16 UNK        -0.5000 
     90 CA         -4.8892  -25.9022  -51.0445 C.3       16 UNK         0.1400 
     91 CB         -5.2857  -27.0428  -52.0050 C.3       16 UNK        -0.1800 
     92 C          -5.3822  -24.5190  -51.5155 C.2       16 UNK         0.5000 
     93 O          -5.9495  -24.3884  -52.6020 O.2       16 UNK        -0.5000 
     94 N          -5.0846  -23.4989  -50.6983 N.am      17 UNK        -0.5000 
     95 CA         -5.3327  -22.0717  -50.9364 C.3       17 UNK         0.1400 
     96 CB         -6.8463  -21.7729  -50.9018 C.3       17 UNK        -0.1800 
     97 C          -4.6267  -21.5504  -52.2059 C.2       17 UNK         0.5000 
     98 O          -5.1978  -20.7434  -52.9389 O.2       17 UNK        -0.5000 
     99 N          -3.4050  -22.0561  -52.4434 N.am      18 UNK        -0.5000 
    100 CA        -2.5713  -21.8456  -53.6331 C.3       18 UNK         0.1400 
    101 CB        -2.0751  -20.3868  -53.7103 C.3       18 UNK        -0.1800 
    102 C         -3.2835  -22.3161  -54.9167 C.2       18 UNK         0.5000 
    103 O         -3.4219  -21.5472  -55.8673 O.2       18 UNK        -0.5000 
    104 N         -3.7728  -23.5649  -54.8916 N.am      19 UNK        -0.5000 
    105 CA        -4.6301  -24.1920  -55.9050 C.3       19 UNK         0.1400 
    106 CB        -3.8320  -24.4773  -57.1939 C.3       19 UNK        -0.1800 
    107 C         -5.9214  -23.3802  -56.1527 C.2       19 UNK         0.5000 
    108 O         -6.2860  -23.1135  -57.2992 O.2       19 UNK        -0.5000 
    109 N         -6.5593  -22.9748  -55.0464 N.am      20 UNK        -0.5000 
    110 CA        -7.7621  -22.1442  -54.9358 C.3       20 UNK         0.1400 
    111 CB        -8.9690  -22.8273  -55.6116 C.3       20 UNK        -0.1800 
    112 C         -7.6027  -20.6732  -55.3821 C.2       20 UNK         0.5000 
    113 O         -8.5991  -19.9473  -55.3790 O.2       20 UNK        -0.5000 
    114 N         -6.3834  -20.2226  -55.7173 N.am      21 UNK        -0.5000 
    115 CA        -6.0971  -18.8464  -56.1400 C.3       21 UNK         0.1400 
    116 CB        -4.6549  -18.7433  -56.6545 C.3       21 UNK        -0.1800 
    117 C         -6.3521  -17.7919  -55.0453 C.2       21 UNK         0.5000 
    118 O         -6.7279  -16.6656  -55.3745 O.2       21 UNK        -0.5000 
    119 N         -6.1782  -18.1746  -53.7739 N.am      22 UNK        -0.5000 
    120 CA        -6.5308  -17.3545  -52.6028 C.3       22 UNK         0.1400 
    121 C         -8.0515  -17.3709  -52.2560 C.2       22 UNK         0.5000 
    122 N         -8.9026  -18.1107  -52.9590 N.am      22 UNK        -0.7600 
    123 O         -8.4754  -16.6844  -51.3302 O.2       22 UNK        -0.5000 
    124 C124       -5.6735  -17.7072  -51.3590 C.3       23 UNK        -0.0398 
    125 S125       -3.8832  -17.5025  -51.6336 S.3       23 UNK        -0.2404 
    126 C126       -3.2752  -17.7024  -49.9310 C.3       23 UNK        -0.0205 
    127 H127        4.9735  -13.4183  -51.2830 H         1 UNK         0.0600 
    128 H128        4.7576  -11.6831  -51.0345 H         1 UNK         0.0600 
    129 H129        3.3727  -12.6946  -51.4599 H         1 UNK         0.0600 
    130 H130        5.2117  -14.4993  -49.3814 H         1 UNK         0.3000 
    131 H131        5.0451  -15.3118  -47.3821 H         1 UNK         0.0600 
    132 H132        2.9357  -14.8742  -45.9319 H         1 UNK         0.0800 
    133 H133        2.3104  -13.9377  -47.2497 H         1 UNK         0.0800 
    134 H134        0.7377  -14.9305  -48.7368 H         1 UNK         0.0800 
    135 H135        1.9328  -15.4008  -49.9301 H         1 UNK         0.0800 
    136 H136       -1.3900  -15.8267  -49.2787 H         1 UNK         0.1150 
    137 H137       -1.8214  -19.9209  -50.4562 H         1 UNK         0.1150 
    138 H138        2.0883  -18.2427  -49.9363 H         1 UNK         0.1150 
    139 H139        0.0459  -21.3698  -50.4884 H         1 UNK         0.0800 
    140 H140        1.1827  -20.5960  -51.5636 H         1 UNK         0.0800 
    141 H141        0.7549  -19.9301  -47.7776 H         1 UNK         0.0800 
    142 H142        2.3272  -20.3276  -47.1767 H         1 UNK         0.0800 
    143 H143        1.6672  -22.7781  -47.1352 H         1 UNK         0.0600 
    144 H144        0.8644  -20.7650  -45.2972 H         1 UNK         0.3000 
    145 H145       -0.2653  -22.9856  -42.7152 H         1 UNK         0.0600 
    146 H146        1.3769  -21.5890  -41.4906 H         1 UNK         0.0600 
    147 H147        2.2132  -22.7401  -42.5224 H         1 UNK         0.0600 
    148 H148        2.0968  -21.0523  -43.0063 H         1 UNK         0.0600 
    149 H149       -0.2346  -20.1500  -42.8390 H         1 UNK         0.3000 
    150 H150       -3.5018  -19.7138  -44.2727 H         1 UNK         0.0600 
    151 H151       -3.7241  -18.3947  -42.1961 H         1 UNK         0.0600 
    152 H152       -3.7620  -20.1097  -41.8134 H         1 UNK         0.0600 
    153 H153       -2.3032  -19.1732  -41.5047 H         1 UNK         0.0600 
    154 H154       -1.5921  -17.7985  -43.4430 H         1 UNK         0.3000 
    155 H155        0.1502  -17.5119  -46.5750 H         1 UNK         0.0600 
    156 H156       -1.6775  -15.6453  -44.9722 H         1 UNK         0.0600 
    157 H157       -1.8711  -16.0662  -46.6674 H         1 UNK         0.0600 
    158 H158       -0.4633  -15.1505  -46.1529 H         1 UNK         0.0600 
    159 H159        0.5361  -16.2870  -44.0023 H         1 UNK         0.3000 
    160 H160        2.8935  -18.6068  -42.7419 H         1 UNK         0.0600 
    161 H161        3.3792  -15.7950  -43.8473 H         1 UNK         0.0600 
    162 H162        4.2100  -17.2412  -44.4072 H         1 UNK         0.0600 
    163 H163        4.4166  -16.7006  -42.7488 H         1 UNK         0.0600 
    164 H164        2.0179  -16.0278  -41.8363 H         1 UNK         0.3000 
    165 H165       -0.6668  -17.3402  -39.8023 H         1 UNK         0.0600 
    166 H166        0.6073  -15.9525  -38.2206 H         1 UNK         0.0600 
    167 H167        1.5633  -17.3616  -38.6497 H         1 UNK         0.0600 
    168 H168        1.9430  -15.7973  -39.3607 H         1 UNK         0.0600 
    169 H169       -0.1377  -14.6537  -40.2161 H         1 UNK         0.3000 
    170 H170       -1.8690  -13.8433  -43.0608 H         1 UNK         0.0600 
    171 H171       -3.9562  -14.7379  -42.0822 H         1 UNK         0.0600 
    172 H172       -3.5097  -14.1204  -40.4966 H         1 UNK         0.0600 
    173 H173       -3.8436  -13.0058  -41.8222 H         1 UNK         0.0600 
    174 H174       -1.6347  -12.6076  -40.4322 H         1 UNK         0.3000 
    175 H175        0.4541  -13.7294  -43.2207 H         1 UNK         0.0600 
    176 H176        0.2164  -10.7806  -44.0390 H         1 UNK         0.0600 
    177 H177        0.5185  -12.1380  -45.1226 H         1 UNK         0.0600 
    178 H178       -1.0258  -11.9964  -44.2992 H         1 UNK         0.0600 
    179 H179        2.3877  -11.5632  -43.2951 H         1 UNK         0.3000 
    180 H180        4.3515  -11.8028  -41.5255 H         1 UNK         0.0600 
    181 H181        5.3890  -14.6186  -42.1307 H         1 UNK         0.0600 
    182 H182        4.9746  -14.0075  -40.5319 H         1 UNK         0.0600 
    183 H183        6.3142  -13.3002  -41.4189 H         1 UNK         0.0600 
    184 H184        5.3841  -13.0429  -43.9850 H         1 UNK         0.3000 
    185 H185        4.7999  -10.1531  -45.9971 H         1 UNK         0.0600 
    186 H186        7.0303   -9.9959  -44.9502 H         1 UNK         0.0600 
    187 H187        7.2687  -11.7293  -45.0974 H         1 UNK         0.0600 
    188 H188        7.1502  -10.7278  -46.5427 H         1 UNK         0.0600 
    189 H189        4.1888  -11.8839  -47.2060 H         1 UNK         0.3000 
    190 H190       -1.4414  -20.9582  -46.8038 H         1 UNK         0.3000 
    191 H191       -2.7982  -22.1143  -48.9483 H         1 UNK         0.0600 
    192 H192       -3.6097  -20.1109  -47.7507 H         1 UNK         0.0600 
    193 H193       -4.8639  -21.3416  -47.7283 H         1 UNK         0.0600 
    194 H194       -3.8961  -21.0525  -46.2925 H         1 UNK         0.0600 
    195 H195       -2.5164  -23.3289  -45.5876 H         1 UNK         0.3000 
    196 H196       -4.3028  -25.5209  -45.8470 H         1 UNK         0.0600 
    197 H197       -3.1260  -26.3629  -43.8060 H         1 UNK         0.0600 
    198 H198       -3.5194  -24.6562  -43.6626 H         1 UNK         0.0600 
    199 H199       -1.8672  -25.1519  -44.0224 H         1 UNK         0.0600 
    200 H200       -0.8712  -25.1893  -46.7144 H         1 UNK         0.3000 
    201 H201       -0.4998  -28.0363  -47.2710 H         1 UNK         0.0600 
    202 H202        1.3581  -26.6685  -46.3706 H         1 UNK         0.0600 
    203 H203        1.2987  -25.6062  -47.7739 H         1 UNK         0.0600 
    204 H204        1.7727  -27.2905  -47.9613 H         1 UNK         0.0600 
    205 H205       -0.7772  -25.0072  -49.1784 H         1 UNK         0.3000 
    206 H206       -0.5002  -26.4348  -51.7201 H         1 UNK         0.0600 
    207 H207        0.7020  -24.2805  -51.1502 H         1 UNK         0.0600 
    208 H208       -0.2458  -24.1802  -52.6227 H         1 UNK         0.0600 
    209 H209       -0.8534  -23.4537  -51.1370 H         1 UNK         0.0600 
    210 H210       -3.1582  -26.0735  -49.8442 H         1 UNK         0.3000 
    211 H211       -5.3695  -26.0951  -50.0841 H         1 UNK         0.0600 
    212 H212       -4.8648  -26.9043  -53.0014 H         1 UNK         0.0600 
    213 H213       -6.3693  -27.0984  -52.1149 H         1 UNK         0.0600 
    214 H214       -4.9469  -28.0083  -51.6298 H         1 UNK         0.0600 
    215 H215       -4.6276  -23.7365  -49.8187 H         1 UNK         0.3000 
    216 H216       -4.8780  -21.5279  -50.1098 H         1 UNK         0.0600 
    217 H217       -7.3874  -22.3230  -51.6696 H         1 UNK         0.0600 
    218 H218       -7.0539  -20.7141  -51.0534 H         1 UNK         0.0600 
    219 H219       -7.2736  -22.0483  -49.9377 H         1 UNK         0.0600 
    220 H220       -3.0660  -22.7528  -51.7980 H         1 UNK         0.3000 
    221 H221       -1.6940  -22.4830  -53.5232 H         1 UNK         0.0600 
    222 H222       -2.8990  -19.6766  -53.7784 H         1 UNK         0.0600 
    223 H223       -1.4820  -20.1270  -52.8356 H         1 UNK         0.0600 
    224 H224       -1.4397  -20.2347  -54.5833 H         1 UNK         0.0600 
    225 H225       -3.5796  -24.1377  -54.0732 H         1 UNK         0.3000 
    226 H226       -4.9441  -25.1508  -55.4897 H         1 UNK         0.0600 
    227 H227       -2.9413  -25.0686  -56.9818 H         1 UNK         0.0600 
    228 H228       -4.4335  -25.0412  -57.9077 H         1 UNK         0.0600 
    229 H229       -3.5149  -23.5583  -57.6878 H         1 UNK         0.0600 
    230 H230       -6.1822  -23.2931  -54.1564 H         1 UNK         0.3000 
    231 H231       -7.9801  -22.0963  -53.8698 H         1 UNK         0.0600 
    232 H232       -8.8688  -22.8493  -56.6969 H         1 UNK         0.0600 
    233 H233       -9.8961  -22.3007  -55.3827 H         1 UNK         0.0600 
    234 H234       -9.0875  -23.8533  -55.2631 H         1 UNK         0.0600 
    235 H235       -5.5927  -20.8520  -55.6536 H         1 UNK         0.3000 
    236 H236       -6.7650  -18.6182  -56.9731 H         1 UNK         0.0600 
    237 H237       -4.4656  -19.4622  -57.4518 H         1 UNK         0.0600 
    238 H238       -4.4550  -17.7497  -57.0573 H         1 UNK         0.0600 
    239 H239       -3.9326  -18.9229  -55.8581 H         1 UNK         0.0600 
    240 H240       -5.8479  -19.1179  -53.5792 H         1 UNK         0.3000 
    241 H241       -6.3074  -16.3149  -52.8492 H         1 UNK         0.0600 
    242 H242       -8.5966  -18.6613  -53.7522 H         1 UNK         0.3800 
    243 H243       -9.8804  -18.0958  -52.7162 H         1 UNK         0.3800 
    244 H244       -5.8590  -18.7341  -51.0461 H         1 UNK         0.0800 
    245 H245       -5.9521  -17.0740  -50.5147 H         1 UNK         0.0800 
    246 H246       -3.7345  -18.5851  -49.4864 H         1 UNK         0.0800 
    247 H247       -3.5906  -16.8498  -49.3278 H         1 UNK         0.0800 
@<TRIPOS>BOND
     1    1    2 1    
     2    1  127 1    
     3    1  128 1    
     4    1  129 1    
     5    2    3 2    
     6    2    4 am   BACKBONE|DICT|INTERRES
     7    4    5 1    
     8    4  130 1    
     9    5    6 1    
    10    5   65 1    
    11    5  131 1    
    12    6    7 1    
    13    6  132 1    
    14    6  133 1    
    15    7    8 1    
    16    8    9 1    
    17    8  134 1    
    18    8  135 1    
    19    9   10 ar   
    20    9   14 ar   
    21   10   11 ar   
    22   10  136 1    
    23   11   12 ar   
    24   11  126 1    
    25   12   13 ar   
    26   12  137 1    
    27   13   14 ar   
    28   13   15 1    
    29   14  138 1    
    30   15   16 1    
    31   15  139 1    
    32   15  140 1    
    33   16   17 1    
    34   17   18 1    
    35   17  141 1    
    36   17  142 1    
    37   18   19 1    
    38   18   67 1    
    39   18  143 1    
    40   19   20 am   BACKBONE|DICT|INTERRES
    41   19  144 1    
    42   20   21 2    
    43   20   22 1    
    44   22   23 1    
    45   22   24 1    
    46   22  145 1    
    47   23  146 1    
    48   23  147 1    
    49   23  148 1    
    50   24   25 am   BACKBONE|DICT|INTERRES
    51   24  149 1    
    52   25   26 2    
    53   25   27 1    
    54   27   28 1    
    55   27   29 1    
    56   27  150 1    
    57   28  151 1    
    58   28  152 1    
    59   28  153 1    
    60   29   30 am   BACKBONE|DICT|INTERRES
    61   29  154 1    
    62   30   31 2    
    63   30   32 1    
    64   32   33 1    
    65   32   34 1    
    66   32  155 1    
    67   33  156 1    
    68   33  157 1    
    69   33  158 1    
    70   34   35 am   BACKBONE|DICT|INTERRES
    71   34  159 1    
    72   35   36 2    
    73   35   37 1    
    74   37   38 1    
    75   37   39 1    
    76   37  160 1    
    77   38  161 1    
    78   38  162 1    
    79   38  163 1    
    80   39   40 am   BACKBONE|DICT|INTERRES
    81   39  164 1    
    82   40   41 2    
    83   40   42 1    
    84   42   43 1    
    85   42   44 1    
    86   42  165 1    
    87   43  166 1    
    88   43  167 1    
    89   43  168 1    
    90   44   45 am   BACKBONE|DICT|INTERRES
    91   44  169 1    
    92   45   46 2    
    93   45   47 1    
    94   47   48 1    
    95   47   49 1    
    96   47  170 1    
    97   48  171 1    
    98   48  172 1    
    99   48  173 1    
   100   49   50 am   BACKBONE|DICT|INTERRES
   101   49  174 1    
   102   50   51 2    
   103   50   52 1    
   104   52   53 1    
   105   52   54 1    
   106   52  175 1    
   107   53  176 1    
   108   53  177 1    
   109   53  178 1    
   110   54   55 am   BACKBONE|DICT|INTERRES
   111   54  179 1    
   112   55   56 2    
   113   55   57 1    
   114   57   58 1    
   115   57   59 1    
   116   57  180 1    
   117   58  181 1    
   118   58  182 1    
   119   58  183 1    
   120   59   60 am   BACKBONE|DICT|INTERRES
   121   59  184 1    
   122   60   61 2    
   123   60   62 1    
   124   62   63 1    
   125   62   64 1    
   126   62  185 1    
   127   63  186 1    
   128   63  187 1    
   129   63  188 1    
   130   64   65 am   BACKBONE|DICT|INTERRES
   131   64  189 1    
   132   65   66 2    
   133   67   68 2    
   134   67   69 am   BACKBONE|DICT|INTERRES
   135   69   70 1    
   136   69  190 1    
   137   70   71 1    
   138   70   72 1    
   139   70  191 1    
   140   71  192 1    
   141   71  193 1    
   142   71  194 1    
   143   72   73 2    
   144   72   74 am   BACKBONE|DICT|INTERRES
   145   74   75 1    
   146   74  195 1    
   147   75   76 1    
   148   75   77 1    
   149   75  196 1    
   150   76  197 1    
   151   76  198 1    
   152   76  199 1    
   153   77   78 2    
   154   77   79 am   BACKBONE|DICT|INTERRES
   155   79   80 1    
   156   79  200 1    
   157   80   81 1    
   158   80   82 1    
   159   80  201 1    
   160   81  202 1    
   161   81  203 1    
   162   81  204 1    
   163   82   83 2    
   164   82   84 am   BACKBONE|DICT|INTERRES
   165   84   85 1    
   166   84  205 1    
   167   85   86 1    
   168   85   87 1    
   169   85  206 1    
   170   86  207 1    
   171   86  208 1    
   172   86  209 1    
   173   87   88 2    
   174   87   89 am   BACKBONE|DICT|INTERRES
   175   89   90 1    
   176   89  210 1    
   177   90   91 1    
   178   90   92 1    
   179   90  211 1    
   180   91  212 1    
   181   91  213 1    
   182   91  214 1    
   183   92   93 2    
   184   92   94 am   BACKBONE|DICT|INTERRES
   185   94   95 1    
   186   94  215 1    
   187   95   96 1    
   188   95   97 1    
   189   95  216 1    
   190   96  217 1    
   191   96  218 1    
   192   96  219 1    
   193   97   98 2    
   194   97   99 am   BACKBONE|DICT|INTERRES
   195   99  100 1    
   196   99  220 1    
   197  100  101 1    
   198  100  102 1    
   199  100  221 1    
   200  101  222 1    
   201  101  223 1    
   202  101  224 1    
   203  102  103 2    
   204  102  104 am   BACKBONE|DICT|INTERRES
   205  104  105 1    
   206  104  225 1    
   207  105  106 1    
   208  105  107 1    
   209  105  226 1    
   210  106  227 1    
   211  106  228 1    
   212  106  229 1    
   213  107  108 2    
   214  107  109 am   BACKBONE|DICT|INTERRES
   215  109  110 1    
   216  109  230 1    
   217  110  111 1    
   218  110  112 1    
   219  110  231 1    
   220  111  232 1    
   221  111  233 1    
   222  111  234 1    
   223  112  113 2    
   224  112  114 am   BACKBONE|DICT|INTERRES
   225  114  115 1    
   226  114  235 1    
   227  115  116 1    
   228  115  117 1    
   229  115  236 1    
   230  116  237 1    
   231  116  238 1    
   232  116  239 1    
   233  117  118 2    
   234  117  119 am   BACKBONE|DICT|INTERRES
   235  119  120 1    
   236  119  240 1    
   237  120  121 1    
   238  120  124 1    
   239  120  241 1    
   240  121  122 am   BACKBONE|DICT|INTERRES
   241  121  123 2    
   242  122  242 1    
   243  122  243 1    
   244  124  125 1    
   245  124  244 1    
   246  124  245 1    
   247  125  126 1    
   248  126  246 1    
   249  126  247 1    
@<TRIPOS>SUBSTRUCTURE
     1 UNK         1 GROUP             0       ****    0 ROOT    
