@<TRIPOS>MOLECULE
3R540
247   249    1
SMALL
USER_CHARGES


@<TRIPOS>ATOM
      1 CA          2.0480  -19.9292  -52.2543 C.3       0 UNK        -0.1800 
      2 C           2.4355  -18.7307  -51.4020 C.2       0 UNK         0.5000 
      3 O           3.0374  -18.8977  -50.3430 O.2       0 UNK        -0.5000 
      4 N           2.1058  -17.5148  -51.8532 N.am      1 UNK        -0.5000 
      5 CA          2.2674  -16.2561  -51.1067 C.3       1 UNK         0.1400 
      6 C6          1.5173  -15.0853  -51.7824 C.3       23 UNK        -0.0398 
      7 S7         -0.2779  -15.4026  -51.8091 S.3       23 UNK        -0.2404 
      8 C8         -0.7998  -14.5496  -50.2877 C.3       23 UNK        -0.0205 
      9 C9         -1.9951  -15.2298  -49.6373 C.ar      23 UNK        -0.0193 
     10 C10        -3.2387  -15.2306  -50.2734 C.ar      23 UNK        -0.1150 
     11 C11        -4.3514  -15.8194  -49.6639 C.ar      23 UNK        -0.0193 
     12 C12        -4.2108  -16.4169  -48.4093 C.ar      23 UNK        -0.1150 
     13 C13        -2.9675  -16.4413  -47.7702 C.ar      23 UNK        -0.0193 
     14 C14        -1.8652  -15.8424  -48.3875 C.ar      23 UNK        -0.1150 
     15 C15        -2.8151  -17.1074  -46.4115 C.3       23 UNK        -0.0205 
     16 S16        -3.2087  -18.8813  -46.4911 S.3       23 UNK        -0.2404 
     17 C17        -2.5259  -19.4711  -44.9066 C.3       23 UNK        -0.0398 
     18 CA         -1.2837  -20.3644  -45.1271 C.3       11 UNK         0.1400 
     19 N          -0.4466  -20.4425  -43.9304 N.am      11 UNK        -0.5000 
     20 C           0.7626  -21.0185  -43.8834 C.2       10 UNK         0.5000 
     21 O           1.3319  -21.5054  -44.8598 O.2       10 UNK        -0.5000 
     22 CA          1.4207  -21.1054  -42.4984 C.3       10 UNK         0.1400 
     23 CB          2.0654  -19.7641  -42.1203 C.3       10 UNK        -0.1800 
     24 N           0.4595  -21.5041  -41.4689 N.am      10 UNK        -0.5000 
     25 C          -0.1017  -22.7198  -41.3928 C.2       9 UNK         0.5000 
     26 O           0.1578  -23.6425  -42.1644 O.2       9 UNK        -0.5000 
     27 CA         -1.1640  -22.9251  -40.2978 C.3       9 UNK         0.1400 
     28 CB         -0.4994  -23.2127  -38.9433 C.3       9 UNK        -0.1800 
     29 N          -2.0666  -21.7810  -40.1640 N.am      9 UNK        -0.5000 
     30 C          -2.9249  -21.3766  -41.1112 C.2       8 UNK         0.5000 
     31 O          -3.0606  -21.9362  -42.1974 O.2       8 UNK        -0.5000 
     32 CA         -3.7309  -20.0996  -40.8171 C.3       8 UNK         0.1400 
     33 CB         -5.0091  -20.4348  -40.0345 C.3       8 UNK        -0.1800 
     34 N          -2.9670  -19.0812  -40.0920 N.am      8 UNK        -0.5000 
     35 C          -1.8483  -18.5035  -40.5478 C.2       7 UNK         0.5000 
     36 O          -1.2946  -18.8184  -41.6045 O.2       7 UNK        -0.5000 
     37 CA         -1.2234  -17.4174  -39.6554 C.3       7 UNK         0.1400 
     38 CB          0.0498  -17.9463  -38.9772 C.3       7 UNK        -0.1800 
     39 N          -0.8923  -16.2289  -40.4365 N.am      7 UNK        -0.5000 
     40 C          -1.7902  -15.4076  -40.9992 C.2       6 UNK         0.5000 
     41 O          -3.0046  -15.4927  -40.8105 O.2       6 UNK        -0.5000 
     42 CA         -1.2459  -14.3030  -41.9295 C.3       6 UNK         0.1400 
     43 CB         -1.2009  -12.9546  -41.1938 C.3       6 UNK        -0.1800 
     44 N           0.0839  -14.5892  -42.4783 N.am      6 UNK        -0.5000 
     45 C           0.3538  -15.5764  -43.3419 C.2       5 UNK         0.5000 
     46 O          -0.4995  -16.3481  -43.7878 O.2       5 UNK        -0.5000 
     47 CA          1.8226  -15.7308  -43.7661 C.3       5 UNK         0.1400 
     48 CB          2.7488  -15.9966  -42.5644 C.3       5 UNK        -0.1800 
     49 N           1.9070  -16.8427  -44.7036 N.am      5 UNK        -0.5000 
     50 C           2.7336  -16.9244  -45.7474 C.2       4 UNK         0.5000 
     51 O           3.5949  -16.0813  -46.0107 O.2       4 UNK        -0.5000 
     52 CA          2.5008  -18.1341  -46.6725 C.3       4 UNK         0.1400 
     53 CB          1.2362  -17.9095  -47.5183 C.3       4 UNK        -0.1800 
     54 N           3.6277  -18.4086  -47.5653 N.am      4 UNK        -0.5000 
     55 C           4.8407  -18.8225  -47.1724 C.2       3 UNK         0.5000 
     56 O           5.1481  -19.0188  -45.9956 O.2       3 UNK        -0.5000 
     57 CA          5.8851  -19.0885  -48.2711 C.3       3 UNK         0.1400 
     58 CB          5.8201  -20.5586  -48.7169 C.3       3 UNK        -0.1800 
     59 N           5.6891  -18.2344  -49.4439 N.am      3 UNK        -0.5000 
     60 C           6.4790  -17.2087  -49.7927 C.2       2 UNK         0.5000 
     61 O           7.4682  -16.8578  -49.1480 O.2       2 UNK        -0.5000 
     62 CA          6.1228  -16.4479  -51.0888 C.3       2 UNK         0.1400 
     63 CB          6.9461  -16.9872  -52.2687 C.3       2 UNK        -0.1800 
     64 N           4.7019  -16.5287  -51.4286 N.am      2 UNK        -0.5000 
     65 C           3.7293  -15.8784  -50.7764 C.2       1 UNK         0.5000 
     66 O           3.9472  -15.0292  -49.9120 O.2       1 UNK        -0.5000 
     67 C          -1.6680  -21.7614  -45.6611 C.2       11 UNK         0.5000 
     68 O          -1.5686  -21.9928  -46.8656 O.2       11 UNK        -0.5000 
     69 N          -2.0584  -22.6747  -44.7604 N.am      12 UNK        -0.5000 
     70 CA         -2.3943  -24.0634  -45.0755 C.3       12 UNK         0.1400 
     71 CB         -3.0369  -24.7313  -43.8507 C.3       12 UNK        -0.1800 
     72 C          -1.1848  -24.8789  -45.5650 C.2       12 UNK         0.5000 
     73 O          -1.3289  -25.6551  -46.5095 O.2       12 UNK        -0.5000 
     74 N          -0.0175  -24.6768  -44.9360 N.am      13 UNK        -0.5000 
     75 CA          1.2475  -25.3112  -45.3139 C.3       13 UNK         0.1400 
     76 CB          2.3052  -25.0412  -44.2330 C.3       13 UNK        -0.1800 
     77 C           1.7503  -24.8533  -46.6948 C.2       13 UNK         0.5000 
     78 O           2.2022  -25.6833  -47.4847 O.2       13 UNK        -0.5000 
     79 N           1.6410  -23.5463  -46.9661 N.am      14 UNK        -0.5000 
     80 CA          1.9615  -22.9373  -48.2571 C.3       14 UNK         0.1400 
     81 CB          2.0731  -21.4243  -48.0608 C.3       14 UNK        -0.1800 
     82 C           0.9231  -23.2523  -49.3507 C.2       14 UNK         0.5000 
     83 O           1.2744  -23.2787  -50.5301 O.2       14 UNK        -0.5000 
     84 N          -0.3287  -23.4755  -48.9282 N.am      15 UNK        -0.5000 
     85 CA         -1.5205  -23.7761  -49.7223 C.3       15 UNK         0.1400 
     86 CB         -1.3381  -25.0813  -50.5256 C.3       15 UNK        -0.1800 
     87 C          -1.9960  -22.5921  -50.5896 C.2       15 UNK         0.5000 
     88 O          -2.6580  -22.8143  -51.6018 O.2       15 UNK        -0.5000 
     89 N          -1.6875  -21.3533  -50.1768 N.am      16 UNK        -0.5000 
     90 CA         -2.0134  -20.1230  -50.9100 C.3       16 UNK         0.1400 
     91 CB         -1.3363  -18.9284  -50.2251 C.3       16 UNK        -0.1800 
     92 C          -3.5271  -19.8765  -51.0593 C.2       16 UNK         0.5000 
     93 O          -3.9847  -19.4730  -52.1315 O.2       16 UNK        -0.5000 
     94 N          -4.2814  -20.1644  -49.9902 N.am      17 UNK        -0.5000 
     95 CA         -5.7415  -20.0891  -49.9746 C.3       17 UNK         0.1400 
     96 CB         -6.2410  -20.1373  -48.5234 C.3       17 UNK        -0.1800 
     97 C          -6.3934  -21.2029  -50.8148 C.2       17 UNK         0.5000 
     98 O          -7.3775  -20.9418  -51.5059 O.2       17 UNK        -0.5000 
     99 N          -5.8173  -22.4131  -50.7658 N.am      18 UNK        -0.5000 
    100 CA        -6.2724  -23.5859  -51.5182 C.3       18 UNK         0.1400 
    101 CB        -5.6158  -24.8486  -50.9419 C.3       18 UNK        -0.1800 
    102 C         -5.9975  -23.4624  -53.0284 C.2       18 UNK         0.5000 
    103 O         -6.8301  -23.8750  -53.8360 O.2       18 UNK        -0.5000 
    104 N         -4.8563  -22.8541  -53.3794 N.am      19 UNK        -0.5000 
    105 CA        -4.4688  -22.4892  -54.7438 C.3       19 UNK         0.1400 
    106 CB        -2.9699  -22.1482  -54.7564 C.3       19 UNK        -0.1800 
    107 C         -5.2873  -21.3156  -55.3209 C.2       19 UNK         0.5000 
    108 O         -5.2150  -21.0736  -56.5264 O.2       19 UNK        -0.5000 
    109 N         -6.0393  -20.6164  -54.4572 N.am      20 UNK        -0.5000 
    110 CA        -6.8866  -19.4579  -54.7384 C.3       20 UNK         0.1400 
    111 CB        -8.0630  -19.8415  -55.6606 C.3       20 UNK        -0.1800 
    112 C         -6.0701  -18.2561  -55.2488 C.2       20 UNK         0.5000 
    113 O         -6.4056  -17.6631  -56.2757 O.2       20 UNK        -0.5000 
    114 N         -5.0033  -17.9159  -54.5096 N.am      21 UNK        -0.5000 
    115 CA        -4.1508  -16.7525  -54.7756 C.3       21 UNK         0.1400 
    116 CB        -2.8983  -16.8431  -53.8921 C.3       21 UNK        -0.1800 
    117 C         -4.8719  -15.4036  -54.5609 C.2       21 UNK         0.5000 
    118 O         -4.4807  -14.3999  -55.1579 O.2       21 UNK        -0.5000 
    119 N         -5.9130  -15.4136  -53.7217 N.am      22 UNK        -0.5000 
    120 CA        -6.8245  -14.2940  -53.4658 C.3       22 UNK         0.1400 
    121 C         -7.9130  -14.2257  -54.5686 C.2       22 UNK         0.5000 
    122 N         -8.0841  -13.0827  -55.2182 N.am      22 UNK        -0.7600 
    123 O         -8.6321  -15.1926  -54.8101 O.2       22 UNK        -0.5000 
    124 C124       -7.4734  -14.4154  -52.0624 C.3       23 UNK        -0.0398 
    125 S125       -6.2682  -14.1313  -50.7246 S.3       23 UNK        -0.2404 
    126 C126       -5.6955  -15.8250  -50.3732 C.3       23 UNK        -0.0205 
    127 H127        1.3892  -20.5897  -51.6901 H         1 UNK         0.0600 
    128 H128        2.9374  -20.4934  -52.5346 H         1 UNK         0.0600 
    129 H129        1.5301  -19.6288  -53.1653 H         1 UNK         0.0600 
    130 H130        1.6154  -17.4321  -52.7324 H         1 UNK         0.3000 
    131 H131        1.7959  -16.4174  -50.1376 H         1 UNK         0.0600 
    132 H132        1.7024  -14.1398  -51.2689 H         1 UNK         0.0800 
    133 H133        1.8658  -14.9469  -52.8070 H         1 UNK         0.0800 
    134 H134        0.0318  -14.5090  -49.5826 H         1 UNK         0.0800 
    135 H135       -1.0528  -13.5154  -50.5250 H         1 UNK         0.0800 
    136 H136       -3.3425  -14.7651  -51.2437 H         1 UNK         0.1150 
    137 H137       -5.0637  -16.8780  -47.9319 H         1 UNK         0.1150 
    138 H138       -0.9061  -15.8466  -47.8906 H         1 UNK         0.1150 
    139 H139       -1.7971  -16.9821  -46.0415 H         1 UNK         0.0800 
    140 H140       -3.4716  -16.6202  -45.6895 H         1 UNK         0.0800 
    141 H141       -3.3040  -19.9994  -44.3530 H         1 UNK         0.0800 
    142 H142       -2.2629  -18.6073  -44.2933 H         1 UNK         0.0800 
    143 H143       -0.6630  -19.8935  -45.8923 H         1 UNK         0.0600 
    144 H144       -0.8222  -20.0302  -43.0808 H         1 UNK         0.3000 
    145 H145        2.2069  -21.8619  -42.5454 H         1 UNK         0.0600 
    146 H146        2.5683  -19.8244  -41.1552 H         1 UNK         0.0600 
    147 H147        2.8120  -19.4685  -42.8590 H         1 UNK         0.0600 
    148 H148        1.3266  -18.9647  -42.0656 H         1 UNK         0.0600 
    149 H149        0.1464  -20.7842  -40.8351 H         1 UNK         0.3000 
    150 H150       -1.7623  -23.7955  -40.5756 H         1 UNK         0.0600 
    151 H151        0.0906  -22.3645  -38.5937 H         1 UNK         0.0600 
    152 H152        0.1691  -24.0720  -39.0118 H         1 UNK         0.0600 
    153 H153       -1.2434  -23.4417  -38.1801 H         1 UNK         0.0600 
    154 H154       -2.0183  -21.2567  -39.3031 H         1 UNK         0.3000 
    155 H155       -4.0230  -19.6696  -41.7775 H         1 UNK         0.0600 
    156 H156       -4.7837  -20.8364  -39.0457 H         1 UNK         0.0600 
    157 H157       -5.6064  -21.1792  -40.5630 H         1 UNK         0.0600 
    158 H158       -5.6350  -19.5518  -39.9042 H         1 UNK         0.0600 
    159 H159       -3.3553  -18.7711  -39.2129 H         1 UNK         0.3000 
    160 H160       -1.9371  -17.1318  -38.8798 H         1 UNK         0.0600 
    161 H161        0.8141  -18.2177  -39.7062 H         1 UNK         0.0600 
    162 H162       -0.1643  -18.8334  -38.3797 H         1 UNK         0.0600 
    163 H163        0.4776  -17.2003  -38.3071 H         1 UNK         0.0600 
    164 H164        0.0797  -16.0986  -40.6700 H         1 UNK         0.3000 
    165 H165       -1.9422  -14.2126  -42.7659 H         1 UNK         0.0600 
    166 H166       -0.8977  -12.1492  -41.8631 H         1 UNK         0.0600 
    167 H167       -2.1827  -12.6924  -40.7972 H         1 UNK         0.0600 
    168 H168       -0.5036  -12.9769  -40.3554 H         1 UNK         0.0600 
    169 H169        0.8353  -13.9926  -42.1634 H         1 UNK         0.3000 
    170 H170        2.1224  -14.8052  -44.2619 H         1 UNK         0.0600 
    171 H171        2.4163  -16.8524  -41.9777 H         1 UNK         0.0600 
    172 H172        3.7703  -16.1936  -42.8905 H         1 UNK         0.0600 
    173 H173        2.7878  -15.1362  -41.8959 H         1 UNK         0.0600 
    174 H174        1.1492  -17.5066  -44.6071 H         1 UNK         0.3000 
    175 H175        2.3518  -19.0192  -46.0502 H         1 UNK         0.0600 
    176 H176        1.2719  -16.9530  -48.0372 H         1 UNK         0.0600 
    177 H177        1.1034  -18.6906  -48.2647 H         1 UNK         0.0600 
    178 H178        0.3427  -17.9042  -46.8942 H         1 UNK         0.0600 
    179 H179        3.4418  -18.3400  -48.5598 H         1 UNK         0.3000 
    180 H180        6.8698  -18.9148  -47.8326 H         1 UNK         0.0600 
    181 H181        4.8661  -20.7951  -49.1894 H         1 UNK         0.0600 
    182 H182        5.9428  -21.2324  -47.8679 H         1 UNK         0.0600 
    183 H183        6.6114  -20.7872  -49.4308 H         1 UNK         0.0600 
    184 H184        4.8662  -18.4355  -50.0035 H         1 UNK         0.3000 
    185 H185        6.3867  -15.3985  -50.9408 H         1 UNK         0.0600 
    186 H186        8.0151  -16.9172  -52.0633 H         1 UNK         0.0600 
    187 H187        6.7190  -18.0343  -52.4730 H         1 UNK         0.0600 
    188 H188        6.7532  -16.4173  -53.1778 H         1 UNK         0.0600 
    189 H189        4.4361  -17.2092  -52.1254 H         1 UNK         0.3000 
    190 H190       -2.1760  -22.3937  -43.7902 H         1 UNK         0.3000 
    191 H191       -3.1325  -24.0526  -45.8802 H         1 UNK         0.0600 
    192 H192       -3.9526  -24.2176  -43.5577 H         1 UNK         0.0600 
    193 H193       -3.3000  -25.7684  -44.0626 H         1 UNK         0.0600 
    194 H194       -2.3638  -24.7307  -42.9927 H         1 UNK         0.0600 
    195 H195        0.0061  -24.0655  -44.1259 H         1 UNK         0.3000 
    196 H196        1.0808  -26.3893  -45.3620 H         1 UNK         0.0600 
    197 H197        3.2574  -25.5058  -44.4922 H         1 UNK         0.0600 
    198 H198        1.9966  -25.4488  -43.2702 H         1 UNK         0.0600 
    199 H199        2.4845  -23.9736  -44.1021 H         1 UNK         0.0600 
    200 H200        1.3201  -22.9179  -46.2348 H         1 UNK         0.3000 
    201 H201        2.9297  -23.3146  -48.5927 H         1 UNK         0.0600 
    202 H202        2.3090  -20.9292  -49.0008 H         1 UNK         0.0600 
    203 H203        2.8633  -21.1815  -47.3512 H         1 UNK         0.0600 
    204 H204        1.1413  -21.0005  -47.6852 H         1 UNK         0.0600 
    205 H205       -0.5134  -23.3339  -47.9412 H         1 UNK         0.3000 
    206 H206       -2.3176  -23.9504  -48.9983 H         1 UNK         0.0600 
    207 H207       -0.9992  -25.8935  -49.8822 H         1 UNK         0.0600 
    208 H208       -2.2749  -25.4010  -50.9808 H         1 UNK         0.0600 
    209 H209       -0.6129  -24.9648  -51.3312 H         1 UNK         0.0600 
    210 H210       -1.1861  -21.2547  -49.3052 H         1 UNK         0.3000 
    211 H211       -1.5983  -20.2162  -51.9157 H         1 UNK         0.0600 
    212 H212       -1.6672  -18.8126  -49.1928 H         1 UNK         0.0600 
    213 H213       -1.5638  -17.9991  -50.7485 H         1 UNK         0.0600 
    214 H214       -0.2536  -19.0396  -50.2188 H         1 UNK         0.0600 
    215 H215       -3.8248  -20.4682  -49.1423 H         1 UNK         0.3000 
    216 H216       -6.0401  -19.1300  -50.4035 H         1 UNK         0.0600 
    217 H217       -7.3305  -20.1009  -48.4834 H         1 UNK         0.0600 
    218 H218       -5.8695  -19.2868  -47.9523 H         1 UNK         0.0600 
    219 H219       -5.9224  -21.0481  -48.0149 H         1 UNK         0.0600 
    220 H220       -4.9879  -22.5284  -50.2040 H         1 UNK         0.3000 
    221 H221       -7.3526  -23.6761  -51.3848 H         1 UNK         0.0600 
    222 H222       -4.5311  -24.8132  -51.0328 H         1 UNK         0.0600 
    223 H223       -5.8613  -24.9760  -49.8875 H         1 UNK         0.0600 
    224 H224       -5.9598  -25.7410  -51.4662 H         1 UNK         0.0600 
    225 H225       -4.1805  -22.6315  -52.6519 H         1 UNK         0.3000 
    226 H226       -4.6317  -23.3536  -55.3904 H         1 UNK         0.0600 
    227 H227       -2.3707  -22.9904  -54.4097 H         1 UNK         0.0600 
    228 H228       -2.6303  -21.9011  -55.7630 H         1 UNK         0.0600 
    229 H229       -2.7491  -21.2936  -54.1154 H         1 UNK         0.0600 
    230 H230       -6.0071  -20.8995  -53.4875 H         1 UNK         0.3000 
    231 H231       -7.3116  -19.1526  -53.7811 H         1 UNK         0.0600 
    232 H232       -7.7262  -20.1191  -56.6596 H         1 UNK         0.0600 
    233 H233       -8.7573  -19.0076  -55.7708 H         1 UNK         0.0600 
    234 H234       -8.6257  -20.6803  -55.2508 H         1 UNK         0.0600 
    235 H235       -4.7543  -18.4840  -53.7041 H         1 UNK         0.3000 
    236 H236       -3.8358  -16.7951  -55.8202 H         1 UNK         0.0600 
    237 H237       -2.3462  -17.7643  -54.0793 H         1 UNK         0.0600 
    238 H238       -2.2215  -16.0117  -54.0915 H         1 UNK         0.0600 
    239 H239       -3.1503  -16.8158  -52.8314 H         1 UNK         0.0600 
    240 H240       -6.1837  -16.3007  -53.3285 H         1 UNK         0.3000 
    241 H241       -6.2494  -13.3659  -53.4924 H         1 UNK         0.0600 
    242 H242       -7.5057  -12.2773  -55.0331 H         1 UNK         0.3800 
    243 H243       -8.7993  -13.0242  -55.9269 H         1 UNK         0.3800 
    244 H244       -7.9577  -15.3846  -51.9305 H         1 UNK         0.0800 
    245 H245       -8.2591  -13.6671  -51.9432 H         1 UNK         0.0800 
    246 H246       -5.5870  -16.3981  -51.2926 H         1 UNK         0.0800 
    247 H247       -6.4522  -16.3380  -49.7775 H         1 UNK         0.0800 
@<TRIPOS>BOND
     1    1    2 1    
     2    1  127 1    
     3    1  128 1    
     4    1  129 1    
     5    2    3 2    
     6    2    4 am   BACKBONE|DICT|INTERRES
     7    4    5 1    
     8    4  130 1    
     9    5    6 1    
    10    5   65 1    
    11    5  131 1    
    12    6    7 1    
    13    6  132 1    
    14    6  133 1    
    15    7    8 1    
    16    8    9 1    
    17    8  134 1    
    18    8  135 1    
    19    9   10 ar   
    20    9   14 ar   
    21   10   11 ar   
    22   10  136 1    
    23   11   12 ar   
    24   11  126 1    
    25   12   13 ar   
    26   12  137 1    
    27   13   14 ar   
    28   13   15 1    
    29   14  138 1    
    30   15   16 1    
    31   15  139 1    
    32   15  140 1    
    33   16   17 1    
    34   17   18 1    
    35   17  141 1    
    36   17  142 1    
    37   18   19 1    
    38   18   67 1    
    39   18  143 1    
    40   19   20 am   BACKBONE|DICT|INTERRES
    41   19  144 1    
    42   20   21 2    
    43   20   22 1    
    44   22   23 1    
    45   22   24 1    
    46   22  145 1    
    47   23  146 1    
    48   23  147 1    
    49   23  148 1    
    50   24   25 am   BACKBONE|DICT|INTERRES
    51   24  149 1    
    52   25   26 2    
    53   25   27 1    
    54   27   28 1    
    55   27   29 1    
    56   27  150 1    
    57   28  151 1    
    58   28  152 1    
    59   28  153 1    
    60   29   30 am   BACKBONE|DICT|INTERRES
    61   29  154 1    
    62   30   31 2    
    63   30   32 1    
    64   32   33 1    
    65   32   34 1    
    66   32  155 1    
    67   33  156 1    
    68   33  157 1    
    69   33  158 1    
    70   34   35 am   BACKBONE|DICT|INTERRES
    71   34  159 1    
    72   35   36 2    
    73   35   37 1    
    74   37   38 1    
    75   37   39 1    
    76   37  160 1    
    77   38  161 1    
    78   38  162 1    
    79   38  163 1    
    80   39   40 am   BACKBONE|DICT|INTERRES
    81   39  164 1    
    82   40   41 2    
    83   40   42 1    
    84   42   43 1    
    85   42   44 1    
    86   42  165 1    
    87   43  166 1    
    88   43  167 1    
    89   43  168 1    
    90   44   45 am   BACKBONE|DICT|INTERRES
    91   44  169 1    
    92   45   46 2    
    93   45   47 1    
    94   47   48 1    
    95   47   49 1    
    96   47  170 1    
    97   48  171 1    
    98   48  172 1    
    99   48  173 1    
   100   49   50 am   BACKBONE|DICT|INTERRES
   101   49  174 1    
   102   50   51 2    
   103   50   52 1    
   104   52   53 1    
   105   52   54 1    
   106   52  175 1    
   107   53  176 1    
   108   53  177 1    
   109   53  178 1    
   110   54   55 am   BACKBONE|DICT|INTERRES
   111   54  179 1    
   112   55   56 2    
   113   55   57 1    
   114   57   58 1    
   115   57   59 1    
   116   57  180 1    
   117   58  181 1    
   118   58  182 1    
   119   58  183 1    
   120   59   60 am   BACKBONE|DICT|INTERRES
   121   59  184 1    
   122   60   61 2    
   123   60   62 1    
   124   62   63 1    
   125   62   64 1    
   126   62  185 1    
   127   63  186 1    
   128   63  187 1    
   129   63  188 1    
   130   64   65 am   BACKBONE|DICT|INTERRES
   131   64  189 1    
   132   65   66 2    
   133   67   68 2    
   134   67   69 am   BACKBONE|DICT|INTERRES
   135   69   70 1    
   136   69  190 1    
   137   70   71 1    
   138   70   72 1    
   139   70  191 1    
   140   71  192 1    
   141   71  193 1    
   142   71  194 1    
   143   72   73 2    
   144   72   74 am   BACKBONE|DICT|INTERRES
   145   74   75 1    
   146   74  195 1    
   147   75   76 1    
   148   75   77 1    
   149   75  196 1    
   150   76  197 1    
   151   76  198 1    
   152   76  199 1    
   153   77   78 2    
   154   77   79 am   BACKBONE|DICT|INTERRES
   155   79   80 1    
   156   79  200 1    
   157   80   81 1    
   158   80   82 1    
   159   80  201 1    
   160   81  202 1    
   161   81  203 1    
   162   81  204 1    
   163   82   83 2    
   164   82   84 am   BACKBONE|DICT|INTERRES
   165   84   85 1    
   166   84  205 1    
   167   85   86 1    
   168   85   87 1    
   169   85  206 1    
   170   86  207 1    
   171   86  208 1    
   172   86  209 1    
   173   87   88 2    
   174   87   89 am   BACKBONE|DICT|INTERRES
   175   89   90 1    
   176   89  210 1    
   177   90   91 1    
   178   90   92 1    
   179   90  211 1    
   180   91  212 1    
   181   91  213 1    
   182   91  214 1    
   183   92   93 2    
   184   92   94 am   BACKBONE|DICT|INTERRES
   185   94   95 1    
   186   94  215 1    
   187   95   96 1    
   188   95   97 1    
   189   95  216 1    
   190   96  217 1    
   191   96  218 1    
   192   96  219 1    
   193   97   98 2    
   194   97   99 am   BACKBONE|DICT|INTERRES
   195   99  100 1    
   196   99  220 1    
   197  100  101 1    
   198  100  102 1    
   199  100  221 1    
   200  101  222 1    
   201  101  223 1    
   202  101  224 1    
   203  102  103 2    
   204  102  104 am   BACKBONE|DICT|INTERRES
   205  104  105 1    
   206  104  225 1    
   207  105  106 1    
   208  105  107 1    
   209  105  226 1    
   210  106  227 1    
   211  106  228 1    
   212  106  229 1    
   213  107  108 2    
   214  107  109 am   BACKBONE|DICT|INTERRES
   215  109  110 1    
   216  109  230 1    
   217  110  111 1    
   218  110  112 1    
   219  110  231 1    
   220  111  232 1    
   221  111  233 1    
   222  111  234 1    
   223  112  113 2    
   224  112  114 am   BACKBONE|DICT|INTERRES
   225  114  115 1    
   226  114  235 1    
   227  115  116 1    
   228  115  117 1    
   229  115  236 1    
   230  116  237 1    
   231  116  238 1    
   232  116  239 1    
   233  117  118 2    
   234  117  119 am   BACKBONE|DICT|INTERRES
   235  119  120 1    
   236  119  240 1    
   237  120  121 1    
   238  120  124 1    
   239  120  241 1    
   240  121  122 am   BACKBONE|DICT|INTERRES
   241  121  123 2    
   242  122  242 1    
   243  122  243 1    
   244  124  125 1    
   245  124  244 1    
   246  124  245 1    
   247  125  126 1    
   248  126  246 1    
   249  126  247 1    
@<TRIPOS>SUBSTRUCTURE
     1 UNK         1 GROUP             0       ****    0 ROOT    
