@<TRIPOS>MOLECULE
3R540
247   249    1
SMALL
USER_CHARGES


@<TRIPOS>ATOM
      1 CA         -5.3177  -17.6103  -46.3417 C.3       0 UNK        -0.1800 
      2 C          -4.1489  -16.8626  -46.9683 C.2       0 UNK         0.5000 
      3 O          -3.0096  -17.0581  -46.5489 O.2       0 UNK        -0.5000 
      4 N          -4.4471  -15.9690  -47.9244 N.am      1 UNK        -0.5000 
      5 CA         -3.5378  -15.0762  -48.6689 C.3       1 UNK         0.1400 
      6 C6         -2.8784  -15.7315  -49.9166 C.3       23 UNK        -0.0398 
      7 S7         -1.6560  -17.0612  -49.6269 S.3       23 UNK        -0.2404 
      8 C8         -0.1271  -16.3364  -50.3092 C.3       23 UNK        -0.0205 
      9 C9          0.9175  -17.4098  -50.5878 C.ar      23 UNK        -0.0193 
     10 C10         1.0663  -17.9406  -51.8742 C.ar      23 UNK        -0.1150 
     11 C11         1.9862  -18.9684  -52.1282 C.ar      23 UNK        -0.0193 
     12 C12         2.7713  -19.4436  -51.0733 C.ar      23 UNK        -0.1150 
     13 C13         2.6355  -18.9230  -49.7846 C.ar      23 UNK        -0.0193 
     14 C14         1.7196  -17.8938  -49.5525 C.ar      23 UNK        -0.1150 
     15 C15         3.4389  -19.5097  -48.6324 C.3       23 UNK        -0.0205 
     16 S16         2.8106  -21.1476  -48.1284 S.3       23 UNK        -0.2404 
     17 C17         1.0764  -20.7440  -47.7419 C.3       23 UNK        -0.0398 
     18 CA          0.2620  -21.9486  -47.2261 C.3       11 UNK         0.1400 
     19 N           0.7686  -22.4813  -45.9572 N.am      11 UNK        -0.5000 
     20 C           0.4314  -23.6802  -45.4584 C.2       10 UNK         0.5000 
     21 O          -0.3115  -24.4708  -46.0373 O.2       10 UNK        -0.5000 
     22 CA          0.9696  -24.0436  -44.0602 C.3       10 UNK         0.1400 
     23 CB          2.3653  -24.6750  -44.1683 C.3       10 UNK        -0.1800 
     24 N           1.0282  -22.8969  -43.1540 N.am      10 UNK        -0.5000 
     25 C          -0.0308  -22.1739  -42.7639 C.2       9 UNK         0.5000 
     26 O          -1.1920  -22.4686  -43.0449 O.2       9 UNK        -0.5000 
     27 CA          0.2519  -20.8712  -41.9874 C.3       9 UNK         0.1400 
     28 CB          0.0168  -21.0684  -40.4836 C.3       9 UNK        -0.1800 
     29 N           1.5958  -20.3214  -42.1985 N.am      9 UNK        -0.5000 
     30 C           2.0991  -19.9351  -43.3771 C.2       8 UNK         0.5000 
     31 O           1.4618  -20.0081  -44.4290 O.2       8 UNK        -0.5000 
     32 CA          3.5582  -19.4298  -43.3799 C.3       8 UNK         0.1400 
     33 CB          4.0568  -19.0938  -44.7964 C.3       8 UNK        -0.1800 
     34 N           3.7785  -18.2620  -42.5256 N.am      8 UNK        -0.5000 
     35 C           3.8104  -18.2412  -41.1869 C.2       7 UNK         0.5000 
     36 O           3.5941  -19.2294  -40.4835 O.2       7 UNK        -0.5000 
     37 CA          4.1775  -16.9029  -40.5249 C.3       7 UNK         0.1400 
     38 CB          5.7164  -16.8517  -40.3812 C.3       7 UNK        -0.1800 
     39 N           3.6315  -15.7664  -41.2844 N.am      7 UNK        -0.5000 
     40 C           3.9269  -14.4652  -41.1345 C.2       6 UNK         0.5000 
     41 O           4.7550  -14.0228  -40.3380 O.2       6 UNK        -0.5000 
     42 CA          3.1299  -13.4720  -42.0001 C.3       6 UNK         0.1400 
     43 CB          3.4329  -13.6440  -43.4982 C.3       6 UNK        -0.1800 
     44 N           1.6929  -13.5854  -41.7621 N.am      6 UNK        -0.5000 
     45 C           1.0727  -13.1765  -40.6450 C.2       5 UNK         0.5000 
     46 O           1.6372  -12.5837  -39.7249 O.2       5 UNK        -0.5000 
     47 CA         -0.4293  -13.4948  -40.5233 C.3       5 UNK         0.1400 
     48 CB         -1.2829  -12.3628  -41.1162 C.3       5 UNK        -0.1800 
     49 N          -0.7763  -14.7605  -41.1685 N.am      5 UNK        -0.5000 
     50 C          -0.4747  -15.9682  -40.6702 C.2       4 UNK         0.5000 
     51 O           0.0488  -16.1452  -39.5701 O.2       4 UNK        -0.5000 
     52 CA         -0.7890  -17.1842  -41.5615 C.3       4 UNK         0.1400 
     53 CB         -2.1766  -17.7525  -41.2291 C.3       4 UNK        -0.1800 
     54 N          -0.7150  -16.8852  -42.9940 N.am      4 UNK        -0.5000 
     55 C           0.4155  -16.5621  -43.6379 C.2       3 UNK         0.5000 
     56 O           1.5137  -16.4855  -43.0903 O.2       3 UNK        -0.5000 
     57 CA          0.2855  -16.1902  -45.1212 C.3       3 UNK         0.1400 
     58 CB          0.2339  -17.4396  -46.0043 C.3       3 UNK        -0.1800 
     59 N          -0.8904  -15.3658  -45.3814 N.am      3 UNK        -0.5000 
     60 C          -1.0112  -14.0877  -44.9957 C.2       2 UNK         0.5000 
     61 O          -0.1788  -13.5253  -44.2827 O.2       2 UNK        -0.5000 
     62 CA         -2.2695  -13.3158  -45.4526 C.3       2 UNK         0.1400 
     63 CB         -1.9611  -11.8434  -45.7925 C.3       2 UNK        -0.1800 
     64 N          -3.0048  -13.9669  -46.5445 N.am      2 UNK        -0.5000 
     65 C          -2.5799  -14.2317  -47.7918 C.2       1 UNK         0.5000 
     66 O          -1.5035  -13.8421  -48.2460 O.2       1 UNK        -0.5000 
     67 C          -1.2229  -21.5579  -47.1085 C.2       11 UNK         0.5000 
     68 O          -1.9868  -21.7872  -48.0453 O.2       11 UNK        -0.5000 
     69 N          -1.6127  -21.0057  -45.9496 N.am      12 UNK        -0.5000 
     70 CA         -3.0003  -20.6647  -45.6413 C.3       12 UNK         0.1400 
     71 CB         -3.0708  -19.8433  -44.3459 C.3       12 UNK        -0.1800 
     72 C          -3.8926  -21.9171  -45.5637 C.2       12 UNK         0.5000 
     73 O          -4.9778  -21.9298  -46.1459 O.2       12 UNK        -0.5000 
     74 N          -3.3874  -22.9625  -44.8926 N.am      13 UNK        -0.5000 
     75 CA         -4.0154  -24.2798  -44.7882 C.3       13 UNK         0.1400 
     76 CB         -3.2288  -25.1376  -43.7860 C.3       13 UNK        -0.1800 
     77 C          -4.1399  -25.0038  -46.1428 C.2       13 UNK         0.5000 
     78 O          -5.1484  -25.6700  -46.3822 O.2       13 UNK        -0.5000 
     79 N          -3.1403  -24.8379  -47.0200 N.am      14 UNK        -0.5000 
     80 CA         -3.0966  -25.3699  -48.3840 C.3       14 UNK         0.1400 
     81 CB         -1.6333  -25.4163  -48.8582 C.3       14 UNK        -0.1800 
     82 C          -4.0045  -24.5802  -49.3518 C.2       14 UNK         0.5000 
     83 O          -3.5224  -24.0108  -50.3328 O.2       14 UNK        -0.5000 
     84 N          -5.3097  -24.5571  -49.0455 N.am      15 UNK        -0.5000 
     85 CA         -6.4049  -23.9596  -49.8199 C.3       15 UNK         0.1400 
     86 CB         -6.6486  -24.7764  -51.1066 C.3       15 UNK        -0.1800 
     87 C          -6.2239  -22.4524  -50.1033 C.2       15 UNK         0.5000 
     88 O          -6.6510  -21.9730  -51.1544 O.2       15 UNK        -0.5000 
     89 N          -5.5811  -21.7395  -49.1652 N.am      16 UNK        -0.5000 
     90 CA         -5.2060  -20.3242  -49.2388 C.3       16 UNK         0.1400 
     91 CB         -6.4550  -19.4224  -49.1456 C.3       16 UNK        -0.1800 
     92 C          -4.2832  -19.9837  -50.4297 C.2       16 UNK         0.5000 
     93 O          -4.3852  -18.8840  -50.9737 O.2       16 UNK        -0.5000 
     94 N          -3.4144  -20.9438  -50.7882 N.am      17 UNK        -0.5000 
     95 CA         -2.3485  -20.9605  -51.7959 C.3       17 UNK         0.1400 
     96 CB         -0.9930  -20.6669  -51.1414 C.3       17 UNK        -0.1800 
     97 C          -2.5863  -20.1284  -53.0690 C.2       17 UNK         0.5000 
     98 O          -2.9536  -20.7026  -54.0935 O.2       17 UNK        -0.5000 
     99 N          -2.3991  -18.8016  -52.9976 N.am      18 UNK        -0.5000 
    100 CA        -2.6630  -17.8537  -54.0876 C.3       18 UNK         0.1400 
    101 CB        -2.2848  -16.4315  -53.6514 C.3       18 UNK        -0.1800 
    102 C         -4.1169  -17.8739  -54.6002 C.2       18 UNK         0.5000 
    103 O         -4.3409  -17.6026  -55.7798 O.2       18 UNK        -0.5000 
    104 N         -5.0716  -18.2524  -53.7382 N.am      19 UNK        -0.5000 
    105 CA        -6.4722  -18.4930  -54.1002 C.3       19 UNK         0.1400 
    106 CB        -7.2931  -18.6833  -52.8189 C.3       19 UNK        -0.1800 
    107 C         -6.6621  -19.6995  -55.0465 C.2       19 UNK         0.5000 
    108 O         -7.6518  -19.7446  -55.7775 O.2       19 UNK        -0.5000 
    109 N         -5.6984  -20.6294  -55.0408 N.am      20 UNK        -0.5000 
    110 CA        -5.5827  -21.7683  -55.9510 C.3       20 UNK         0.1400 
    111 CB        -5.3688  -23.0405  -55.1108 C.3       20 UNK        -0.1800 
    112 C         -4.4344  -21.5477  -56.9619 C.2       20 UNK         0.5000 
    113 O         -3.9088  -22.5172  -57.5133 O.2       20 UNK        -0.5000 
    114 N         -4.0382  -20.2794  -57.1636 N.am      21 UNK        -0.5000 
    115 CA        -2.9710  -19.7929  -58.0470 C.3       21 UNK         0.1400 
    116 CB        -3.3604  -20.0092  -59.5241 C.3       21 UNK        -0.1800 
    117 C         -1.5691  -20.3519  -57.7162 C.2       21 UNK         0.5000 
    118 O         -0.7085  -20.3917  -58.5973 O.2       21 UNK        -0.5000 
    119 N         -1.3666  -20.7843  -56.4632 N.am      22 UNK        -0.5000 
    120 CA        -0.1710  -21.4849  -55.9638 C.3       22 UNK         0.1400 
    121 C          0.0640  -22.8834  -56.6176 C.2       22 UNK         0.5000 
    122 N         -0.9425  -23.5102  -57.2187 N.am      22 UNK        -0.7600 
    123 O          1.1617  -23.4303  -56.5530 O.2       22 UNK        -0.5000 
    124 C124        1.0978  -20.5832  -55.9403 C.3       23 UNK        -0.0398 
    125 S125        0.9168  -19.1890  -54.7714 S.3       23 UNK        -0.2404 
    126 C126        2.1474  -19.6391  -53.4956 C.3       23 UNK        -0.0205 
    127 H127       -6.2756  -17.2714  -46.7367 H         1 UNK         0.0600 
    128 H128       -5.3238  -17.4537  -45.2631 H         1 UNK         0.0600 
    129 H129       -5.2350  -18.6792  -46.5271 H         1 UNK         0.0600 
    130 H130       -5.4188  -15.8675  -48.1816 H         1 UNK         0.3000 
    131 H131       -4.2133  -14.3225  -49.0766 H         1 UNK         0.0600 
    132 H132       -2.4279  -14.9572  -50.5389 H         1 UNK         0.0800 
    133 H133       -3.6676  -16.1652  -50.5318 H         1 UNK         0.0800 
    134 H134        0.2671  -15.6031  -49.6041 H         1 UNK         0.0800 
    135 H135       -0.3494  -15.7921  -51.2272 H         1 UNK         0.0800 
    136 H136        0.4421  -17.5658  -52.6680 H         1 UNK         0.1150 
    137 H137        3.4712  -20.2494  -51.2466 H         1 UNK         0.1150 
    138 H138        1.6075  -17.4909  -48.5576 H         1 UNK         0.1150 
    139 H139        4.4846  -19.6042  -48.9281 H         1 UNK         0.0800 
    140 H140        3.4225  -18.8388  -47.7725 H         1 UNK         0.0800 
    141 H141        0.6148  -20.3497  -48.6481 H         1 UNK         0.0800 
    142 H142        1.0645  -19.9347  -47.0154 H         1 UNK         0.0800 
    143 H143        0.3303  -22.7400  -47.9755 H         1 UNK         0.0600 
    144 H144        1.3341  -21.8486  -45.4037 H         1 UNK         0.3000 
    145 H145        0.2918  -24.7804  -43.6243 H         1 UNK         0.0600 
    146 H146        2.7251  -25.0071  -43.1943 H         1 UNK         0.0600 
    147 H147        2.3484  -25.5479  -44.8223 H         1 UNK         0.0600 
    148 H148        3.0946  -23.9736  -44.5758 H         1 UNK         0.0600 
    149 H149        1.9455  -22.5870  -42.8706 H         1 UNK         0.3000 
    150 H150       -0.4615  -20.1309  -42.3519 H         1 UNK         0.0600 
    151 H151       -0.9890  -21.4443  -40.2909 H         1 UNK         0.0600 
    152 H152        0.1205  -20.1286  -39.9409 H         1 UNK         0.0600 
    153 H153        0.7231  -21.7820  -40.0577 H         1 UNK         0.0600 
    154 H154        2.1823  -20.1966  -41.3780 H         1 UNK         0.3000 
    155 H155        4.1743  -20.2474  -43.0007 H         1 UNK         0.0600 
    156 H156        3.4997  -18.2636  -45.2314 H         1 UNK         0.0600 
    157 H157        3.9500  -19.9503  -45.4631 H         1 UNK         0.0600 
    158 H158        5.1124  -18.8220  -44.7897 H         1 UNK         0.0600 
    159 H159        3.9274  -17.3903  -43.0117 H         1 UNK         0.3000 
    160 H160        3.7251  -16.8901  -39.5318 H         1 UNK         0.0600 
    161 H161        6.2034  -16.6512  -41.3362 H         1 UNK         0.0600 
    162 H162        6.1118  -17.7970  -40.0058 H         1 UNK         0.0600 
    163 H163        6.0337  -16.0892  -39.6712 H         1 UNK         0.0600 
    164 H164        2.8795  -16.0065  -41.9297 H         1 UNK         0.3000 
    165 H165        3.4394  -12.4629  -41.7193 H         1 UNK         0.0600 
    166 H166        3.1511  -14.6285  -43.8688 H         1 UNK         0.0600 
    167 H167        2.8996  -12.9020  -44.0929 H         1 UNK         0.0600 
    168 H168        4.4977  -13.5145  -43.6951 H         1 UNK         0.0600 
    169 H169        1.1460  -14.0323  -42.4866 H         1 UNK         0.3000 
    170 H170       -0.6678  -13.5730  -39.4603 H         1 UNK         0.0600 
    171 H171       -1.0808  -12.2119  -42.1764 H         1 UNK         0.0600 
    172 H172       -2.3472  -12.5695  -41.0027 H         1 UNK         0.0600 
    173 H173       -1.0799  -11.4188  -40.6092 H         1 UNK         0.0600 
    174 H174       -1.1846  -14.7055  -42.0892 H         1 UNK         0.3000 
    175 H175       -0.0404  -17.9463  -41.3376 H         1 UNK         0.0600 
    176 H176       -2.9707  -17.0460  -41.4731 H         1 UNK         0.0600 
    177 H177       -2.3690  -18.6754  -41.7737 H         1 UNK         0.0600 
    178 H178       -2.2585  -17.9851  -40.1665 H         1 UNK         0.0600 
    179 H179       -1.5792  -16.8990  -43.5156 H         1 UNK         0.3000 
    180 H180        1.1679  -15.6129  -45.4058 H         1 UNK         0.0600 
    181 H181       -0.0351  -17.1890  -47.0294 H         1 UNK         0.0600 
    182 H182       -0.4915  -18.1698  -45.6449 H         1 UNK         0.0600 
    183 H183        1.2111  -17.9188  -46.0270 H         1 UNK         0.0600 
    184 H184       -1.6294  -15.7944  -45.9325 H         1 UNK         0.3000 
    185 H185       -2.9438  -13.3179  -44.5952 H         1 UNK         0.0600 
    186 H186       -1.2248  -11.7569  -46.5918 H         1 UNK         0.0600 
    187 H187       -2.8607  -11.3134  -46.1049 H         1 UNK         0.0600 
    188 H188       -1.5614  -11.3170  -44.9249 H         1 UNK         0.0600 
    189 H189       -3.9070  -14.3418  -46.2874 H         1 UNK         0.3000 
    190 H190       -0.9263  -20.8618  -45.2230 H         1 UNK         0.3000 
    191 H191       -3.3634  -20.0357  -46.4533 H         1 UNK         0.0600 
    192 H192       -4.0946  -19.5269  -44.1442 H         1 UNK         0.0600 
    193 H193       -2.4626  -18.9423  -44.4169 H         1 UNK         0.0600 
    194 H194       -2.7327  -20.4134  -43.4820 H         1 UNK         0.0600 
    195 H195       -2.5075  -22.8404  -44.3985 H         1 UNK         0.3000 
    196 H196       -5.0243  -24.1360  -44.3963 H         1 UNK         0.0600 
    197 H197       -2.2024  -25.3011  -44.1158 H         1 UNK         0.0600 
    198 H198       -3.1924  -24.6639  -42.8048 H         1 UNK         0.0600 
    199 H199       -3.6936  -26.1160  -43.6589 H         1 UNK         0.0600 
    200 H200       -2.3298  -24.3043  -46.7287 H         1 UNK         0.3000 
    201 H201       -3.4663  -26.3971  -48.3660 H         1 UNK         0.0600 
    202 H202       -1.1906  -24.4206  -48.8897 H         1 UNK         0.0600 
    203 H203       -1.5582  -25.8418  -49.8595 H         1 UNK         0.0600 
    204 H204       -1.0241  -26.0343  -48.1985 H         1 UNK         0.0600 
    205 H205       -5.5794  -25.0176  -48.1808 H         1 UNK         0.3000 
    206 H206       -7.2983  -24.0441  -49.1998 H         1 UNK         0.0600 
    207 H207       -6.7889  -25.8338  -50.8827 H         1 UNK         0.0600 
    208 H208       -7.5451  -24.4353  -51.6256 H         1 UNK         0.0600 
    209 H209       -5.8141  -24.6883  -51.8035 H         1 UNK         0.0600 
    210 H210       -5.2823  -22.2172  -48.3229 H         1 UNK         0.3000 
    211 H211       -4.6013  -20.1302  -48.3553 H         1 UNK         0.0600 
    212 H212       -6.1841  -18.3664  -49.1535 H         1 UNK         0.0600 
    213 H213       -7.0011  -19.6088  -48.2210 H         1 UNK         0.0600 
    214 H214       -7.1425  -19.5884  -49.9731 H         1 UNK         0.0600 
    215 H215       -3.4819  -21.8140  -50.2717 H         1 UNK         0.3000 
    216 H216       -2.3049  -21.9969  -52.1347 H         1 UNK         0.0600 
    217 H217       -0.1987  -20.6508  -51.8865 H         1 UNK         0.0600 
    218 H218       -0.9894  -19.7114  -50.6203 H         1 UNK         0.0600 
    219 H219       -0.7349  -21.4410  -50.4198 H         1 UNK         0.0600 
    220 H220       -2.1685  -18.4062  -52.0963 H         1 UNK         0.3000 
    221 H221       -2.0226  -18.1343  -54.9260 H         1 UNK         0.0600 
    222 H222       -1.2244  -16.3492  -53.4253 H         1 UNK         0.0600 
    223 H223       -2.8475  -16.1199  -52.7730 H         1 UNK         0.0600 
    224 H224       -2.4944  -15.7119  -54.4440 H         1 UNK         0.0600 
    225 H225       -4.8043  -18.4594  -52.7775 H         1 UNK         0.3000 
    226 H226       -6.8432  -17.6053  -54.6164 H         1 UNK         0.0600 
    227 H227       -6.9828  -19.5821  -52.2874 H         1 UNK         0.0600 
    228 H228       -7.1804  -17.8356  -52.1427 H         1 UNK         0.0600 
    229 H229       -8.3552  -18.7854  -53.0444 H         1 UNK         0.0600 
    230 H230       -4.8972  -20.4946  -54.4325 H         1 UNK         0.3000 
    231 H231       -6.5006  -21.8896  -56.5288 H         1 UNK         0.0600 
    232 H232       -4.4269  -23.0064  -54.5619 H         1 UNK         0.0600 
    233 H233       -5.3515  -23.9308  -55.7404 H         1 UNK         0.0600 
    234 H234       -6.1716  -23.1728  -54.3849 H         1 UNK         0.0600 
    235 H235       -4.5079  -19.5525  -56.6373 H         1 UNK         0.3000 
    236 H236       -2.9072  -18.7172  -57.8794 H         1 UNK         0.0600 
    237 H237       -4.3453  -19.5936  -59.7369 H         1 UNK         0.0600 
    238 H238       -2.6530  -19.5186  -60.1936 H         1 UNK         0.0600 
    239 H239       -3.3785  -21.0675  -59.7863 H         1 UNK         0.0600 
    240 H240       -2.1273  -20.7173  -55.7929 H         1 UNK         0.3000 
    241 H241       -0.3999  -21.7294  -54.9261 H         1 UNK         0.0600 
    242 H242       -1.8615  -23.0871  -57.2788 H         1 UNK         0.3800 
    243 H243       -0.7852  -24.4173  -57.6282 H         1 UNK         0.3800 
    244 H244        1.9809  -21.1590  -55.6607 H         1 UNK         0.0800 
    245 H245        1.3124  -20.1851  -56.9321 H         1 UNK         0.0800 
    246 H246        2.1018  -20.7185  -53.3430 H         1 UNK         0.0800 
    247 H247        3.1440  -19.4202  -53.8812 H         1 UNK         0.0800 
@<TRIPOS>BOND
     1    1    2 1    
     2    1  127 1    
     3    1  128 1    
     4    1  129 1    
     5    2    3 2    
     6    2    4 am   BACKBONE|DICT|INTERRES
     7    4    5 1    
     8    4  130 1    
     9    5    6 1    
    10    5   65 1    
    11    5  131 1    
    12    6    7 1    
    13    6  132 1    
    14    6  133 1    
    15    7    8 1    
    16    8    9 1    
    17    8  134 1    
    18    8  135 1    
    19    9   10 ar   
    20    9   14 ar   
    21   10   11 ar   
    22   10  136 1    
    23   11   12 ar   
    24   11  126 1    
    25   12   13 ar   
    26   12  137 1    
    27   13   14 ar   
    28   13   15 1    
    29   14  138 1    
    30   15   16 1    
    31   15  139 1    
    32   15  140 1    
    33   16   17 1    
    34   17   18 1    
    35   17  141 1    
    36   17  142 1    
    37   18   19 1    
    38   18   67 1    
    39   18  143 1    
    40   19   20 am   BACKBONE|DICT|INTERRES
    41   19  144 1    
    42   20   21 2    
    43   20   22 1    
    44   22   23 1    
    45   22   24 1    
    46   22  145 1    
    47   23  146 1    
    48   23  147 1    
    49   23  148 1    
    50   24   25 am   BACKBONE|DICT|INTERRES
    51   24  149 1    
    52   25   26 2    
    53   25   27 1    
    54   27   28 1    
    55   27   29 1    
    56   27  150 1    
    57   28  151 1    
    58   28  152 1    
    59   28  153 1    
    60   29   30 am   BACKBONE|DICT|INTERRES
    61   29  154 1    
    62   30   31 2    
    63   30   32 1    
    64   32   33 1    
    65   32   34 1    
    66   32  155 1    
    67   33  156 1    
    68   33  157 1    
    69   33  158 1    
    70   34   35 am   BACKBONE|DICT|INTERRES
    71   34  159 1    
    72   35   36 2    
    73   35   37 1    
    74   37   38 1    
    75   37   39 1    
    76   37  160 1    
    77   38  161 1    
    78   38  162 1    
    79   38  163 1    
    80   39   40 am   BACKBONE|DICT|INTERRES
    81   39  164 1    
    82   40   41 2    
    83   40   42 1    
    84   42   43 1    
    85   42   44 1    
    86   42  165 1    
    87   43  166 1    
    88   43  167 1    
    89   43  168 1    
    90   44   45 am   BACKBONE|DICT|INTERRES
    91   44  169 1    
    92   45   46 2    
    93   45   47 1    
    94   47   48 1    
    95   47   49 1    
    96   47  170 1    
    97   48  171 1    
    98   48  172 1    
    99   48  173 1    
   100   49   50 am   BACKBONE|DICT|INTERRES
   101   49  174 1    
   102   50   51 2    
   103   50   52 1    
   104   52   53 1    
   105   52   54 1    
   106   52  175 1    
   107   53  176 1    
   108   53  177 1    
   109   53  178 1    
   110   54   55 am   BACKBONE|DICT|INTERRES
   111   54  179 1    
   112   55   56 2    
   113   55   57 1    
   114   57   58 1    
   115   57   59 1    
   116   57  180 1    
   117   58  181 1    
   118   58  182 1    
   119   58  183 1    
   120   59   60 am   BACKBONE|DICT|INTERRES
   121   59  184 1    
   122   60   61 2    
   123   60   62 1    
   124   62   63 1    
   125   62   64 1    
   126   62  185 1    
   127   63  186 1    
   128   63  187 1    
   129   63  188 1    
   130   64   65 am   BACKBONE|DICT|INTERRES
   131   64  189 1    
   132   65   66 2    
   133   67   68 2    
   134   67   69 am   BACKBONE|DICT|INTERRES
   135   69   70 1    
   136   69  190 1    
   137   70   71 1    
   138   70   72 1    
   139   70  191 1    
   140   71  192 1    
   141   71  193 1    
   142   71  194 1    
   143   72   73 2    
   144   72   74 am   BACKBONE|DICT|INTERRES
   145   74   75 1    
   146   74  195 1    
   147   75   76 1    
   148   75   77 1    
   149   75  196 1    
   150   76  197 1    
   151   76  198 1    
   152   76  199 1    
   153   77   78 2    
   154   77   79 am   BACKBONE|DICT|INTERRES
   155   79   80 1    
   156   79  200 1    
   157   80   81 1    
   158   80   82 1    
   159   80  201 1    
   160   81  202 1    
   161   81  203 1    
   162   81  204 1    
   163   82   83 2    
   164   82   84 am   BACKBONE|DICT|INTERRES
   165   84   85 1    
   166   84  205 1    
   167   85   86 1    
   168   85   87 1    
   169   85  206 1    
   170   86  207 1    
   171   86  208 1    
   172   86  209 1    
   173   87   88 2    
   174   87   89 am   BACKBONE|DICT|INTERRES
   175   89   90 1    
   176   89  210 1    
   177   90   91 1    
   178   90   92 1    
   179   90  211 1    
   180   91  212 1    
   181   91  213 1    
   182   91  214 1    
   183   92   93 2    
   184   92   94 am   BACKBONE|DICT|INTERRES
   185   94   95 1    
   186   94  215 1    
   187   95   96 1    
   188   95   97 1    
   189   95  216 1    
   190   96  217 1    
   191   96  218 1    
   192   96  219 1    
   193   97   98 2    
   194   97   99 am   BACKBONE|DICT|INTERRES
   195   99  100 1    
   196   99  220 1    
   197  100  101 1    
   198  100  102 1    
   199  100  221 1    
   200  101  222 1    
   201  101  223 1    
   202  101  224 1    
   203  102  103 2    
   204  102  104 am   BACKBONE|DICT|INTERRES
   205  104  105 1    
   206  104  225 1    
   207  105  106 1    
   208  105  107 1    
   209  105  226 1    
   210  106  227 1    
   211  106  228 1    
   212  106  229 1    
   213  107  108 2    
   214  107  109 am   BACKBONE|DICT|INTERRES
   215  109  110 1    
   216  109  230 1    
   217  110  111 1    
   218  110  112 1    
   219  110  231 1    
   220  111  232 1    
   221  111  233 1    
   222  111  234 1    
   223  112  113 2    
   224  112  114 am   BACKBONE|DICT|INTERRES
   225  114  115 1    
   226  114  235 1    
   227  115  116 1    
   228  115  117 1    
   229  115  236 1    
   230  116  237 1    
   231  116  238 1    
   232  116  239 1    
   233  117  118 2    
   234  117  119 am   BACKBONE|DICT|INTERRES
   235  119  120 1    
   236  119  240 1    
   237  120  121 1    
   238  120  124 1    
   239  120  241 1    
   240  121  122 am   BACKBONE|DICT|INTERRES
   241  121  123 2    
   242  122  242 1    
   243  122  243 1    
   244  124  125 1    
   245  124  244 1    
   246  124  245 1    
   247  125  126 1    
   248  126  246 1    
   249  126  247 1    
@<TRIPOS>SUBSTRUCTURE
     1 UNK         1 GROUP             0       ****    0 ROOT    
