@<TRIPOS>MOLECULE
3R540
247   249    1
SMALL
USER_CHARGES


@<TRIPOS>ATOM
      1 CA         -3.4609  -10.7550  -46.9604 C.3       0 UNK        -0.1800 
      2 C          -2.1075  -11.4314  -46.8002 C.2       0 UNK         0.5000 
      3 O          -1.5904  -11.5070  -45.6860 O.2       0 UNK        -0.5000 
      4 N          -1.5229  -11.9044  -47.9108 N.am      1 UNK        -0.5000 
      5 CA         -0.2418  -12.6256  -47.9790 C.3       1 UNK         0.1400 
      6 C6         -0.3171  -14.0250  -47.3012 C.3       23 UNK        -0.0398 
      7 S7          0.6548  -15.2857  -48.1939 S.3       23 UNK        -0.2404 
      8 C8         -0.6737  -16.1773  -49.0622 C.3       23 UNK        -0.0205 
      9 C9         -0.1267  -17.1791  -50.0696 C.ar      23 UNK        -0.0193 
     10 C10        -0.3242  -16.9913  -51.4418 C.ar      23 UNK        -0.1150 
     11 C11         0.1873  -17.9066  -52.3666 C.ar      23 UNK        -0.0193 
     12 C12         0.9045  -19.0136  -51.9028 C.ar      23 UNK        -0.1150 
     13 C13         1.1025  -19.2275  -50.5354 C.ar      23 UNK        -0.0193 
     14 C14         0.5806  -18.2990  -49.6248 C.ar      23 UNK        -0.1150 
     15 C15         1.9154  -20.4527  -50.1067 C.3       23 UNK        -0.0205 
     16 S16         1.8540  -20.8791  -48.3323 S.3       23 UNK        -0.2404 
     17 C17         0.1010  -21.3389  -48.1141 C.3       23 UNK        -0.0398 
     18 CA         -0.0614  -22.6500  -47.3152 C.3       11 UNK         0.1400 
     19 N           0.3901  -22.5097  -45.9290 N.am      11 UNK        -0.5000 
     20 C           0.5461  -23.5215  -45.0669 C.2       10 UNK         0.5000 
     21 O           0.3644  -24.7020  -45.3628 O.2       10 UNK        -0.5000 
     22 CA          0.9092  -23.1461  -43.6182 C.3       10 UNK         0.1400 
     23 CB          2.4112  -22.8565  -43.4795 C.3       10 UNK        -0.1800 
     24 N           0.1338  -22.0041  -43.1284 N.am      10 UNK        -0.5000 
     25 C          -1.1945  -22.0229  -42.9465 C.2       9 UNK         0.5000 
     26 O          -1.8910  -23.0219  -43.1274 O.2       9 UNK        -0.5000 
     27 CA         -1.8667  -20.7008  -42.5326 C.3       9 UNK         0.1400 
     28 CB         -1.7182  -20.4648  -41.0224 C.3       9 UNK        -0.1800 
     29 N          -1.3522  -19.5432  -43.2652 N.am      9 UNK        -0.5000 
     30 C          -1.4649  -19.3654  -44.5896 C.2       8 UNK         0.5000 
     31 O          -2.0553  -20.1435  -45.3367 O.2       8 UNK        -0.5000 
     32 CA         -0.7466  -18.1444  -45.1936 C.3       8 UNK         0.1400 
     33 CB         -1.5768  -16.8694  -44.9923 C.3       8 UNK        -0.1800 
     34 N           0.5983  -17.9511  -44.6500 N.am      8 UNK        -0.5000 
     35 C           1.5801  -18.8627  -44.7086 C.2       7 UNK         0.5000 
     36 O           1.4605  -19.9631  -45.2408 O.2       7 UNK        -0.5000 
     37 CA          2.8904  -18.5199  -43.9862 C.3       7 UNK         0.1400 
     38 CB          3.7446  -17.5511  -44.8176 C.3       7 UNK        -0.1800 
     39 N           2.6292  -17.9607  -42.6609 N.am      7 UNK        -0.5000 
     40 C           2.1423  -18.6698  -41.6316 C.2       6 UNK         0.5000 
     41 O           1.9223  -19.8808  -41.6776 O.2       6 UNK        -0.5000 
     42 CA          1.8074  -17.8845  -40.3501 C.3       6 UNK         0.1400 
     43 CB          3.0611  -17.7017  -39.4820 C.3       6 UNK        -0.1800 
     44 N           1.2157  -16.5751  -40.6317 N.am      6 UNK        -0.5000 
     45 C           0.0098  -16.3961  -41.1891 C.2       5 UNK         0.5000 
     46 O          -0.7468  -17.3190  -41.4883 O.2       5 UNK        -0.5000 
     47 CA         -0.4023  -14.9463  -41.5058 C.3       5 UNK         0.1400 
     48 CB         -1.0883  -14.3011  -40.2931 C.3       5 UNK        -0.1800 
     49 N           0.7094  -14.0966  -41.9403 N.am      5 UNK        -0.5000 
     50 C           1.4733  -14.3129  -43.0187 C.2       4 UNK         0.5000 
     51 O           1.3432  -15.2918  -43.7551 O.2       4 UNK        -0.5000 
     52 CA          2.5366  -13.2395  -43.3209 C.3       4 UNK         0.1400 
     53 CB          3.5555  -13.6939  -44.3803 C.3       4 UNK        -0.1800 
     54 N           1.8943  -12.0006  -43.7609 N.am      4 UNK        -0.5000 
     55 C           1.3552  -11.0877  -42.9382 C.2       3 UNK         0.5000 
     56 O           1.3981  -11.1925  -41.7104 O.2       3 UNK        -0.5000 
     57 CA          0.6038   -9.8921  -43.5626 C.3       3 UNK         0.1400 
     58 CB          0.8735   -8.5670  -42.8190 C.3       3 UNK        -0.1800 
     59 N           0.7914   -9.7500  -45.0096 N.am      3 UNK        -0.5000 
     60 C           1.8948   -9.3744  -45.6757 C.2       2 UNK         0.5000 
     61 O           2.9423   -9.0263  -45.1290 O.2       2 UNK        -0.5000 
     62 CA          1.8033   -9.4176  -47.2205 C.3       2 UNK         0.1400 
     63 CB          3.1835   -9.5503  -47.8980 C.3       2 UNK        -0.1800 
     64 N           0.8793  -10.4483  -47.7183 N.am      2 UNK        -0.5000 
     65 C           0.9491  -11.7688  -47.4811 C.2       1 UNK         0.5000 
     66 O           1.8666  -12.2880  -46.8467 O.2       1 UNK        -0.5000 
     67 C          -1.5097  -23.1757  -47.4001 C.2       11 UNK         0.5000 
     68 O          -1.7996  -23.9967  -48.2693 O.2       11 UNK        -0.5000 
     69 N          -2.3879  -22.7333  -46.4887 N.am      12 UNK        -0.5000 
     70 CA         -3.7631  -23.2194  -46.3627 C.3       12 UNK         0.1400 
     71 CB         -4.5619  -22.3054  -45.4228 C.3       12 UNK        -0.1800 
     72 C          -3.8278  -24.6850  -45.9031 C.2       12 UNK         0.5000 
     73 O          -4.6070  -25.4547  -46.4643 O.2       12 UNK        -0.5000 
     74 N          -2.9741  -25.0633  -44.9408 N.am      13 UNK        -0.5000 
     75 CA         -2.8063  -26.4440  -44.4770 C.3       13 UNK         0.1400 
     76 CB         -1.9066  -26.4637  -43.2322 C.3       13 UNK        -0.1800 
     77 C          -2.2550  -27.3796  -45.5722 C.2       13 UNK         0.5000 
     78 O          -2.6735  -28.5347  -45.6540 O.2       13 UNK        -0.5000 
     79 N          -1.3628  -26.8499  -46.4201 N.am      14 UNK        -0.5000 
     80 CA         -0.8297  -27.5142  -47.6120 C.3       14 UNK         0.1400 
     81 CB          0.4748  -26.8131  -48.0241 C.3       14 UNK        -0.1800 
     82 C          -1.8186  -27.5509  -48.7985 C.2       14 UNK         0.5000 
     83 O          -1.5396  -28.2373  -49.7824 O.2       14 UNK        -0.5000 
     84 N          -2.9364  -26.8152  -48.6939 N.am      15 UNK        -0.5000 
     85 CA         -3.9866  -26.6229  -49.6987 C.3       15 UNK         0.1400 
     86 CB         -4.7417  -27.9416  -49.9660 C.3       15 UNK        -0.1800 
     87 C          -3.4644  -25.9433  -50.9825 C.2       15 UNK         0.5000 
     88 O          -3.8064  -26.3600  -52.0905 O.2       15 UNK        -0.5000 
     89 N          -2.6381  -24.9066  -50.8042 N.am      16 UNK        -0.5000 
     90 CA         -1.9864  -24.1470  -51.8669 C.3       16 UNK         0.1400 
     91 CB         -0.6352  -24.8025  -52.2111 C.3       16 UNK        -0.1800 
     92 C          -1.8555  -22.6732  -51.4473 C.2       16 UNK         0.5000 
     93 O          -0.7659  -22.1101  -51.5286 O.2       16 UNK        -0.5000 
     94 N          -2.9597  -22.0874  -50.9670 N.am      17 UNK        -0.5000 
     95 CA         -3.0531  -20.6925  -50.5287 C.3       17 UNK         0.1400 
     96 CB         -3.9803  -20.6332  -49.3018 C.3       17 UNK        -0.1800 
     97 C          -3.5557  -19.7578  -51.6465 C.2       17 UNK         0.5000 
     98 O          -3.8447  -20.2063  -52.7582 O.2       17 UNK        -0.5000 
     99 N          -3.6774  -18.4670  -51.3004 N.am      18 UNK        -0.5000 
    100 CA        -4.0806  -17.3478  -52.1606 C.3       18 UNK         0.1400 
    101 CB        -4.0466  -16.0551  -51.3311 C.3       18 UNK        -0.1800 
    102 C         -5.4584  -17.4799  -52.8361 C.2       18 UNK         0.5000 
    103 O         -5.7014  -16.8043  -53.8377 O.2       18 UNK        -0.5000 
    104 N         -6.3376  -18.3327  -52.2938 N.am      19 UNK        -0.5000 
    105 CA        -7.6683  -18.6480  -52.8176 C.3       19 UNK         0.1400 
    106 CB        -8.4970  -19.2902  -51.6905 C.3       19 UNK        -0.1800 
    107 C         -7.5960  -19.5330  -54.0822 C.2       19 UNK         0.5000 
    108 O         -8.0936  -20.6596  -54.0816 O.2       19 UNK        -0.5000 
    109 N         -6.9245  -19.0180  -55.1211 N.am      20 UNK        -0.5000 
    110 CA        -6.6428  -19.5866  -56.4467 C.3       20 UNK         0.1400 
    111 CB        -7.9494  -19.8791  -57.2084 C.3       20 UNK        -0.1800 
    112 C         -5.7113  -20.8173  -56.4626 C.2       20 UNK         0.5000 
    113 O         -5.0698  -21.0640  -57.4849 O.2       20 UNK        -0.5000 
    114 N         -5.6403  -21.5632  -55.3540 N.am      21 UNK        -0.5000 
    115 CA        -4.9245  -22.8300  -55.2066 C.3       21 UNK         0.1400 
    116 CB        -5.2199  -23.4069  -53.8154 C.3       21 UNK        -0.1800 
    117 C         -3.4084  -22.7502  -55.4721 C.2       21 UNK         0.5000 
    118 O         -2.8439  -23.7167  -55.9858 O.2       21 UNK        -0.5000 
    119 N         -2.7814  -21.6090  -55.1562 N.am      22 UNK        -0.5000 
    120 CA        -1.3843  -21.3125  -55.5156 C.3       22 UNK         0.1400 
    121 C         -1.1424  -20.9479  -57.0125 C.2       22 UNK         0.5000 
    122 N         -2.1627  -20.8183  -57.8531 N.am      22 UNK        -0.7600 
    123 O          0.0036  -20.7981  -57.4281 O.2       22 UNK        -0.5000 
    124 C124       -0.7225  -20.3044  -54.5430 C.3       23 UNK        -0.0398 
    125 S125       -1.3837  -18.6043  -54.5802 S.3       23 UNK        -0.2404 
    126 C126        0.0121  -17.6716  -53.8645 C.3       23 UNK        -0.0205 
    127 H127       -4.2119  -11.2764  -46.3669 H         1 UNK         0.0600 
    128 H128       -3.7917  -10.7493  -47.9992 H         1 UNK         0.0600 
    129 H129       -3.4074   -9.7230  -46.6141 H         1 UNK         0.0600 
    130 H130       -1.9982  -11.7902  -48.7956 H         1 UNK         0.3000 
    131 H131       -0.0673  -12.7721  -49.0461 H         1 UNK         0.0600 
    132 H132       -1.3520  -14.3668  -47.2578 H         1 UNK         0.0800 
    133 H133        0.0096  -13.9892  -46.2599 H         1 UNK         0.0800 
    134 H134       -1.3098  -15.4446  -49.5583 H         1 UNK         0.0800 
    135 H135       -1.2993  -16.6975  -48.3354 H         1 UNK         0.0800 
    136 H136       -0.8629  -16.1239  -51.7952 H         1 UNK         0.1150 
    137 H137        1.3208  -19.7150  -52.6112 H         1 UNK         0.1150 
    138 H138        0.7367  -18.4211  -48.5631 H         1 UNK         0.1150 
    139 H139        2.9580  -20.2754  -50.3728 H         1 UNK         0.0800 
    140 H140        1.5985  -21.3233  -50.6822 H         1 UNK         0.0800 
    141 H141       -0.4204  -20.5173  -47.6210 H         1 UNK         0.0800 
    142 H142       -0.3505  -21.4402  -49.0986 H         1 UNK         0.0800 
    143 H143        0.5709  -23.4055  -47.7860 H         1 UNK         0.0600 
    144 H144        0.6261  -21.5669  -45.6245 H         1 UNK         0.3000 
    145 H145        0.6734  -24.0045  -42.9857 H         1 UNK         0.0600 
    146 H146        3.0038  -23.7141  -43.8002 H         1 UNK         0.0600 
    147 H147        2.6772  -22.6450  -42.4437 H         1 UNK         0.0600 
    148 H148        2.7181  -22.0026  -44.0832 H         1 UNK         0.0600 
    149 H149        0.6448  -21.1487  -42.9444 H         1 UNK         0.3000 
    150 H150       -2.9315  -20.7874  -42.7575 H         1 UNK         0.0600 
    151 H151       -0.6755  -20.3229  -40.7372 H         1 UNK         0.0600 
    152 H152       -2.1032  -21.3125  -40.4541 H         1 UNK         0.0600 
    153 H153       -2.2739  -19.5820  -40.7059 H         1 UNK         0.0600 
    154 H154       -0.8972  -18.8222  -42.7126 H         1 UNK         0.3000 
    155 H155       -0.6395  -18.3148  -46.2667 H         1 UNK         0.0600 
    156 H156       -2.5353  -16.9441  -45.5071 H         1 UNK         0.0600 
    157 H157       -1.0594  -15.9967  -45.3861 H         1 UNK         0.0600 
    158 H158       -1.7841  -16.6845  -43.9387 H         1 UNK         0.0600 
    159 H159        0.7961  -17.0520  -44.2182 H         1 UNK         0.3000 
    160 H160        3.4583  -19.4442  -43.8595 H         1 UNK         0.0600 
    161 H161        4.6676  -17.2905  -44.2997 H         1 UNK         0.0600 
    162 H162        3.2114  -16.6283  -45.0441 H         1 UNK         0.0600 
    163 H163        4.0219  -18.0043  -45.7701 H         1 UNK         0.0600 
    164 H164        2.7173  -16.9601  -42.5651 H         1 UNK         0.3000 
    165 H165        1.0814  -18.4703  -39.7820 H         1 UNK         0.0600 
    166 H166        2.8189  -17.2141  -38.5375 H         1 UNK         0.0600 
    167 H167        3.5130  -18.6652  -39.2426 H         1 UNK         0.0600 
    168 H168        3.8183  -17.1002  -39.9865 H         1 UNK         0.0600 
    169 H169        1.7727  -15.7616  -40.4156 H         1 UNK         0.3000 
    170 H170       -1.1239  -14.9821  -42.3240 H         1 UNK         0.0600 
    171 H171       -0.4046  -14.2018  -39.4492 H         1 UNK         0.0600 
    172 H172       -1.9374  -14.8997  -39.9602 H         1 UNK         0.0600 
    173 H173       -1.4675  -13.3084  -40.5366 H         1 UNK         0.0600 
    174 H174        0.8595  -13.2376  -41.4234 H         1 UNK         0.3000 
    175 H175        3.0907  -13.0490  -42.3994 H         1 UNK         0.0600 
    176 H176        4.1348  -14.5437  -44.0186 H         1 UNK         0.0600 
    177 H177        3.0722  -14.0005  -45.3082 H         1 UNK         0.0600 
    178 H178        4.2609  -12.8977  -44.6182 H         1 UNK         0.0600 
    179 H179        1.8005  -11.8811  -44.7634 H         1 UNK         0.3000 
    180 H180       -0.4551  -10.1201  -43.4333 H         1 UNK         0.0600 
    181 H181        1.9336   -8.3135  -42.8078 H         1 UNK         0.0600 
    182 H182        0.5462   -8.6293  -41.7806 H         1 UNK         0.0600 
    183 H183        0.3331   -7.7390  -43.2778 H         1 UNK         0.0600 
    184 H184        0.0041  -10.0780  -45.5571 H         1 UNK         0.3000 
    185 H185        1.3810   -8.4580  -47.5218 H         1 UNK         0.0600 
    186 H186        3.8255   -8.7049  -47.6480 H         1 UNK         0.0600 
    187 H187        3.7028  -10.4572  -47.5867 H         1 UNK         0.0600 
    188 H188        3.0893   -9.5736  -48.9836 H         1 UNK         0.0600 
    189 H189        0.0780  -10.1068  -48.2308 H         1 UNK         0.3000 
    190 H190       -2.1078  -21.9927  -45.8516 H         1 UNK         0.3000 
    191 H191       -4.2290  -23.1722  -47.3488 H         1 UNK         0.0600 
    192 H192       -4.5839  -21.2813  -45.7959 H         1 UNK         0.0600 
    193 H193       -5.5956  -22.6422  -45.3364 H         1 UNK         0.0600 
    194 H194       -4.1380  -22.2866  -44.4192 H         1 UNK         0.0600 
    195 H195       -2.4013  -24.3563  -44.4889 H         1 UNK         0.3000 
    196 H196       -3.7904  -26.8188  -44.1882 H         1 UNK         0.0600 
    197 H197       -1.7996  -27.4773  -42.8442 H         1 UNK         0.0600 
    198 H198       -2.3259  -25.8516  -42.4335 H         1 UNK         0.0600 
    199 H199       -0.9067  -26.0886  -43.4496 H         1 UNK         0.0600 
    200 H200       -1.0112  -25.9173  -46.2277 H         1 UNK         0.3000 
    201 H201       -0.5924  -28.5481  -47.3534 H         1 UNK         0.0600 
    202 H202        0.9454  -27.3231  -48.8655 H         1 UNK         0.0600 
    203 H203        1.1951  -26.8040  -47.2059 H         1 UNK         0.0600 
    204 H204        0.2971  -25.7811  -48.3261 H         1 UNK         0.0600 
    205 H205       -3.0608  -26.2821  -47.8431 H         1 UNK         0.3000 
    206 H206       -4.6994  -25.9240  -49.2591 H         1 UNK         0.0600 
    207 H207       -5.1099  -28.3786  -49.0377 H         1 UNK         0.0600 
    208 H208       -5.6058  -27.7724  -50.6095 H         1 UNK         0.0600 
    209 H209       -4.1090  -28.6810  -50.4576 H         1 UNK         0.0600 
    210 H210       -2.3948  -24.6242  -49.8541 H         1 UNK         0.3000 
    211 H211       -2.6042  -24.1578  -52.7651 H         1 UNK         0.0600 
    212 H212        0.0352  -24.8094  -51.3507 H         1 UNK         0.0600 
    213 H213       -0.1344  -24.2681  -53.0194 H         1 UNK         0.0600 
    214 H214       -0.7692  -25.8335  -52.5387 H         1 UNK         0.0600 
    215 H215       -3.8180  -22.6170  -50.9549 H         1 UNK         0.3000 
    216 H216       -2.0675  -20.3295  -50.2315 H         1 UNK         0.0600 
    217 H217       -4.0699  -19.6222  -48.9037 H         1 UNK         0.0600 
    218 H218       -3.5877  -21.2461  -48.4947 H         1 UNK         0.0600 
    219 H219       -4.9850  -20.9874  -49.5354 H         1 UNK         0.0600 
    220 H220       -3.4248  -18.2091  -50.3585 H         1 UNK         0.3000 
    221 H221       -3.3411  -17.2604  -52.9563 H         1 UNK         0.0600 
    222 H222       -4.7430  -16.0965  -50.4926 H         1 UNK         0.0600 
    223 H223       -3.0536  -15.8660  -50.9326 H         1 UNK         0.0600 
    224 H224       -4.3158  -15.1899  -51.9388 H         1 UNK         0.0600 
    225 H225       -6.0370  -18.8637  -51.4907 H         1 UNK         0.3000 
    226 H226       -8.1607  -17.7162  -53.1032 H         1 UNK         0.0600 
    227 H227       -8.5828  -18.6212  -50.8341 H         1 UNK         0.0600 
    228 H228       -8.0514  -20.2236  -51.3438 H         1 UNK         0.0600 
    229 H229       -9.5098  -19.5139  -52.0279 H         1 UNK         0.0600 
    230 H230       -6.4987  -18.1096  -54.9528 H         1 UNK         0.3000 
    231 H231       -6.1147  -18.8027  -56.9915 H         1 UNK         0.0600 
    232 H232       -8.5257  -20.6760  -56.7376 H         1 UNK         0.0600 
    233 H233       -7.7412  -20.1914  -58.2325 H         1 UNK         0.0600 
    234 H234       -8.5819  -18.9930  -57.2620 H         1 UNK         0.0600 
    235 H235       -6.2412  -21.2940  -54.5845 H         1 UNK         0.3000 
    236 H236       -5.3416  -23.5157  -55.9468 H         1 UNK         0.0600 
    237 H237       -4.8350  -22.7643  -53.0246 H         1 UNK         0.0600 
    238 H238       -6.2919  -23.5256  -53.6569 H         1 UNK         0.0600 
    239 H239       -4.7680  -24.3919  -53.7003 H         1 UNK         0.0600 
    240 H240       -3.2917  -20.8806  -54.6676 H         1 UNK         0.3000 
    241 H241       -0.8311  -22.2434  -55.3762 H         1 UNK         0.0600 
    242 H242       -3.1226  -20.9530  -57.5514 H         1 UNK         0.3800 
    243 H243       -1.9776  -20.5899  -58.8166 H         1 UNK         0.3800 
    244 H244        0.3511  -20.2701  -54.7332 H         1 UNK         0.0800 
    245 H245       -0.8307  -20.6653  -53.5244 H         1 UNK         0.0800 
    246 H246        0.9325  -17.9268  -54.3917 H         1 UNK         0.0800 
    247 H247       -0.1529  -16.6099  -54.0535 H         1 UNK         0.0800 
@<TRIPOS>BOND
     1    1    2 1    
     2    1  127 1    
     3    1  128 1    
     4    1  129 1    
     5    2    3 2    
     6    2    4 am   BACKBONE|DICT|INTERRES
     7    4    5 1    
     8    4  130 1    
     9    5    6 1    
    10    5   65 1    
    11    5  131 1    
    12    6    7 1    
    13    6  132 1    
    14    6  133 1    
    15    7    8 1    
    16    8    9 1    
    17    8  134 1    
    18    8  135 1    
    19    9   10 ar   
    20    9   14 ar   
    21   10   11 ar   
    22   10  136 1    
    23   11   12 ar   
    24   11  126 1    
    25   12   13 ar   
    26   12  137 1    
    27   13   14 ar   
    28   13   15 1    
    29   14  138 1    
    30   15   16 1    
    31   15  139 1    
    32   15  140 1    
    33   16   17 1    
    34   17   18 1    
    35   17  141 1    
    36   17  142 1    
    37   18   19 1    
    38   18   67 1    
    39   18  143 1    
    40   19   20 am   BACKBONE|DICT|INTERRES
    41   19  144 1    
    42   20   21 2    
    43   20   22 1    
    44   22   23 1    
    45   22   24 1    
    46   22  145 1    
    47   23  146 1    
    48   23  147 1    
    49   23  148 1    
    50   24   25 am   BACKBONE|DICT|INTERRES
    51   24  149 1    
    52   25   26 2    
    53   25   27 1    
    54   27   28 1    
    55   27   29 1    
    56   27  150 1    
    57   28  151 1    
    58   28  152 1    
    59   28  153 1    
    60   29   30 am   BACKBONE|DICT|INTERRES
    61   29  154 1    
    62   30   31 2    
    63   30   32 1    
    64   32   33 1    
    65   32   34 1    
    66   32  155 1    
    67   33  156 1    
    68   33  157 1    
    69   33  158 1    
    70   34   35 am   BACKBONE|DICT|INTERRES
    71   34  159 1    
    72   35   36 2    
    73   35   37 1    
    74   37   38 1    
    75   37   39 1    
    76   37  160 1    
    77   38  161 1    
    78   38  162 1    
    79   38  163 1    
    80   39   40 am   BACKBONE|DICT|INTERRES
    81   39  164 1    
    82   40   41 2    
    83   40   42 1    
    84   42   43 1    
    85   42   44 1    
    86   42  165 1    
    87   43  166 1    
    88   43  167 1    
    89   43  168 1    
    90   44   45 am   BACKBONE|DICT|INTERRES
    91   44  169 1    
    92   45   46 2    
    93   45   47 1    
    94   47   48 1    
    95   47   49 1    
    96   47  170 1    
    97   48  171 1    
    98   48  172 1    
    99   48  173 1    
   100   49   50 am   BACKBONE|DICT|INTERRES
   101   49  174 1    
   102   50   51 2    
   103   50   52 1    
   104   52   53 1    
   105   52   54 1    
   106   52  175 1    
   107   53  176 1    
   108   53  177 1    
   109   53  178 1    
   110   54   55 am   BACKBONE|DICT|INTERRES
   111   54  179 1    
   112   55   56 2    
   113   55   57 1    
   114   57   58 1    
   115   57   59 1    
   116   57  180 1    
   117   58  181 1    
   118   58  182 1    
   119   58  183 1    
   120   59   60 am   BACKBONE|DICT|INTERRES
   121   59  184 1    
   122   60   61 2    
   123   60   62 1    
   124   62   63 1    
   125   62   64 1    
   126   62  185 1    
   127   63  186 1    
   128   63  187 1    
   129   63  188 1    
   130   64   65 am   BACKBONE|DICT|INTERRES
   131   64  189 1    
   132   65   66 2    
   133   67   68 2    
   134   67   69 am   BACKBONE|DICT|INTERRES
   135   69   70 1    
   136   69  190 1    
   137   70   71 1    
   138   70   72 1    
   139   70  191 1    
   140   71  192 1    
   141   71  193 1    
   142   71  194 1    
   143   72   73 2    
   144   72   74 am   BACKBONE|DICT|INTERRES
   145   74   75 1    
   146   74  195 1    
   147   75   76 1    
   148   75   77 1    
   149   75  196 1    
   150   76  197 1    
   151   76  198 1    
   152   76  199 1    
   153   77   78 2    
   154   77   79 am   BACKBONE|DICT|INTERRES
   155   79   80 1    
   156   79  200 1    
   157   80   81 1    
   158   80   82 1    
   159   80  201 1    
   160   81  202 1    
   161   81  203 1    
   162   81  204 1    
   163   82   83 2    
   164   82   84 am   BACKBONE|DICT|INTERRES
   165   84   85 1    
   166   84  205 1    
   167   85   86 1    
   168   85   87 1    
   169   85  206 1    
   170   86  207 1    
   171   86  208 1    
   172   86  209 1    
   173   87   88 2    
   174   87   89 am   BACKBONE|DICT|INTERRES
   175   89   90 1    
   176   89  210 1    
   177   90   91 1    
   178   90   92 1    
   179   90  211 1    
   180   91  212 1    
   181   91  213 1    
   182   91  214 1    
   183   92   93 2    
   184   92   94 am   BACKBONE|DICT|INTERRES
   185   94   95 1    
   186   94  215 1    
   187   95   96 1    
   188   95   97 1    
   189   95  216 1    
   190   96  217 1    
   191   96  218 1    
   192   96  219 1    
   193   97   98 2    
   194   97   99 am   BACKBONE|DICT|INTERRES
   195   99  100 1    
   196   99  220 1    
   197  100  101 1    
   198  100  102 1    
   199  100  221 1    
   200  101  222 1    
   201  101  223 1    
   202  101  224 1    
   203  102  103 2    
   204  102  104 am   BACKBONE|DICT|INTERRES
   205  104  105 1    
   206  104  225 1    
   207  105  106 1    
   208  105  107 1    
   209  105  226 1    
   210  106  227 1    
   211  106  228 1    
   212  106  229 1    
   213  107  108 2    
   214  107  109 am   BACKBONE|DICT|INTERRES
   215  109  110 1    
   216  109  230 1    
   217  110  111 1    
   218  110  112 1    
   219  110  231 1    
   220  111  232 1    
   221  111  233 1    
   222  111  234 1    
   223  112  113 2    
   224  112  114 am   BACKBONE|DICT|INTERRES
   225  114  115 1    
   226  114  235 1    
   227  115  116 1    
   228  115  117 1    
   229  115  236 1    
   230  116  237 1    
   231  116  238 1    
   232  116  239 1    
   233  117  118 2    
   234  117  119 am   BACKBONE|DICT|INTERRES
   235  119  120 1    
   236  119  240 1    
   237  120  121 1    
   238  120  124 1    
   239  120  241 1    
   240  121  122 am   BACKBONE|DICT|INTERRES
   241  121  123 2    
   242  122  242 1    
   243  122  243 1    
   244  124  125 1    
   245  124  244 1    
   246  124  245 1    
   247  125  126 1    
   248  126  246 1    
   249  126  247 1    
@<TRIPOS>SUBSTRUCTURE
     1 UNK         1 GROUP             0       ****    0 ROOT    
