@<TRIPOS>MOLECULE
3R540
247   249    1
SMALL
USER_CHARGES


@<TRIPOS>ATOM
      1 CA         -4.4136  -13.3442  -45.6123 C.3       0 UNK        -0.1800 
      2 C          -2.9796  -13.2801  -46.1157 C.2       0 UNK         0.5000 
      3 O          -2.0851  -13.8378  -45.4817 O.2       0 UNK        -0.5000 
      4 N          -2.7527  -12.5987  -47.2469 N.am      1 UNK        -0.5000 
      5 CA         -1.4460  -12.3986  -47.8824 C.3       1 UNK         0.1400 
      6 C6         -0.8468  -13.7266  -48.4263 C.3       23 UNK        -0.0398 
      7 S7          0.4478  -13.4375  -49.6808 S.3       23 UNK        -0.2404 
      8 C8         -0.3195  -14.1124  -51.1896 C.3       23 UNK        -0.0205 
      9 C9         -0.4635  -15.6257  -51.1236 C.ar      23 UNK        -0.0193 
     10 C10         0.6715  -16.4398  -51.1879 C.ar      23 UNK        -0.1150 
     11 C11         0.5530  -17.8282  -51.0936 C.ar      23 UNK        -0.0193 
     12 C12        -0.7121  -18.4031  -50.9569 C.ar      23 UNK        -0.1150 
     13 C13        -1.8539  -17.6006  -50.8867 C.ar      23 UNK        -0.0193 
     14 C14        -1.7254  -16.2124  -50.9816 C.ar      23 UNK        -0.1150 
     15 C15        -3.2192  -18.2368  -50.6724 C.3       23 UNK        -0.0205 
     16 S16        -3.8492  -18.0173  -48.9753 S.3       23 UNK        -0.2404 
     17 C17        -2.4286  -18.5079  -47.9377 C.3       23 UNK        -0.0398 
     18 CA         -2.0225  -19.9998  -48.0529 C.3       11 UNK         0.1400 
     19 N          -0.6410  -20.2218  -47.6132 N.am      11 UNK        -0.5000 
     20 C           0.0346  -21.3744  -47.7286 C.2       10 UNK         0.5000 
     21 O          -0.4173  -22.3730  -48.2832 O.2       10 UNK        -0.5000 
     22 CA          1.4217  -21.4484  -47.0592 C.3       10 UNK         0.1400 
     23 CB          2.5125  -20.8554  -47.9599 C.3       10 UNK        -0.1800 
     24 N           1.4495  -20.7874  -45.7545 N.am      10 UNK        -0.5000 
     25 C           0.7355  -21.1873  -44.6924 C.2       9 UNK         0.5000 
     26 O           0.0412  -22.2025  -44.6779 O.2       9 UNK        -0.5000 
     27 CA          0.7390  -20.2559  -43.4694 C.3       9 UNK         0.1400 
     28 CB          1.9732  -20.4890  -42.5848 C.3       9 UNK        -0.1800 
     29 N           0.6723  -18.8520  -43.8720 N.am      9 UNK        -0.5000 
     30 C          -0.4139  -18.2758  -44.4070 C.2       8 UNK         0.5000 
     31 O          -1.4843  -18.8595  -44.5757 O.2       8 UNK        -0.5000 
     32 CA         -0.2626  -16.8133  -44.8579 C.3       8 UNK         0.1400 
     33 CB         -0.4893  -15.8775  -43.6638 C.3       8 UNK        -0.1800 
     34 N           1.0529  -16.5494  -45.4474 N.am      8 UNK        -0.5000 
     35 C           1.4584  -17.0477  -46.6259 C.2       7 UNK         0.5000 
     36 O           0.7482  -17.7479  -47.3420 O.2       7 UNK        -0.5000 
     37 CA          2.9116  -16.7776  -47.0599 C.3       7 UNK         0.1400 
     38 CB          2.9880  -15.5242  -47.9406 C.3       7 UNK        -0.1800 
     39 N           3.8367  -16.6456  -45.9348 N.am      7 UNK        -0.5000 
     40 C           4.0905  -17.6123  -45.0426 C.2       6 UNK         0.5000 
     41 O           3.5943  -18.7388  -45.1038 O.2       6 UNK        -0.5000 
     42 CA          4.9906  -17.2507  -43.8440 C.3       6 UNK         0.1400 
     43 CB          5.8338  -15.9725  -44.0542 C.3       6 UNK        -0.1800 
     44 N           4.2117  -17.1502  -42.6043 N.am      6 UNK        -0.5000 
     45 C           3.1610  -16.3478  -42.3737 C.2       5 UNK         0.5000 
     46 O           2.6891  -15.5844  -43.2200 O.2       5 UNK        -0.5000 
     47 CA          2.4865  -16.4404  -40.9864 C.3       5 UNK         0.1400 
     48 CB          3.3740  -17.0759  -39.8928 C.3       5 UNK        -0.1800 
     49 N           1.9601  -15.1447  -40.5441 N.am      5 UNK        -0.5000 
     50 C           2.6551  -14.0204  -40.3215 C.2       4 UNK         0.5000 
     51 O           3.8813  -13.9375  -40.4194 O.2       4 UNK        -0.5000 
     52 CA          1.8233  -12.7805  -39.9328 C.3       4 UNK         0.1400 
     53 CB          2.6976  -11.5712  -39.5546 C.3       4 UNK        -0.1800 
     54 N           0.9205  -12.3780  -41.0097 N.am      4 UNK        -0.5000 
     55 C          -0.2596  -12.9307  -41.3067 C.2       3 UNK         0.5000 
     56 O          -0.7295  -13.8885  -40.6907 O.2       3 UNK        -0.5000 
     57 CA         -1.0406  -12.3303  -42.4939 C.3       3 UNK         0.1400 
     58 CB         -1.6919  -10.9864  -42.1187 C.3       3 UNK        -0.1800 
     59 N          -0.2708  -12.2235  -43.7402 N.am      3 UNK        -0.5000 
     60 C           0.8118  -11.4793  -44.0164 C.2       2 UNK         0.5000 
     61 O           1.3320  -10.6995  -43.2171 O.2       2 UNK        -0.5000 
     62 CA          1.4427  -11.6452  -45.4141 C.3       2 UNK         0.1400 
     63 CB          2.6991  -12.5263  -45.3256 C.3       2 UNK        -0.1800 
     64 N           0.5316  -12.2231  -46.4039 N.am      2 UNK        -0.5000 
     65 C          -0.5176  -11.5881  -46.9449 C.2       1 UNK         0.5000 
     66 O          -0.7919  -10.4099  -46.7084 O.2       1 UNK        -0.5000 
     67 C          -3.0218  -20.9218  -47.3276 C.2       11 UNK         0.5000 
     68 O          -3.8833  -21.5063  -47.9796 O.2       11 UNK        -0.5000 
     69 N          -2.8662  -21.0704  -46.0047 N.am      12 UNK        -0.5000 
     70 CA         -3.6705  -21.9743  -45.1818 C.3       12 UNK         0.1400 
     71 CB         -3.4127  -21.6732  -43.6976 C.3       12 UNK        -0.1800 
     72 C          -3.4171  -23.4635  -45.4916 C.2       12 UNK         0.5000 
     73 O          -4.3589  -24.2558  -45.4543 O.2       12 UNK        -0.5000 
     74 N          -2.1578  -23.8171  -45.7841 N.am      13 UNK        -0.5000 
     75 CA         -1.7322  -25.1743  -46.1312 C.3       13 UNK         0.1400 
     76 CB         -0.2066  -25.2773  -45.9807 C.3       13 UNK        -0.1800 
     77 C          -2.1628  -25.6136  -47.5444 C.2       13 UNK         0.5000 
     78 O          -2.3699  -26.8084  -47.7643 O.2       13 UNK        -0.5000 
     79 N          -2.2697  -24.6567  -48.4755 N.am      14 UNK        -0.5000 
     80 CA         -2.6892  -24.8626  -49.8618 C.3       14 UNK         0.1400 
     81 CB         -2.4690  -23.5586  -50.6419 C.3       14 UNK        -0.1800 
     82 C          -4.1502  -25.3428  -49.9869 C.2       14 UNK         0.5000 
     83 O          -4.9654  -25.1107  -49.0891 O.2       14 UNK        -0.5000 
     84 N          -4.4482  -26.0138  -51.1091 N.am      15 UNK        -0.5000 
     85 CA         -5.7431  -26.6240  -51.4217 C.3       15 UNK         0.1400 
     86 CB         -5.6771  -27.2788  -52.8096 C.3       15 UNK        -0.1800 
     87 C          -6.9119  -25.6243  -51.3468 C.2       15 UNK         0.5000 
     88 O          -6.8393  -24.5508  -51.9490 O.2       15 UNK        -0.5000 
     89 N          -7.9424  -25.9899  -50.5698 N.am      16 UNK        -0.5000 
     90 CA         -9.1549  -25.2153  -50.2655 C.3       16 UNK         0.1400 
     91 CB        -10.0109  -25.0407  -51.5377 C.3       16 UNK        -0.1800 
     92 C          -8.8926  -23.8659  -49.5555 C.2       16 UNK         0.5000 
     93 O          -9.7858  -23.0180  -49.5229 O.2       16 UNK        -0.5000 
     94 N          -7.6748  -23.6822  -49.0200 N.am      17 UNK        -0.5000 
     95 CA         -7.1142  -22.4373  -48.4852 C.3       17 UNK         0.1400 
     96 CB         -7.8263  -22.0200  -47.1821 C.3       17 UNK        -0.1800 
     97 C          -7.0445  -21.3008  -49.5340 C.2       17 UNK         0.5000 
     98 O          -7.1099  -20.1242  -49.1733 O.2       17 UNK        -0.5000 
     99 N          -6.9397  -21.6740  -50.8161 N.am      18 UNK        -0.5000 
    100 CA        -6.8343  -20.7743  -51.9600 C.3       18 UNK         0.1400 
    101 CB        -7.7394  -21.3170  -53.0789 C.3       18 UNK        -0.1800 
    102 C         -5.3754  -20.6977  -52.4359 C.2       18 UNK         0.5000 
    103 O         -4.5312  -21.4763  -51.9886 O.2       18 UNK        -0.5000 
    104 N         -5.0964  -19.7858  -53.3761 N.am      19 UNK        -0.5000 
    105 CA        -3.7893  -19.5921  -54.0160 C.3       19 UNK         0.1400 
    106 CB        -3.7430  -18.1842  -54.6358 C.3       19 UNK        -0.1800 
    107 C         -3.4417  -20.7058  -55.0312 C.2       19 UNK         0.5000 
    108 O         -3.0755  -20.4220  -56.1735 O.2       19 UNK        -0.5000 
    109 N         -3.5530  -21.9650  -54.5937 N.am      20 UNK        -0.5000 
    110 CA        -3.2588  -23.1820  -55.3468 C.3       20 UNK         0.1400 
    111 CB        -4.0426  -24.3473  -54.7184 C.3       20 UNK        -0.1800 
    112 C         -1.7404  -23.4395  -55.3963 C.2       20 UNK         0.5000 
    113 O         -1.2468  -24.3942  -54.7911 O.2       20 UNK        -0.5000 
    114 N         -1.0222  -22.5292  -56.0702 N.am      21 UNK        -0.5000 
    115 CA         0.4314  -22.5063  -56.2860 C.3       21 UNK         0.1400 
    116 CB         0.8429  -23.6484  -57.2381 C.3       21 UNK        -0.1800 
    117 C          1.2639  -22.4973  -54.9833 C.2       21 UNK         0.5000 
    118 O          2.4162  -22.9338  -54.9921 O.2       21 UNK        -0.5000 
    119 N          0.6579  -22.0155  -53.8880 N.am      22 UNK        -0.5000 
    120 CA         1.1933  -22.0369  -52.5149 C.3       22 UNK         0.1400 
    121 C          1.3661  -23.4707  -51.9207 C.2       22 UNK         0.5000 
    122 N          0.6956  -24.4906  -52.4478 N.am      22 UNK        -0.7600 
    123 O          2.0965  -23.6633  -50.9529 O.2       22 UNK        -0.5000 
    124 C124        2.4569  -21.1449  -52.3417 C.3       23 UNK        -0.0398 
    125 S125        2.1223  -19.3946  -52.7457 S.3       23 UNK        -0.2404 
    126 C126        1.7873  -18.7118  -51.0932 C.3       23 UNK        -0.0205 
    127 H127       -4.7424  -14.3817  -45.5533 H         1 UNK         0.0600 
    128 H128       -5.0985  -12.8055  -46.2674 H         1 UNK         0.0600 
    129 H129       -4.4791  -12.9071  -44.6159 H         1 UNK         0.0600 
    130 H130       -3.5263  -12.1335  -47.7008 H         1 UNK         0.3000 
    131 H131       -1.6432  -11.7534  -48.7402 H         1 UNK         0.0600 
    132 H132       -0.4521  -14.3622  -47.6323 H         1 UNK         0.0800 
    133 H133       -1.6448  -14.3136  -48.8807 H         1 UNK         0.0800 
    134 H134       -1.2859  -13.6327  -51.3525 H         1 UNK         0.0800 
    135 H135        0.3006  -13.8508  -52.0481 H         1 UNK         0.0800 
    136 H136        1.6486  -15.9884  -51.2878 H         1 UNK         0.1150 
    137 H137       -0.7999  -19.4771  -50.8810 H         1 UNK         0.1150 
    138 H138       -2.6074  -15.5906  -50.9195 H         1 UNK         0.1150 
    139 H139       -3.9362  -17.8046  -51.3711 H         1 UNK         0.0800 
    140 H140       -3.1828  -19.3034  -50.8935 H         1 UNK         0.0800 
    141 H141       -2.6539  -18.2444  -46.9037 H         1 UNK         0.0800 
    142 H142       -1.5969  -17.8645  -48.2192 H         1 UNK         0.0800 
    143 H143       -2.0472  -20.2868  -49.1041 H         1 UNK         0.0600 
    144 H144       -0.1613  -19.4156  -47.2233 H         1 UNK         0.3000 
    145 H145        1.6559  -22.5031  -46.9017 H         1 UNK         0.0600 
    146 H146        3.4983  -20.9610  -47.5066 H         1 UNK         0.0600 
    147 H147        2.5399  -21.3683  -48.9215 H         1 UNK         0.0600 
    148 H148        2.3451  -19.7964  -48.1497 H         1 UNK         0.0600 
    149 H149        2.0333  -19.9628  -45.6650 H         1 UNK         0.3000 
    150 H150       -0.1485  -20.4830  -42.8747 H         1 UNK         0.0600 
    151 H151        2.0068  -21.5210  -42.2335 H         1 UNK         0.0600 
    152 H152        1.9542  -19.8471  -41.7040 H         1 UNK         0.0600 
    153 H153        2.9031  -20.2977  -43.1196 H         1 UNK         0.0600 
    154 H154        1.5355  -18.3298  -43.8489 H         1 UNK         0.3000 
    155 H155       -1.0217  -16.5988  -45.6134 H         1 UNK         0.0600 
    156 H156       -0.1817  -14.8631  -43.9027 H         1 UNK         0.0600 
    157 H157        0.0681  -16.1885  -42.7815 H         1 UNK         0.0600 
    158 H158       -1.5441  -15.8474  -43.3887 H         1 UNK         0.0600 
    159 H159        1.7118  -16.0328  -44.8717 H         1 UNK         0.3000 
    160 H160        3.2414  -17.6290  -47.6578 H         1 UNK         0.0600 
    161 H161        2.6378  -14.6370  -47.4143 H         1 UNK         0.0600 
    162 H162        2.3684  -15.6426  -48.8299 H         1 UNK         0.0600 
    163 H163        4.0068  -15.3371  -48.2798 H         1 UNK         0.0600 
    164 H164        4.2543  -15.7381  -45.7905 H         1 UNK         0.3000 
    165 H165        5.6806  -18.0862  -43.7173 H         1 UNK         0.0600 
    166 H166        6.5223  -15.8241  -43.2222 H         1 UNK         0.0600 
    167 H167        6.4379  -16.0434  -44.9598 H         1 UNK         0.0600 
    168 H168        5.2196  -15.0745  -44.1310 H         1 UNK         0.0600 
    169 H169        4.5095  -17.7625  -41.8583 H         1 UNK         0.3000 
    170 H170        1.6190  -17.0882  -41.1174 H         1 UNK         0.0600 
    171 H171        3.6034  -18.1172  -40.1213 H         1 UNK         0.0600 
    172 H172        4.3187  -16.5443  -39.7728 H         1 UNK         0.0600 
    173 H173        2.8673  -17.0700  -38.9276 H         1 UNK         0.0600 
    174 H174        0.9494  -15.0692  -40.4980 H         1 UNK         0.3000 
    175 H175        1.2308  -13.0479  -39.0553 H         1 UNK         0.0600 
    176 H176        3.3031  -11.2333  -40.3968 H         1 UNK         0.0600 
    177 H177        2.0858  -10.7313  -39.2251 H         1 UNK         0.0600 
    178 H178        3.3761  -11.8180  -38.7370 H         1 UNK         0.0600 
    179 H179        1.2447  -11.6338  -41.6228 H         1 UNK         0.3000 
    180 H180       -1.8497  -13.0286  -42.7149 H         1 UNK         0.0600 
    181 H181       -2.3082  -10.6085  -42.9345 H         1 UNK         0.0600 
    182 H182       -0.9509  -10.2239  -41.8776 H         1 UNK         0.0600 
    183 H183       -2.3383  -11.0984  -41.2474 H         1 UNK         0.0600 
    184 H184       -0.6201  -12.8206  -44.4832 H         1 UNK         0.3000 
    185 H185        1.7431  -10.6531  -45.7575 H         1 UNK         0.0600 
    186 H186        3.2243  -12.5603  -46.2800 H         1 UNK         0.0600 
    187 H187        3.4008  -12.1379  -44.5862 H         1 UNK         0.0600 
    188 H188        2.4538  -13.5486  -45.0358 H         1 UNK         0.0600 
    189 H189        0.6864  -13.1898  -46.6454 H         1 UNK         0.3000 
    190 H190       -2.1654  -20.5146  -45.5253 H         1 UNK         0.3000 
    191 H191       -4.7227  -21.7689  -45.3902 H         1 UNK         0.0600 
    192 H192       -4.0295  -22.3059  -43.0583 H         1 UNK         0.0600 
    193 H193       -3.6512  -20.6366  -43.4584 H         1 UNK         0.0600 
    194 H194       -2.3714  -21.8473  -43.4257 H         1 UNK         0.0600 
    195 H195       -1.4278  -23.1155  -45.7170 H         1 UNK         0.3000 
    196 H196       -2.1879  -25.8655  -45.4191 H         1 UNK         0.0600 
    197 H197        0.3095  -24.5983  -46.6599 H         1 UNK         0.0600 
    198 H198        0.1072  -25.0381  -44.9645 H         1 UNK         0.0600 
    199 H199        0.1409  -26.2878  -46.1993 H         1 UNK         0.0600 
    200 H200       -2.0249  -23.7076  -48.2187 H         1 UNK         0.3000 
    201 H201       -2.0423  -25.6310  -50.2896 H         1 UNK         0.0600 
    202 H202       -3.0490  -22.7400  -50.2164 H         1 UNK         0.0600 
    203 H203       -2.7623  -23.6633  -51.6861 H         1 UNK         0.0600 
    204 H204       -1.4205  -23.2639  -50.6308 H         1 UNK         0.0600 
    205 H205       -3.7270  -26.1346  -51.8042 H         1 UNK         0.3000 
    206 H206       -5.9077  -27.4126  -50.6847 H         1 UNK         0.0600 
    207 H207       -4.8823  -28.0232  -52.8607 H         1 UNK         0.0600 
    208 H208       -6.6130  -27.7873  -53.0445 H         1 UNK         0.0600 
    209 H209       -5.5011  -26.5431  -53.5942 H         1 UNK         0.0600 
    210 H210       -7.8836  -26.8828  -50.0995 H         1 UNK         0.3000 
    211 H211       -9.7301  -25.8170  -49.5604 H         1 UNK         0.0600 
    212 H212      -10.9849  -24.6112  -51.3007 H         1 UNK         0.0600 
    213 H213      -10.1920  -25.9980  -52.0265 H         1 UNK         0.0600 
    214 H214       -9.5311  -24.3799  -52.2605 H         1 UNK         0.0600 
    215 H215       -6.9999  -24.4344  -49.1068 H         1 UNK         0.3000 
    216 H216       -6.0846  -22.6796  -48.2280 H         1 UNK         0.0600 
    217 H217       -7.3058  -21.1889  -46.7048 H         1 UNK         0.0600 
    218 H218       -8.8532  -21.7023  -47.3639 H         1 UNK         0.0600 
    219 H219       -7.8480  -22.8407  -46.4652 H         1 UNK         0.0600 
    220 H220       -6.8419  -22.6608  -51.0310 H         1 UNK         0.3000 
    221 H221       -7.1653  -19.7694  -51.6906 H         1 UNK         0.0600 
    222 H222       -8.7675  -21.4285  -52.7332 H         1 UNK         0.0600 
    223 H223       -7.4009  -22.2916  -53.4337 H         1 UNK         0.0600 
    224 H224       -7.7583  -20.6440  -53.9366 H         1 UNK         0.0600 
    225 H225       -5.8466  -19.2075  -53.7262 H         1 UNK         0.3000 
    226 H226       -3.0166  -19.6326  -53.2467 H         1 UNK         0.0600 
    227 H227       -4.4841  -18.0686  -55.4275 H         1 UNK         0.0600 
    228 H228       -3.9292  -17.4153  -53.8858 H         1 UNK         0.0600 
    229 H229       -2.7630  -17.9780  -55.0682 H         1 UNK         0.0600 
    230 H230       -3.8455  -22.0889  -53.6274 H         1 UNK         0.3000 
    231 H231       -3.6081  -23.0595  -56.3742 H         1 UNK         0.0600 
    232 H232       -3.7580  -24.5136  -53.6797 H         1 UNK         0.0600 
    233 H233       -3.8655  -25.2761  -55.2619 H         1 UNK         0.0600 
    234 H234       -5.1160  -24.1569  -54.7398 H         1 UNK         0.0600 
    235 H235       -1.5356  -21.7449  -56.4608 H         1 UNK         0.3000 
    236 H236        0.6498  -21.5624  -56.7872 H         1 UNK         0.0600 
    237 H237        1.8917  -23.5641  -57.5249 H         1 UNK         0.0600 
    238 H238        0.7073  -24.6267  -56.7759 H         1 UNK         0.0600 
    239 H239        0.2560  -23.6270  -58.1564 H         1 UNK         0.0600 
    240 H240       -0.2891  -21.6836  -53.9853 H         1 UNK         0.3000 
    241 H241        0.4111  -21.5965  -51.8957 H         1 UNK         0.0600 
    242 H242        0.8160  -25.4097  -52.0548 H         1 UNK         0.3800 
    243 H243        0.0890  -24.3660  -53.2515 H         1 UNK         0.3800 
    244 H244        3.2673  -21.4973  -52.9801 H         1 UNK         0.0800 
    245 H245        2.8466  -21.2038  -51.3252 H         1 UNK         0.0800 
    246 H246        1.6297  -19.5155  -50.3751 H         1 UNK         0.0800 
    247 H247        2.6599  -18.1567  -50.7455 H         1 UNK         0.0800 
@<TRIPOS>BOND
     1    1    2 1    
     2    1  127 1    
     3    1  128 1    
     4    1  129 1    
     5    2    3 2    
     6    2    4 am   BACKBONE|DICT|INTERRES
     7    4    5 1    
     8    4  130 1    
     9    5    6 1    
    10    5   65 1    
    11    5  131 1    
    12    6    7 1    
    13    6  132 1    
    14    6  133 1    
    15    7    8 1    
    16    8    9 1    
    17    8  134 1    
    18    8  135 1    
    19    9   10 ar   
    20    9   14 ar   
    21   10   11 ar   
    22   10  136 1    
    23   11   12 ar   
    24   11  126 1    
    25   12   13 ar   
    26   12  137 1    
    27   13   14 ar   
    28   13   15 1    
    29   14  138 1    
    30   15   16 1    
    31   15  139 1    
    32   15  140 1    
    33   16   17 1    
    34   17   18 1    
    35   17  141 1    
    36   17  142 1    
    37   18   19 1    
    38   18   67 1    
    39   18  143 1    
    40   19   20 am   BACKBONE|DICT|INTERRES
    41   19  144 1    
    42   20   21 2    
    43   20   22 1    
    44   22   23 1    
    45   22   24 1    
    46   22  145 1    
    47   23  146 1    
    48   23  147 1    
    49   23  148 1    
    50   24   25 am   BACKBONE|DICT|INTERRES
    51   24  149 1    
    52   25   26 2    
    53   25   27 1    
    54   27   28 1    
    55   27   29 1    
    56   27  150 1    
    57   28  151 1    
    58   28  152 1    
    59   28  153 1    
    60   29   30 am   BACKBONE|DICT|INTERRES
    61   29  154 1    
    62   30   31 2    
    63   30   32 1    
    64   32   33 1    
    65   32   34 1    
    66   32  155 1    
    67   33  156 1    
    68   33  157 1    
    69   33  158 1    
    70   34   35 am   BACKBONE|DICT|INTERRES
    71   34  159 1    
    72   35   36 2    
    73   35   37 1    
    74   37   38 1    
    75   37   39 1    
    76   37  160 1    
    77   38  161 1    
    78   38  162 1    
    79   38  163 1    
    80   39   40 am   BACKBONE|DICT|INTERRES
    81   39  164 1    
    82   40   41 2    
    83   40   42 1    
    84   42   43 1    
    85   42   44 1    
    86   42  165 1    
    87   43  166 1    
    88   43  167 1    
    89   43  168 1    
    90   44   45 am   BACKBONE|DICT|INTERRES
    91   44  169 1    
    92   45   46 2    
    93   45   47 1    
    94   47   48 1    
    95   47   49 1    
    96   47  170 1    
    97   48  171 1    
    98   48  172 1    
    99   48  173 1    
   100   49   50 am   BACKBONE|DICT|INTERRES
   101   49  174 1    
   102   50   51 2    
   103   50   52 1    
   104   52   53 1    
   105   52   54 1    
   106   52  175 1    
   107   53  176 1    
   108   53  177 1    
   109   53  178 1    
   110   54   55 am   BACKBONE|DICT|INTERRES
   111   54  179 1    
   112   55   56 2    
   113   55   57 1    
   114   57   58 1    
   115   57   59 1    
   116   57  180 1    
   117   58  181 1    
   118   58  182 1    
   119   58  183 1    
   120   59   60 am   BACKBONE|DICT|INTERRES
   121   59  184 1    
   122   60   61 2    
   123   60   62 1    
   124   62   63 1    
   125   62   64 1    
   126   62  185 1    
   127   63  186 1    
   128   63  187 1    
   129   63  188 1    
   130   64   65 am   BACKBONE|DICT|INTERRES
   131   64  189 1    
   132   65   66 2    
   133   67   68 2    
   134   67   69 am   BACKBONE|DICT|INTERRES
   135   69   70 1    
   136   69  190 1    
   137   70   71 1    
   138   70   72 1    
   139   70  191 1    
   140   71  192 1    
   141   71  193 1    
   142   71  194 1    
   143   72   73 2    
   144   72   74 am   BACKBONE|DICT|INTERRES
   145   74   75 1    
   146   74  195 1    
   147   75   76 1    
   148   75   77 1    
   149   75  196 1    
   150   76  197 1    
   151   76  198 1    
   152   76  199 1    
   153   77   78 2    
   154   77   79 am   BACKBONE|DICT|INTERRES
   155   79   80 1    
   156   79  200 1    
   157   80   81 1    
   158   80   82 1    
   159   80  201 1    
   160   81  202 1    
   161   81  203 1    
   162   81  204 1    
   163   82   83 2    
   164   82   84 am   BACKBONE|DICT|INTERRES
   165   84   85 1    
   166   84  205 1    
   167   85   86 1    
   168   85   87 1    
   169   85  206 1    
   170   86  207 1    
   171   86  208 1    
   172   86  209 1    
   173   87   88 2    
   174   87   89 am   BACKBONE|DICT|INTERRES
   175   89   90 1    
   176   89  210 1    
   177   90   91 1    
   178   90   92 1    
   179   90  211 1    
   180   91  212 1    
   181   91  213 1    
   182   91  214 1    
   183   92   93 2    
   184   92   94 am   BACKBONE|DICT|INTERRES
   185   94   95 1    
   186   94  215 1    
   187   95   96 1    
   188   95   97 1    
   189   95  216 1    
   190   96  217 1    
   191   96  218 1    
   192   96  219 1    
   193   97   98 2    
   194   97   99 am   BACKBONE|DICT|INTERRES
   195   99  100 1    
   196   99  220 1    
   197  100  101 1    
   198  100  102 1    
   199  100  221 1    
   200  101  222 1    
   201  101  223 1    
   202  101  224 1    
   203  102  103 2    
   204  102  104 am   BACKBONE|DICT|INTERRES
   205  104  105 1    
   206  104  225 1    
   207  105  106 1    
   208  105  107 1    
   209  105  226 1    
   210  106  227 1    
   211  106  228 1    
   212  106  229 1    
   213  107  108 2    
   214  107  109 am   BACKBONE|DICT|INTERRES
   215  109  110 1    
   216  109  230 1    
   217  110  111 1    
   218  110  112 1    
   219  110  231 1    
   220  111  232 1    
   221  111  233 1    
   222  111  234 1    
   223  112  113 2    
   224  112  114 am   BACKBONE|DICT|INTERRES
   225  114  115 1    
   226  114  235 1    
   227  115  116 1    
   228  115  117 1    
   229  115  236 1    
   230  116  237 1    
   231  116  238 1    
   232  116  239 1    
   233  117  118 2    
   234  117  119 am   BACKBONE|DICT|INTERRES
   235  119  120 1    
   236  119  240 1    
   237  120  121 1    
   238  120  124 1    
   239  120  241 1    
   240  121  122 am   BACKBONE|DICT|INTERRES
   241  121  123 2    
   242  122  242 1    
   243  122  243 1    
   244  124  125 1    
   245  124  244 1    
   246  124  245 1    
   247  125  126 1    
   248  126  246 1    
   249  126  247 1    
@<TRIPOS>SUBSTRUCTURE
     1 UNK         1 GROUP             0       ****    0 ROOT    
