@<TRIPOS>MOLECULE
3R540
247   249    1
SMALL
USER_CHARGES


@<TRIPOS>ATOM
      1 CA         -1.3392   -9.5521  -46.6619 C.3       0 UNK        -0.1800 
      2 C          -0.5966  -10.8782  -46.5816 C.2       0 UNK         0.5000 
      3 O           0.6336  -10.8923  -46.6045 O.2       0 UNK        -0.5000 
      4 N          -1.3374  -11.9904  -46.4714 N.am      1 UNK        -0.5000 
      5 CA         -0.8292  -13.3708  -46.4185 C.3       1 UNK         0.1400 
      6 C6         -1.9835  -14.3984  -46.3073 C.3       23 UNK        -0.0398 
      7 S7         -3.1631  -14.3026  -47.6998 S.3       23 UNK        -0.2404 
      8 C8         -3.1030  -15.9927  -48.3751 C.3       23 UNK        -0.0205 
      9 C9         -2.0232  -16.1641  -49.4338 C.ar      23 UNK        -0.0193 
     10 C10        -2.3764  -16.3216  -50.7772 C.ar      23 UNK        -0.1150 
     11 C11        -1.3990  -16.5669  -51.7458 C.ar      23 UNK        -0.0193 
     12 C12        -0.0536  -16.6195  -51.3695 C.ar      23 UNK        -0.1150 
     13 C13         0.3150  -16.4352  -50.0344 C.ar      23 UNK        -0.0193 
     14 C14        -0.6748  -16.2134  -49.0724 C.ar      23 UNK        -0.1150 
     15 C15         1.7824  -16.4463  -49.6315 C.3       23 UNK        -0.0205 
     16 S16         2.4675  -18.1259  -49.4526 S.3       23 UNK        -0.2404 
     17 C17         1.5648  -18.7467  -47.9899 C.3       23 UNK        -0.0398 
     18 CA          1.1812  -20.2463  -48.0353 C.3       11 UNK         0.1400 
     19 N           0.4956  -20.6336  -46.7996 N.am      11 UNK        -0.5000 
     20 C           0.2708  -21.8988  -46.4147 C.2       10 UNK         0.5000 
     21 O           0.7700  -22.8715  -46.9792 O.2       10 UNK        -0.5000 
     22 CA         -0.6704  -22.1247  -45.2097 C.3       10 UNK         0.1400 
     23 CB          0.1427  -22.5131  -43.9689 C.3       10 UNK        -0.1800 
     24 N          -1.5129  -20.9701  -44.8789 N.am      10 UNK        -0.5000 
     25 C          -2.4509  -20.4493  -45.6829 C.2       9 UNK         0.5000 
     26 O          -2.7516  -20.9348  -46.7712 O.2       9 UNK        -0.5000 
     27 CA         -3.1325  -19.1431  -45.2333 C.3       9 UNK         0.1400 
     28 CB         -4.4971  -19.4408  -44.5965 C.3       9 UNK        -0.1800 
     29 N          -2.3415  -18.3313  -44.3047 N.am      9 UNK        -0.5000 
     30 C          -1.1097  -17.8495  -44.5226 C.2       8 UNK         0.5000 
     31 O          -0.4703  -18.0562  -45.5535 O.2       8 UNK        -0.5000 
     32 CA         -0.4828  -17.0017  -43.4002 C.3       8 UNK         0.1400 
     33 CB         -1.5237  -16.2269  -42.5645 C.3       8 UNK        -0.1800 
     34 N           0.4073  -17.7566  -42.5155 N.am      8 UNK        -0.5000 
     35 C           0.1564  -18.8906  -41.8390 C.2       7 UNK         0.5000 
     36 O          -0.8664  -19.5626  -41.9796 O.2       7 UNK        -0.5000 
     37 CA          1.2182  -19.3588  -40.8170 C.3       7 UNK         0.1400 
     38 CB          1.9133  -20.6440  -41.2883 C.3       7 UNK        -0.1800 
     39 N           2.2441  -18.3540  -40.5338 N.am      7 UNK        -0.5000 
     40 C           2.0658  -17.2488  -39.7962 C.2       6 UNK         0.5000 
     41 O           1.0273  -16.9949  -39.1852 O.2       6 UNK        -0.5000 
     42 CA          3.2361  -16.2429  -39.7594 C.3       6 UNK         0.1400 
     43 CB          4.0296  -16.3898  -38.4517 C.3       6 UNK        -0.1800 
     44 N           4.1629  -16.3504  -40.8949 N.am      6 UNK        -0.5000 
     45 C           3.8316  -16.1445  -42.1764 C.2       5 UNK         0.5000 
     46 O           2.6843  -15.9002  -42.5568 O.2       5 UNK        -0.5000 
     47 CA          4.9476  -16.3000  -43.2135 C.3       5 UNK         0.1400 
     48 CB          5.0321  -17.7613  -43.6951 C.3       5 UNK        -0.1800 
     49 N           4.6430  -15.4138  -44.3289 N.am      5 UNK        -0.5000 
     50 C           5.4929  -15.0276  -45.2857 C.2       4 UNK         0.5000 
     51 O           6.6649  -15.3996  -45.3590 O.2       4 UNK        -0.5000 
     52 CA          4.9373  -14.0404  -46.3260 C.3       4 UNK         0.1400 
     53 CB          4.0861  -14.7801  -47.3667 C.3       4 UNK        -0.1800 
     54 N           4.1347  -12.9878  -45.7006 N.am      4 UNK        -0.5000 
     55 C           4.6532  -11.9440  -45.0357 C.2       3 UNK         0.5000 
     56 O           5.8630  -11.7433  -44.9208 O.2       3 UNK        -0.5000 
     57 CA          3.6658  -10.9518  -44.3909 C.3       3 UNK         0.1400 
     58 CB          3.4634   -9.7277  -45.2972 C.3       3 UNK        -0.1800 
     59 N           2.3679  -11.5599  -44.0924 N.am      3 UNK        -0.5000 
     60 C           2.1532  -12.3879  -43.0581 C.2       2 UNK         0.5000 
     61 O           3.0179  -12.6629  -42.2257 O.2       2 UNK        -0.5000 
     62 CA          0.7505  -13.0153  -42.9143 C.3       2 UNK         0.1400 
     63 CB         -0.0203  -12.3561  -41.7604 C.3       2 UNK        -0.1800 
     64 N          -0.0709  -12.9508  -44.1240 N.am      2 UNK        -0.5000 
     65 C           0.1796  -13.5974  -45.2716 C.2       1 UNK         0.5000 
     66 O           1.1631  -14.3155  -45.4526 O.2       1 UNK        -0.5000 
     67 C           0.3365  -20.6164  -49.2795 C.2       11 UNK         0.5000 
     68 O           0.8970  -21.0296  -50.2946 O.2       11 UNK        -0.5000 
     69 N          -0.9962  -20.5284  -49.1675 N.am      12 UNK        -0.5000 
     70 CA         -1.9579  -20.8495  -50.2196 C.3       12 UNK         0.1400 
     71 CB         -3.1820  -19.9362  -50.0554 C.3       12 UNK        -0.1800 
     72 C          -2.3221  -22.3475  -50.1975 C.2       12 UNK         0.5000 
     73 O          -3.4992  -22.7039  -50.0956 O.2       12 UNK        -0.5000 
     74 N          -1.2939  -23.2018  -50.2948 N.am      13 UNK        -0.5000 
     75 CA         -1.3577  -24.6655  -50.2751 C.3       13 UNK         0.1400 
     76 CB         -1.9636  -25.1888  -51.5987 C.3       13 UNK        -0.1800 
     77 C          -2.0583  -25.1911  -49.0019 C.2       13 UNK         0.5000 
     78 O          -1.6288  -24.8599  -47.8950 O.2       13 UNK        -0.5000 
     79 N          -3.1223  -25.9875  -49.1661 N.am      14 UNK        -0.5000 
     80 CA         -3.9534  -26.5209  -48.0889 C.3       14 UNK         0.1400 
     81 CB         -4.7565  -27.7206  -48.6212 C.3       14 UNK        -0.1800 
     82 C          -4.8593  -25.4314  -47.4802 C.2       14 UNK         0.5000 
     83 O          -6.0603  -25.4007  -47.7544 O.2       14 UNK        -0.5000 
     84 N          -4.2489  -24.5436  -46.6840 N.am      15 UNK        -0.5000 
     85 CA         -4.8704  -23.5281  -45.8251 C.3       15 UNK         0.1400 
     86 CB         -5.5199  -24.2121  -44.6048 C.3       15 UNK        -0.1800 
     87 C          -5.8442  -22.5765  -46.5551 C.2       15 UNK         0.5000 
     88 O          -6.8646  -22.1896  -45.9833 O.2       15 UNK        -0.5000 
     89 N          -5.5255  -22.2411  -47.8141 N.am      16 UNK        -0.5000 
     90 CA         -6.3046  -21.4116  -48.7413 C.3       16 UNK         0.1400 
     91 CB         -6.5047  -19.9848  -48.1857 C.3       16 UNK        -0.1800 
     92 C          -7.6310  -22.0432  -49.2150 C.2       16 UNK         0.5000 
     93 O          -8.3765  -21.3827  -49.9400 O.2       16 UNK        -0.5000 
     94 N          -7.9025  -23.3040  -48.8452 N.am      17 UNK        -0.5000 
     95 CA         -9.0545  -24.0652  -49.3274 C.3       17 UNK         0.1400 
     96 CB         -9.3765  -25.2056  -48.3490 C.3       17 UNK        -0.1800 
     97 C          -8.7929  -24.6058  -50.7422 C.2       17 UNK         0.5000 
     98 O          -9.6795  -24.5368  -51.5943 O.2       17 UNK        -0.5000 
     99 N          -7.5694  -25.1053  -50.9702 N.am      18 UNK        -0.5000 
    100 CA        -7.0918  -25.5259  -52.2861 C.3       18 UNK         0.1400 
    101 CB        -5.9591  -26.5529  -52.1289 C.3       18 UNK        -0.1800 
    102 C         -6.6248  -24.3217  -53.1193 C.2       18 UNK         0.5000 
    103 O         -7.0447  -24.1816  -54.2677 O.2       18 UNK        -0.5000 
    104 N         -5.7511  -23.4905  -52.5245 N.am      19 UNK        -0.5000 
    105 CA        -5.1276  -22.2923  -53.1079 C.3       19 UNK         0.1400 
    106 CB        -6.1788  -21.1905  -53.3482 C.3       19 UNK        -0.1800 
    107 C         -4.2561  -22.5646  -54.3560 C.2       19 UNK         0.5000 
    108 O         -3.9532  -21.6346  -55.1033 O.2       19 UNK        -0.5000 
    109 N         -3.8415  -23.8259  -54.5528 N.am      20 UNK        -0.5000 
    110 CA        -3.1041  -24.3103  -55.7249 C.3       20 UNK         0.1400 
    111 CB        -2.9529  -25.8356  -55.6195 C.3       20 UNK        -0.1800 
    112 C         -1.7294  -23.6438  -55.9205 C.2       20 UNK         0.5000 
    113 O         -1.2949  -23.4566  -57.0579 O.2       20 UNK        -0.5000 
    114 N         -1.0931  -23.2591  -54.8061 N.am      21 UNK        -0.5000 
    115 CA         0.1811  -22.5399  -54.7635 C.3       21 UNK         0.1400 
    116 CB         0.6764  -22.5121  -53.3108 C.3       21 UNK        -0.1800 
    117 C          0.1047  -21.1077  -55.3327 C.2       21 UNK         0.5000 
    118 O          1.1390  -20.5571  -55.7132 O.2       21 UNK        -0.5000 
    119 N         -1.1053  -20.5361  -55.3888 N.am      22 UNK        -0.5000 
    120 CA        -1.3826  -19.2039  -55.9469 C.3       22 UNK         0.1400 
    121 C         -1.5439  -19.1944  -57.4963 C.2       22 UNK         0.5000 
    122 N         -1.5213  -20.3325  -58.1824 N.am      22 UNK        -0.7600 
    123 O         -1.6799  -18.1291  -58.0923 O.2       22 UNK        -0.5000 
    124 C124       -2.5957  -18.5291  -55.2535 C.3       23 UNK        -0.0398 
    125 S125       -2.4326  -18.4785  -53.4355 S.3       23 UNK        -0.2404 
    126 C126       -1.8020  -16.7908  -53.1937 C.3       23 UNK        -0.0205 
    127 H127       -1.0424   -8.9054  -45.8357 H         1 UNK         0.0600 
    128 H128       -2.4202   -9.6892  -46.6159 H         1 UNK         0.0600 
    129 H129       -1.0988   -9.0448  -47.5966 H         1 UNK         0.0600 
    130 H130       -2.3446  -11.9070  -46.4765 H         1 UNK         0.3000 
    131 H131       -0.2952  -13.5534  -47.3541 H         1 UNK         0.0600 
    132 H132       -1.5871  -15.4118  -46.2366 H         1 UNK         0.0800 
    133 H133       -2.5483  -14.2379  -45.3862 H         1 UNK         0.0800 
    134 H134       -4.0814  -16.2228  -48.7999 H         1 UNK         0.0800 
    135 H135       -2.9517  -16.7170  -47.5751 H         1 UNK         0.0800 
    136 H136       -3.4171  -16.2930  -51.0683 H         1 UNK         0.1150 
    137 H137        0.7082  -16.8053  -52.1136 H         1 UNK         0.1150 
    138 H138       -0.3913  -16.0876  -48.0383 H         1 UNK         0.1150 
    139 H139        1.9111  -15.9054  -48.6952 H         1 UNK         0.0800 
    140 H140        2.3669  -15.9054  -50.3770 H         1 UNK         0.0800 
    141 H141        0.6648  -18.1550  -47.8469 H         1 UNK         0.0800 
    142 H142        2.1854  -18.5529  -47.1138 H         1 UNK         0.0800 
    143 H143        2.1077  -20.8214  -48.0941 H         1 UNK         0.0600 
    144 H144        0.0780  -19.8773  -46.2667 H         1 UNK         0.3000 
    145 H145       -1.3306  -22.9565  -45.4647 H         1 UNK         0.0600 
    146 H146       -0.5000  -22.6761  -43.1036 H         1 UNK         0.0600 
    147 H147        0.7015  -23.4341  -44.1395 H         1 UNK         0.0600 
    148 H148        0.8626  -21.7351  -43.7176 H         1 UNK         0.0600 
    149 H149       -1.3274  -20.5068  -43.9969 H         1 UNK         0.3000 
    150 H150       -3.2996  -18.5453  -46.1302 H         1 UNK         0.0600 
    151 H151       -4.3969  -20.0436  -43.6929 H         1 UNK         0.0600 
    152 H152       -5.1401  -19.9862  -45.2871 H         1 UNK         0.0600 
    153 H153       -5.0196  -18.5212  -44.3324 H         1 UNK         0.0600 
    154 H154       -2.7595  -18.1550  -43.4026 H         1 UNK         0.3000 
    155 H155        0.1493  -16.2666  -43.8977 H         1 UNK         0.0600 
    156 H156       -2.1373  -16.8884  -41.9521 H         1 UNK         0.0600 
    157 H157       -2.1906  -15.6459  -43.2028 H         1 UNK         0.0600 
    158 H158       -1.0326  -15.5248  -41.8906 H         1 UNK         0.0600 
    159 H159        1.2998  -17.3006  -42.3545 H         1 UNK         0.3000 
    160 H160        0.6927  -19.5812  -39.8859 H         1 UNK         0.0600 
    161 H161        2.4146  -20.5038  -42.2468 H         1 UNK         0.0600 
    162 H162        1.1930  -21.4546  -41.3993 H         1 UNK         0.0600 
    163 H163        2.6581  -20.9781  -40.5657 H         1 UNK         0.0600 
    164 H164        3.1365  -18.4803  -40.9876 H         1 UNK         0.3000 
    165 H165        2.7997  -15.2416  -39.7848 H         1 UNK         0.0600 
    166 H166        4.8007  -15.6235  -38.3694 H         1 UNK         0.0600 
    167 H167        4.5141  -17.3649  -38.3825 H         1 UNK         0.0600 
    168 H168        3.3770  -16.2850  -37.5834 H         1 UNK         0.0600 
    169 H169        5.1225  -16.5687  -40.6668 H         1 UNK         0.3000 
    170 H170        5.8963  -15.9985  -42.7647 H         1 UNK         0.0600 
    171 H171        5.2298  -18.4383  -42.8627 H         1 UNK         0.0600 
    172 H172        4.1019  -18.0816  -44.1669 H         1 UNK         0.0600 
    173 H173        5.8366  -17.8985  -44.4179 H         1 UNK         0.0600 
    174 H174        3.6954  -15.0541  -44.3229 H         1 UNK         0.3000 
    175 H175        5.7809  -13.5792  -46.8446 H         1 UNK         0.0600 
    176 H176        3.2423  -15.2890  -46.8996 H         1 UNK         0.0600 
    177 H177        3.6943  -14.0943  -48.1181 H         1 UNK         0.0600 
    178 H178        4.6748  -15.5358  -47.8887 H         1 UNK         0.0600 
    179 H179        3.1296  -13.1012  -45.7283 H         1 UNK         0.3000 
    180 H180        4.1086  -10.6041  -43.4550 H         1 UNK         0.0600 
    181 H181        3.0991  -10.0123  -46.2846 H         1 UNK         0.0600 
    182 H182        4.4026   -9.1920  -45.4404 H         1 UNK         0.0600 
    183 H183        2.7508   -9.0255  -44.8639 H         1 UNK         0.0600 
    184 H184        1.6221  -11.3845  -44.7560 H         1 UNK         0.3000 
    185 H185        0.8904  -14.0677  -42.6657 H         1 UNK         0.0600 
    186 H186       -0.9794  -12.8473  -41.5941 H         1 UNK         0.0600 
    187 H187        0.5411  -12.4217  -40.8274 H         1 UNK         0.0600 
    188 H188       -0.2108  -11.3000  -41.9559 H         1 UNK         0.0600 
    189 H189       -0.8838  -12.3529  -44.0819 H         1 UNK         0.3000 
    190 H190       -1.3999  -20.3215  -48.2622 H         1 UNK         0.3000 
    191 H191       -1.5177  -20.6330  -51.1950 H         1 UNK         0.0600 
    192 H192       -3.9123  -20.1018  -50.8472 H         1 UNK         0.0600 
    193 H193       -2.8928  -18.8892  -50.1004 H         1 UNK         0.0600 
    194 H194       -3.6760  -20.0996  -49.0998 H         1 UNK         0.0600 
    195 H195       -0.3640  -22.8003  -50.3213 H         1 UNK         0.3000 
    196 H196       -0.3274  -25.0197  -50.2193 H         1 UNK         0.0600 
    197 H197       -2.9839  -24.8378  -51.7525 H         1 UNK         0.0600 
    198 H198       -1.3692  -24.8596  -52.4497 H         1 UNK         0.0600 
    199 H199       -1.9727  -26.2791  -51.6298 H         1 UNK         0.0600 
    200 H200       -3.4160  -26.2029  -50.1059 H         1 UNK         0.3000 
    201 H201       -3.3010  -26.8910  -47.2950 H         1 UNK         0.0600 
    202 H202       -5.4498  -27.4293  -49.4090 H         1 UNK         0.0600 
    203 H203       -5.3451  -28.1763  -47.8240 H         1 UNK         0.0600 
    204 H204       -4.0984  -28.4928  -49.0201 H         1 UNK         0.0600 
    205 H205       -3.2355  -24.5902  -46.6511 H         1 UNK         0.3000 
    206 H206       -4.0582  -22.9057  -45.4521 H         1 UNK         0.0600 
    207 H207       -4.8067  -24.8523  -44.0854 H         1 UNK         0.0600 
    208 H208       -5.8755  -23.4759  -43.8828 H         1 UNK         0.0600 
    209 H209       -6.3727  -24.8267  -44.8958 H         1 UNK         0.0600 
    210 H210       -4.6649  -22.6108  -48.2023 H         1 UNK         0.3000 
    211 H211       -5.6980  -21.3263  -49.6419 H         1 UNK         0.0600 
    212 H212       -6.8837  -19.3160  -48.9592 H         1 UNK         0.0600 
    213 H213       -5.5686  -19.5613  -47.8227 H         1 UNK         0.0600 
    214 H214       -7.2199  -19.9656  -47.3631 H         1 UNK         0.0600 
    215 H215       -7.2387  -23.8040  -48.2629 H         1 UNK         0.3000 
    216 H216       -9.9238  -23.4050  -49.3686 H         1 UNK         0.0600 
    217 H217       -8.5762  -25.9446  -48.3041 H         1 UNK         0.0600 
    218 H218      -10.2848  -25.7285  -48.6503 H         1 UNK         0.0600 
    219 H219       -9.5385  -24.8257  -47.3400 H         1 UNK         0.0600 
    220 H220       -6.9168  -25.1420  -50.2002 H         1 UNK         0.3000 
    221 H221       -7.9077  -26.0121  -52.8257 H         1 UNK         0.0600 
    222 H222       -6.3211  -27.4596  -51.6442 H         1 UNK         0.0600 
    223 H223       -5.1319  -26.1613  -51.5378 H         1 UNK         0.0600 
    224 H224       -5.5596  -26.8470  -53.1006 H         1 UNK         0.0600 
    225 H225       -5.4650  -23.6954  -51.5774 H         1 UNK         0.3000 
    226 H226       -4.4380  -21.9114  -52.3575 H         1 UNK         0.0600 
    227 H227       -6.8748  -21.4609  -54.1425 H         1 UNK         0.0600 
    228 H228       -6.7581  -20.9962  -52.4453 H         1 UNK         0.0600 
    229 H229       -5.7039  -20.2511  -53.6346 H         1 UNK         0.0600 
    230 H230       -4.1435  -24.5265  -53.8939 H         1 UNK         0.3000 
    231 H231       -3.7048  -24.0846  -56.6086 H         1 UNK         0.0600 
    232 H232       -2.3888  -26.1247  -54.7315 H         1 UNK         0.0600 
    233 H233       -2.4280  -26.2374  -56.4873 H         1 UNK         0.0600 
    234 H234       -3.9255  -26.3266  -55.5744 H         1 UNK         0.0600 
    235 H235       -1.5402  -23.4400  -53.9209 H         1 UNK         0.3000 
    236 H236        0.9044  -23.0947  -55.3647 H         1 UNK         0.0600 
    237 H237        0.8064  -23.5190  -52.9137 H         1 UNK         0.0600 
    238 H238        1.6397  -22.0060  -53.2327 H         1 UNK         0.0600 
    239 H239       -0.0233  -21.9815  -52.6656 H         1 UNK         0.0600 
    240 H240       -1.9206  -21.0601  -55.0940 H         1 UNK         0.3000 
    241 H241       -0.5158  -18.5722  -55.7437 H         1 UNK         0.0600 
    242 H242       -1.6213  -20.3080  -59.1850 H         1 UNK         0.3800 
    243 H243       -1.4066  -21.2200  -57.7121 H         1 UNK         0.3800 
    244 H244       -3.5157  -19.0636  -55.4937 H         1 UNK         0.0800 
    245 H245       -2.7361  -17.5128  -55.6263 H         1 UNK         0.0800 
    246 H246       -2.5682  -16.0692  -53.4808 H         1 UNK         0.0800 
    247 H247       -0.9504  -16.6223  -53.8546 H         1 UNK         0.0800 
@<TRIPOS>BOND
     1    1    2 1    
     2    1  127 1    
     3    1  128 1    
     4    1  129 1    
     5    2    3 2    
     6    2    4 am   BACKBONE|DICT|INTERRES
     7    4    5 1    
     8    4  130 1    
     9    5    6 1    
    10    5   65 1    
    11    5  131 1    
    12    6    7 1    
    13    6  132 1    
    14    6  133 1    
    15    7    8 1    
    16    8    9 1    
    17    8  134 1    
    18    8  135 1    
    19    9   10 ar   
    20    9   14 ar   
    21   10   11 ar   
    22   10  136 1    
    23   11   12 ar   
    24   11  126 1    
    25   12   13 ar   
    26   12  137 1    
    27   13   14 ar   
    28   13   15 1    
    29   14  138 1    
    30   15   16 1    
    31   15  139 1    
    32   15  140 1    
    33   16   17 1    
    34   17   18 1    
    35   17  141 1    
    36   17  142 1    
    37   18   19 1    
    38   18   67 1    
    39   18  143 1    
    40   19   20 am   BACKBONE|DICT|INTERRES
    41   19  144 1    
    42   20   21 2    
    43   20   22 1    
    44   22   23 1    
    45   22   24 1    
    46   22  145 1    
    47   23  146 1    
    48   23  147 1    
    49   23  148 1    
    50   24   25 am   BACKBONE|DICT|INTERRES
    51   24  149 1    
    52   25   26 2    
    53   25   27 1    
    54   27   28 1    
    55   27   29 1    
    56   27  150 1    
    57   28  151 1    
    58   28  152 1    
    59   28  153 1    
    60   29   30 am   BACKBONE|DICT|INTERRES
    61   29  154 1    
    62   30   31 2    
    63   30   32 1    
    64   32   33 1    
    65   32   34 1    
    66   32  155 1    
    67   33  156 1    
    68   33  157 1    
    69   33  158 1    
    70   34   35 am   BACKBONE|DICT|INTERRES
    71   34  159 1    
    72   35   36 2    
    73   35   37 1    
    74   37   38 1    
    75   37   39 1    
    76   37  160 1    
    77   38  161 1    
    78   38  162 1    
    79   38  163 1    
    80   39   40 am   BACKBONE|DICT|INTERRES
    81   39  164 1    
    82   40   41 2    
    83   40   42 1    
    84   42   43 1    
    85   42   44 1    
    86   42  165 1    
    87   43  166 1    
    88   43  167 1    
    89   43  168 1    
    90   44   45 am   BACKBONE|DICT|INTERRES
    91   44  169 1    
    92   45   46 2    
    93   45   47 1    
    94   47   48 1    
    95   47   49 1    
    96   47  170 1    
    97   48  171 1    
    98   48  172 1    
    99   48  173 1    
   100   49   50 am   BACKBONE|DICT|INTERRES
   101   49  174 1    
   102   50   51 2    
   103   50   52 1    
   104   52   53 1    
   105   52   54 1    
   106   52  175 1    
   107   53  176 1    
   108   53  177 1    
   109   53  178 1    
   110   54   55 am   BACKBONE|DICT|INTERRES
   111   54  179 1    
   112   55   56 2    
   113   55   57 1    
   114   57   58 1    
   115   57   59 1    
   116   57  180 1    
   117   58  181 1    
   118   58  182 1    
   119   58  183 1    
   120   59   60 am   BACKBONE|DICT|INTERRES
   121   59  184 1    
   122   60   61 2    
   123   60   62 1    
   124   62   63 1    
   125   62   64 1    
   126   62  185 1    
   127   63  186 1    
   128   63  187 1    
   129   63  188 1    
   130   64   65 am   BACKBONE|DICT|INTERRES
   131   64  189 1    
   132   65   66 2    
   133   67   68 2    
   134   67   69 am   BACKBONE|DICT|INTERRES
   135   69   70 1    
   136   69  190 1    
   137   70   71 1    
   138   70   72 1    
   139   70  191 1    
   140   71  192 1    
   141   71  193 1    
   142   71  194 1    
   143   72   73 2    
   144   72   74 am   BACKBONE|DICT|INTERRES
   145   74   75 1    
   146   74  195 1    
   147   75   76 1    
   148   75   77 1    
   149   75  196 1    
   150   76  197 1    
   151   76  198 1    
   152   76  199 1    
   153   77   78 2    
   154   77   79 am   BACKBONE|DICT|INTERRES
   155   79   80 1    
   156   79  200 1    
   157   80   81 1    
   158   80   82 1    
   159   80  201 1    
   160   81  202 1    
   161   81  203 1    
   162   81  204 1    
   163   82   83 2    
   164   82   84 am   BACKBONE|DICT|INTERRES
   165   84   85 1    
   166   84  205 1    
   167   85   86 1    
   168   85   87 1    
   169   85  206 1    
   170   86  207 1    
   171   86  208 1    
   172   86  209 1    
   173   87   88 2    
   174   87   89 am   BACKBONE|DICT|INTERRES
   175   89   90 1    
   176   89  210 1    
   177   90   91 1    
   178   90   92 1    
   179   90  211 1    
   180   91  212 1    
   181   91  213 1    
   182   91  214 1    
   183   92   93 2    
   184   92   94 am   BACKBONE|DICT|INTERRES
   185   94   95 1    
   186   94  215 1    
   187   95   96 1    
   188   95   97 1    
   189   95  216 1    
   190   96  217 1    
   191   96  218 1    
   192   96  219 1    
   193   97   98 2    
   194   97   99 am   BACKBONE|DICT|INTERRES
   195   99  100 1    
   196   99  220 1    
   197  100  101 1    
   198  100  102 1    
   199  100  221 1    
   200  101  222 1    
   201  101  223 1    
   202  101  224 1    
   203  102  103 2    
   204  102  104 am   BACKBONE|DICT|INTERRES
   205  104  105 1    
   206  104  225 1    
   207  105  106 1    
   208  105  107 1    
   209  105  226 1    
   210  106  227 1    
   211  106  228 1    
   212  106  229 1    
   213  107  108 2    
   214  107  109 am   BACKBONE|DICT|INTERRES
   215  109  110 1    
   216  109  230 1    
   217  110  111 1    
   218  110  112 1    
   219  110  231 1    
   220  111  232 1    
   221  111  233 1    
   222  111  234 1    
   223  112  113 2    
   224  112  114 am   BACKBONE|DICT|INTERRES
   225  114  115 1    
   226  114  235 1    
   227  115  116 1    
   228  115  117 1    
   229  115  236 1    
   230  116  237 1    
   231  116  238 1    
   232  116  239 1    
   233  117  118 2    
   234  117  119 am   BACKBONE|DICT|INTERRES
   235  119  120 1    
   236  119  240 1    
   237  120  121 1    
   238  120  124 1    
   239  120  241 1    
   240  121  122 am   BACKBONE|DICT|INTERRES
   241  121  123 2    
   242  122  242 1    
   243  122  243 1    
   244  124  125 1    
   245  124  244 1    
   246  124  245 1    
   247  125  126 1    
   248  126  246 1    
   249  126  247 1    
@<TRIPOS>SUBSTRUCTURE
     1 UNK         1 GROUP             0       ****    0 ROOT    
