@<TRIPOS>MOLECULE
3R540
247   249    1
SMALL
USER_CHARGES


@<TRIPOS>ATOM
      1 CA         -3.1483  -16.4302  -45.5745 C.3       0 UNK        -0.1800 
      2 C          -3.0052  -14.9476  -45.8786 C.2       0 UNK         0.5000 
      3 O          -3.2778  -14.1212  -45.0088 O.2       0 UNK        -0.5000 
      4 N          -2.5622  -14.6154  -47.0994 N.am      1 UNK        -0.5000 
      5 CA         -2.4853  -13.2603  -47.6710 C.3       1 UNK         0.1400 
      6 C6         -1.9366  -13.2804  -49.1185 C.3       23 UNK        -0.0398 
      7 S7         -2.9470  -14.3033  -50.2406 S.3       23 UNK        -0.2404 
      8 C8         -1.7962  -14.5693  -51.6271 C.3       23 UNK        -0.0205 
      9 C9         -1.1639  -15.9566  -51.6197 C.ar      23 UNK        -0.0193 
     10 C10        -1.5357  -16.9008  -52.5839 C.ar      23 UNK        -0.1150 
     11 C11        -0.9081  -18.1491  -52.6439 C.ar      23 UNK        -0.0193 
     12 C12         0.1198  -18.4299  -51.7436 C.ar      23 UNK        -0.1150 
     13 C13         0.4390  -17.5415  -50.7132 C.ar      23 UNK        -0.0193 
     14 C14        -0.1900  -16.2934  -50.6736 C.ar      23 UNK        -0.1150 
     15 C15         1.4472  -17.9242  -49.6311 C.3       23 UNK        -0.0205 
     16 S16         1.3814  -19.6857  -49.1282 S.3       23 UNK        -0.2404 
     17 C17        -0.3984  -19.9256  -48.7941 C.3       23 UNK        -0.0398 
     18 CA         -0.7224  -21.3115  -48.1863 C.3       11 UNK         0.1400 
     19 N           0.0026  -21.5672  -46.9367 N.am      11 UNK        -0.5000 
     20 C           0.0447  -22.7443  -46.2964 C.2       10 UNK         0.5000 
     21 O          -0.4977  -23.7664  -46.7102 O.2       10 UNK        -0.5000 
     22 CA          0.7635  -22.7694  -44.9354 C.3       10 UNK         0.1400 
     23 CB          2.2788  -22.9324  -45.1234 C.3       10 UNK        -0.1800 
     24 N           0.4872  -21.5655  -44.1500 N.am      10 UNK        -0.5000 
     25 C          -0.7146  -21.2752  -43.6247 C.2       9 UNK         0.5000 
     26 O          -1.6778  -22.0394  -43.6763 O.2       9 UNK        -0.5000 
     27 CA         -0.8951  -19.8773  -42.9942 C.3       9 UNK         0.1400 
     28 CB         -0.6021  -19.9146  -41.4880 C.3       9 UNK        -0.1800 
     29 N          -0.0559  -18.8561  -43.6213 N.am      9 UNK        -0.5000 
     30 C          -0.1055  -18.5153  -44.9161 C.2       8 UNK         0.5000 
     31 O          -0.9766  -18.9207  -45.6831 O.2       8 UNK        -0.5000 
     32 CA          1.0369  -17.6384  -45.4624 C.3       8 UNK         0.1400 
     33 CB          0.5281  -16.2459  -45.8599 C.3       8 UNK        -0.1800 
     34 N           2.1600  -17.5112  -44.5290 N.am      8 UNK        -0.5000 
     35 C           3.0284  -18.4955  -44.2458 C.2       7 UNK         0.5000 
     36 O           2.9264  -19.6278  -44.7196 O.2       7 UNK        -0.5000 
     37 CA          4.1460  -18.1955  -43.2230 C.3       7 UNK         0.1400 
     38 CB          5.4549  -18.9490  -43.5363 C.3       7 UNK        -0.1800 
     39 N           4.3879  -16.7638  -43.0154 N.am      7 UNK        -0.5000 
     40 C           4.8559  -15.8706  -43.9015 C.2       6 UNK         0.5000 
     41 O           5.2419  -16.1682  -45.0322 O.2       6 UNK        -0.5000 
     42 CA          4.8538  -14.3887  -43.4749 C.3       6 UNK         0.1400 
     43 CB          4.0993  -13.5411  -44.5073 C.3       6 UNK        -0.1800 
     44 N           4.2132  -14.1913  -42.1734 N.am      6 UNK        -0.5000 
     45 C           4.8595  -14.0205  -41.0130 C.2       5 UNK         0.5000 
     46 O           6.0848  -13.9495  -40.9134 O.2       5 UNK        -0.5000 
     47 CA          3.9907  -13.9489  -39.7404 C.3       5 UNK         0.1400 
     48 CB          3.6158  -12.4919  -39.4299 C.3       5 UNK        -0.1800 
     49 N           2.7641  -14.7469  -39.8223 N.am      5 UNK        -0.5000 
     50 C           2.7109  -16.0769  -39.9851 C.2       4 UNK         0.5000 
     51 O           3.7067  -16.7964  -40.0495 O.2       4 UNK        -0.5000 
     52 CA          1.3169  -16.7083  -40.1651 C.3       4 UNK         0.1400 
     53 CB          0.8120  -17.2795  -38.8319 C.3       4 UNK        -0.1800 
     54 N           0.3127  -15.7857  -40.7027 N.am      4 UNK        -0.5000 
     55 C           0.3646  -15.1914  -41.9030 C.2       3 UNK         0.5000 
     56 O           1.2768  -15.3898  -42.7110 O.2       3 UNK        -0.5000 
     57 CA         -0.8079  -14.2380  -42.2303 C.3       3 UNK         0.1400 
     58 CB         -1.1013  -13.2605  -41.0710 C.3       3 UNK        -0.1800 
     59 N          -0.6589  -13.4924  -43.4851 N.am      3 UNK        -0.5000 
     60 C           0.3025  -12.6139  -43.8147 C.2       2 UNK         0.5000 
     61 O           1.2418  -12.3140  -43.0759 O.2       2 UNK        -0.5000 
     62 CA          0.1682  -11.9369  -45.1949 C.3       2 UNK         0.1400 
     63 CB          1.5168  -11.6487  -45.8772 C.3       2 UNK        -0.1800 
     64 N          -0.6663  -12.7255  -46.1032 N.am      2 UNK        -0.5000 
     65 C          -1.6833  -12.2442  -46.8274 C.2       1 UNK         0.5000 
     66 O          -2.0083  -11.0561  -46.8478 O.2       1 UNK        -0.5000 
     67 C          -2.2447  -21.4584  -47.9898 C.2       11 UNK         0.5000 
     68 O          -2.9232  -22.0404  -48.8408 O.2       11 UNK        -0.5000 
     69 N          -2.7408  -20.9461  -46.8534 N.am      12 UNK        -0.5000 
     70 CA         -4.1277  -21.0677  -46.4115 C.3       12 UNK         0.1400 
     71 CB         -4.3602  -20.2031  -45.1651 C.3       12 UNK        -0.1800 
     72 C          -4.5382  -22.5287  -46.1632 C.2       12 UNK         0.5000 
     73 O          -5.5929  -22.9500  -46.6384 O.2       12 UNK        -0.5000 
     74 N          -3.6801  -23.2838  -45.4646 N.am      13 UNK        -0.5000 
     75 CA         -3.8583  -24.7138  -45.2126 C.3       13 UNK         0.1400 
     76 CB         -2.8028  -25.1894  -44.2026 C.3       13 UNK        -0.1800 
     77 C          -3.8061  -25.5633  -46.4971 C.2       13 UNK         0.5000 
     78 O          -4.5710  -26.5209  -46.6180 O.2       13 UNK        -0.5000 
     79 N          -2.9116  -25.1987  -47.4259 N.am      14 UNK        -0.5000 
     80 CA         -2.7164  -25.8745  -48.7051 C.3       14 UNK         0.1400 
     81 CB         -1.4103  -25.3951  -49.3552 C.3       14 UNK        -0.1800 
     82 C          -3.9024  -25.7030  -49.6680 C.2       14 UNK         0.5000 
     83 O          -4.4466  -26.7087  -50.1275 O.2       14 UNK        -0.5000 
     84 N          -4.2748  -24.4509  -49.9723 N.am      15 UNK        -0.5000 
     85 CA         -5.2752  -24.1442  -50.9981 C.3       15 UNK         0.1400 
     86 CB         -4.6726  -24.3330  -52.4042 C.3       15 UNK        -0.1800 
     87 C          -5.8989  -22.7523  -50.8082 C.2       15 UNK         0.5000 
     88 O          -6.0736  -22.0180  -51.7838 O.2       15 UNK        -0.5000 
     89 N          -6.2172  -22.4011  -49.5525 N.am      16 UNK        -0.5000 
     90 CA         -6.9345  -21.1861  -49.1308 C.3       16 UNK         0.1400 
     91 CB         -8.3821  -21.2103  -49.6653 C.3       16 UNK        -0.1800 
     92 C          -6.2236  -19.8570  -49.4715 C.2       16 UNK         0.5000 
     93 O          -6.8457  -18.7992  -49.3680 O.2       16 UNK        -0.5000 
     94 N          -4.9438  -19.9358  -49.8700 N.am      17 UNK        -0.5000 
     95 CA         -4.1132  -18.8573  -50.4088 C.3       17 UNK         0.1400 
     96 CB         -3.7220  -17.8743  -49.2876 C.3       17 UNK        -0.1800 
     97 C          -4.7578  -18.1787  -51.6418 C.2       17 UNK         0.5000 
     98 O          -4.6903  -16.9574  -51.7811 O.2       17 UNK        -0.5000 
     99 N          -5.4142  -18.9762  -52.4983 N.am      18 UNK        -0.5000 
    100 CA        -6.2386  -18.4857  -53.6025 C.3       18 UNK         0.1400 
    101 CB        -7.6159  -18.0449  -53.0628 C.3       18 UNK        -0.1800 
    102 C         -6.3430  -19.5266  -54.7306 C.2       18 UNK         0.5000 
    103 O         -7.4357  -19.7668  -55.2485 O.2       18 UNK        -0.5000 
    104 N         -5.2093  -20.1292  -55.1036 N.am      19 UNK        -0.5000 
    105 CA        -5.1022  -21.1165  -56.1758 C.3       19 UNK         0.1400 
    106 CB        -5.5376  -22.4967  -55.6459 C.3       19 UNK        -0.1800 
    107 C         -3.6554  -21.1610  -56.6900 C.2       19 UNK         0.5000 
    108 O         -2.7886  -20.4682  -56.1578 O.2       19 UNK        -0.5000 
    109 N         -3.3997  -22.0154  -57.6874 N.am      20 UNK        -0.5000 
    110 CA        -2.0438  -22.4014  -58.0954 C.3       20 UNK         0.1400 
    111 CB        -2.0883  -22.9103  -59.5446 C.3       20 UNK        -0.1800 
    112 C         -1.4414  -23.4783  -57.1647 C.2       20 UNK         0.5000 
    113 O         -0.2282  -23.6857  -57.1723 O.2       20 UNK        -0.5000 
    114 N         -2.3031  -24.1513  -56.3901 N.am      21 UNK        -0.5000 
    115 CA        -1.9959  -25.3019  -55.5414 C.3       21 UNK         0.1400 
    116 CB        -3.2466  -26.1980  -55.4895 C.3       21 UNK        -0.1800 
    117 C         -1.5050  -24.9371  -54.1235 C.2       21 UNK         0.5000 
    118 O         -1.4568  -25.8228  -53.2691 O.2       21 UNK        -0.5000 
    119 N         -1.1550  -23.6657  -53.8763 N.am      22 UNK        -0.5000 
    120 CA        -0.6520  -23.1801  -52.5756 C.3       22 UNK         0.1400 
    121 C          0.6984  -23.8050  -52.1037 C.2       22 UNK         0.5000 
    122 N          1.4849  -24.4321  -52.9702 N.am      22 UNK        -0.7600 
    123 O          1.0430  -23.7047  -50.9305 O.2       22 UNK        -0.5000 
    124 C124       -0.5298  -21.6374  -52.5135 C.3       23 UNK        -0.0398 
    125 S125       -2.0373  -20.7077  -52.9521 S.3       23 UNK        -0.2404 
    126 C126       -1.3300  -19.1823  -53.6846 C.3       23 UNK        -0.0205 
    127 H127       -4.1954  -16.6730  -45.3942 H         1 UNK         0.0600 
    128 H128       -2.5795  -16.6895  -44.6817 H         1 UNK         0.0600 
    129 H129       -2.7929  -17.0489  -46.3983 H         1 UNK         0.0600 
    130 H130       -2.3741  -15.3541  -47.7616 H         1 UNK         0.3000 
    131 H131       -3.5104  -12.8857  -47.7075 H         1 UNK         0.0600 
    132 H132       -0.9074  -13.6412  -49.1272 H         1 UNK         0.0800 
    133 H133       -1.9109  -12.2708  -49.5335 H         1 UNK         0.0800 
    134 H134       -2.3494  -14.4173  -52.5551 H         1 UNK         0.0800 
    135 H135       -1.0125  -13.8106  -51.6219 H         1 UNK         0.0800 
    136 H136       -2.3121  -16.6576  -53.2956 H         1 UNK         0.1150 
    137 H137        0.6477  -19.3664  -51.8098 H         1 UNK         0.1150 
    138 H138        0.0810  -15.5828  -49.9070 H         1 UNK         0.1150 
    139 H139        2.4513  -17.6990  -49.9922 H         1 UNK         0.0800 
    140 H140        1.2923  -17.3100  -48.7433 H         1 UNK         0.0800 
    141 H141       -0.7417  -19.1140  -48.1538 H         1 UNK         0.0800 
    142 H142       -0.9455  -19.8111  -49.7295 H         1 UNK         0.0800 
    143 H143       -0.4132  -22.0743  -48.9043 H         1 UNK         0.0600 
    144 H144        0.4572  -20.7707  -46.5167 H         1 UNK         0.3000 
    145 H145        0.3966  -23.6329  -44.3765 H         1 UNK         0.0600 
    146 H146        2.7960  -22.9606  -44.1642 H         1 UNK         0.0600 
    147 H147        2.5067  -23.8631  -45.6444 H         1 UNK         0.0600 
    148 H148        2.7040  -22.1177  -45.7105 H         1 UNK         0.0600 
    149 H149        1.2320  -20.8812  -44.0982 H         1 UNK         0.3000 
    150 H150       -1.9370  -19.5830  -43.1331 H         1 UNK         0.0600 
    151 H151       -1.2138  -20.6679  -40.9896 H         1 UNK         0.0600 
    152 H152       -0.8287  -18.9556  -41.0227 H         1 UNK         0.0600 
    153 H153        0.4429  -20.1518  -41.2844 H         1 UNK         0.0600 
    154 H154        0.6863  -18.4660  -43.0620 H         1 UNK         0.3000 
    155 H155        1.4099  -18.1267  -46.3646 H         1 UNK         0.0600 
    156 H156       -0.1901  -16.3197  -46.6768 H         1 UNK         0.0600 
    157 H157        1.3434  -15.6071  -46.2002 H         1 UNK         0.0600 
    158 H158        0.0323  -15.7486  -45.0279 H         1 UNK         0.0600 
    159 H159        2.2341  -16.6288  -44.0336 H         1 UNK         0.3000 
    160 H160        3.7780  -18.5732  -42.2683 H         1 UNK         0.0600 
    161 H161        6.2268  -18.7209  -42.8014 H         1 UNK         0.0600 
    162 H162        5.8441  -18.6973  -44.5230 H         1 UNK         0.0600 
    163 H163        5.2987  -20.0282  -43.5160 H         1 UNK         0.0600 
    164 H164        4.1347  -16.4201  -42.0971 H         1 UNK         0.3000 
    165 H165        5.8919  -14.0521  -43.4466 H         1 UNK         0.0600 
    166 H166        3.0740  -13.8936  -44.6227 H         1 UNK         0.0600 
    167 H167        4.0650  -12.4933  -44.2087 H         1 UNK         0.0600 
    168 H168        4.5775  -13.5855  -45.4864 H         1 UNK         0.0600 
    169 H169        3.2008  -14.2380  -42.1685 H         1 UNK         0.3000 
    170 H170        4.5864  -14.3365  -38.9114 H         1 UNK         0.0600 
    171 H171        4.5070  -11.8695  -39.3402 H         1 UNK         0.0600 
    172 H172        2.9922  -12.0619  -40.2153 H         1 UNK         0.0600 
    173 H173        3.0716  -12.4157  -38.4884 H         1 UNK         0.0600 
    174 H174        1.8937  -14.2374  -39.7912 H         1 UNK         0.3000 
    175 H175        1.4236  -17.5325  -40.8728 H         1 UNK         0.0600 
    176 H176        0.6784  -16.4968  -38.0841 H         1 UNK         0.0600 
    177 H177       -0.1421  -17.7921  -38.9541 H         1 UNK         0.0600 
    178 H178        1.5182  -18.0048  -38.4253 H         1 UNK         0.0600 
    179 H179       -0.4691  -15.5818  -40.0970 H         1 UNK         0.3000 
    180 H180       -1.6858  -14.8710  -42.3668 H         1 UNK         0.0600 
    181 H181       -0.2226  -12.6720  -40.8042 H         1 UNK         0.0600 
    182 H182       -1.4308  -13.7847  -40.1737 H         1 UNK         0.0600 
    183 H183       -1.8971  -12.5648  -41.3377 H         1 UNK         0.0600 
    184 H184       -1.4175  -13.6224  -44.1447 H         1 UNK         0.3000 
    185 H185       -0.3081  -10.9766  -44.9880 H         1 UNK         0.0600 
    186 H186        2.1991  -11.1174  -45.2130 H         1 UNK         0.0600 
    187 H187        2.0057  -12.5662  -46.2023 H         1 UNK         0.0600 
    188 H188        1.3774  -11.0229  -46.7588 H         1 UNK         0.0600 
    189 H189       -0.4689  -13.7143  -46.1482 H         1 UNK         0.3000 
    190 H190       -2.1129  -20.4248  -46.2491 H         1 UNK         0.3000 
    191 H191       -4.7567  -20.6721  -47.2051 H         1 UNK         0.0600 
    192 H192       -4.0597  -19.1710  -45.3402 H         1 UNK         0.0600 
    193 H193       -5.4159  -20.1939  -44.8918 H         1 UNK         0.0600 
    194 H194       -3.8051  -20.5724  -44.3041 H         1 UNK         0.0600 
    195 H195       -2.8561  -22.8492  -45.0608 H         1 UNK         0.3000 
    196 H196       -4.8438  -24.8531  -44.7634 H         1 UNK         0.0600 
    197 H197       -2.9273  -26.2491  -43.9766 H         1 UNK         0.0600 
    198 H198       -2.8836  -24.6441  -43.2621 H         1 UNK         0.0600 
    199 H199       -1.7905  -25.0507  -44.5830 H         1 UNK         0.0600 
    200 H200       -2.2650  -24.4460  -47.2104 H         1 UNK         0.3000 
    201 H201       -2.6094  -26.9426  -48.5038 H         1 UNK         0.0600 
    202 H202       -0.5463  -25.6581  -48.7451 H         1 UNK         0.0600 
    203 H203       -1.4017  -24.3141  -49.4927 H         1 UNK         0.0600 
    204 H204       -1.2662  -25.8526  -50.3350 H         1 UNK         0.0600 
    205 H205       -3.7943  -23.6616  -49.5466 H         1 UNK         0.3000 
    206 H206       -6.1033  -24.8479  -50.8919 H         1 UNK         0.0600 
    207 H207       -3.9008  -23.5908  -52.6108 H         1 UNK         0.0600 
    208 H208       -4.2306  -25.3213  -52.5268 H         1 UNK         0.0600 
    209 H209       -5.4457  -24.2370  -53.1662 H         1 UNK         0.0600 
    210 H210       -5.9905  -23.0399  -48.7985 H         1 UNK         0.3000 
    211 H211       -6.9945  -21.2235  -48.0433 H         1 UNK         0.0600 
    212 H212       -8.4157  -21.0952  -50.7492 H         1 UNK         0.0600 
    213 H213       -8.9744  -20.4024  -49.2343 H         1 UNK         0.0600 
    214 H214       -8.8812  -22.1453  -49.4107 H         1 UNK         0.0600 
    215 H215       -4.5213  -20.8556  -49.8864 H         1 UNK         0.3000 
    216 H216       -3.1941  -19.3252  -50.7565 H         1 UNK         0.0600 
    217 H217       -3.3268  -18.4016  -48.4198 H         1 UNK         0.0600 
    218 H218       -4.5704  -17.2731  -48.9593 H         1 UNK         0.0600 
    219 H219       -2.9456  -17.1921  -49.6304 H         1 UNK         0.0600 
    220 H220       -5.4532  -19.9755  -52.3226 H         1 UNK         0.3000 
    221 H221       -5.7538  -17.6152  -54.0490 H         1 UNK         0.0600 
    222 H222       -8.1478  -18.8791  -52.6037 H         1 UNK         0.0600 
    223 H223       -7.5171  -17.2607  -52.3120 H         1 UNK         0.0600 
    224 H224       -8.2449  -17.6470  -53.8599 H         1 UNK         0.0600 
    225 H225       -4.3266  -19.8714  -54.6790 H         1 UNK         0.3000 
    226 H226       -5.7442  -20.8198  -57.0077 H         1 UNK         0.0600 
    227 H227       -6.5264  -22.4601  -55.1883 H         1 UNK         0.0600 
    228 H228       -5.5842  -23.2375  -56.4444 H         1 UNK         0.0600 
    229 H229       -4.8374  -22.8603  -54.8947 H         1 UNK         0.0600 
    230 H230       -4.1618  -22.5211  -58.1164 H         1 UNK         0.3000 
    231 H231       -1.3892  -21.5277  -58.0615 H         1 UNK         0.0600 
    232 H232       -1.0913  -23.1814  -59.8944 H         1 UNK         0.0600 
    233 H233       -2.4705  -22.1442  -60.2195 H         1 UNK         0.0600 
    234 H234       -2.7220  -23.7925  -59.6436 H         1 UNK         0.0600 
    235 H235       -3.2753  -23.8907  -56.4387 H         1 UNK         0.3000 
    236 H236       -1.1943  -25.8774  -56.0089 H         1 UNK         0.0600 
    237 H237       -3.5471  -26.5115  -56.4894 H         1 UNK         0.0600 
    238 H238       -4.0921  -25.6826  -55.0332 H         1 UNK         0.0600 
    239 H239       -3.0640  -27.1056  -54.9128 H         1 UNK         0.0600 
    240 H240       -1.2289  -22.9839  -54.6167 H         1 UNK         0.3000 
    241 H241       -1.3952  -23.4737  -51.8319 H         1 UNK         0.0600 
    242 H242        1.2202  -24.5175  -53.9383 H         1 UNK         0.3800 
    243 H243        2.3542  -24.8293  -52.6505 H         1 UNK         0.3800 
    244 H244        0.2866  -21.3105  -53.1596 H         1 UNK         0.0800 
    245 H245       -0.2602  -21.3446  -51.4986 H         1 UNK         0.0800 
    246 H246       -0.4844  -19.4284  -54.3277 H         1 UNK         0.0800 
    247 H247       -2.0841  -18.7459  -54.3400 H         1 UNK         0.0800 
@<TRIPOS>BOND
     1    1    2 1    
     2    1  127 1    
     3    1  128 1    
     4    1  129 1    
     5    2    3 2    
     6    2    4 am   BACKBONE|DICT|INTERRES
     7    4    5 1    
     8    4  130 1    
     9    5    6 1    
    10    5   65 1    
    11    5  131 1    
    12    6    7 1    
    13    6  132 1    
    14    6  133 1    
    15    7    8 1    
    16    8    9 1    
    17    8  134 1    
    18    8  135 1    
    19    9   10 ar   
    20    9   14 ar   
    21   10   11 ar   
    22   10  136 1    
    23   11   12 ar   
    24   11  126 1    
    25   12   13 ar   
    26   12  137 1    
    27   13   14 ar   
    28   13   15 1    
    29   14  138 1    
    30   15   16 1    
    31   15  139 1    
    32   15  140 1    
    33   16   17 1    
    34   17   18 1    
    35   17  141 1    
    36   17  142 1    
    37   18   19 1    
    38   18   67 1    
    39   18  143 1    
    40   19   20 am   BACKBONE|DICT|INTERRES
    41   19  144 1    
    42   20   21 2    
    43   20   22 1    
    44   22   23 1    
    45   22   24 1    
    46   22  145 1    
    47   23  146 1    
    48   23  147 1    
    49   23  148 1    
    50   24   25 am   BACKBONE|DICT|INTERRES
    51   24  149 1    
    52   25   26 2    
    53   25   27 1    
    54   27   28 1    
    55   27   29 1    
    56   27  150 1    
    57   28  151 1    
    58   28  152 1    
    59   28  153 1    
    60   29   30 am   BACKBONE|DICT|INTERRES
    61   29  154 1    
    62   30   31 2    
    63   30   32 1    
    64   32   33 1    
    65   32   34 1    
    66   32  155 1    
    67   33  156 1    
    68   33  157 1    
    69   33  158 1    
    70   34   35 am   BACKBONE|DICT|INTERRES
    71   34  159 1    
    72   35   36 2    
    73   35   37 1    
    74   37   38 1    
    75   37   39 1    
    76   37  160 1    
    77   38  161 1    
    78   38  162 1    
    79   38  163 1    
    80   39   40 am   BACKBONE|DICT|INTERRES
    81   39  164 1    
    82   40   41 2    
    83   40   42 1    
    84   42   43 1    
    85   42   44 1    
    86   42  165 1    
    87   43  166 1    
    88   43  167 1    
    89   43  168 1    
    90   44   45 am   BACKBONE|DICT|INTERRES
    91   44  169 1    
    92   45   46 2    
    93   45   47 1    
    94   47   48 1    
    95   47   49 1    
    96   47  170 1    
    97   48  171 1    
    98   48  172 1    
    99   48  173 1    
   100   49   50 am   BACKBONE|DICT|INTERRES
   101   49  174 1    
   102   50   51 2    
   103   50   52 1    
   104   52   53 1    
   105   52   54 1    
   106   52  175 1    
   107   53  176 1    
   108   53  177 1    
   109   53  178 1    
   110   54   55 am   BACKBONE|DICT|INTERRES
   111   54  179 1    
   112   55   56 2    
   113   55   57 1    
   114   57   58 1    
   115   57   59 1    
   116   57  180 1    
   117   58  181 1    
   118   58  182 1    
   119   58  183 1    
   120   59   60 am   BACKBONE|DICT|INTERRES
   121   59  184 1    
   122   60   61 2    
   123   60   62 1    
   124   62   63 1    
   125   62   64 1    
   126   62  185 1    
   127   63  186 1    
   128   63  187 1    
   129   63  188 1    
   130   64   65 am   BACKBONE|DICT|INTERRES
   131   64  189 1    
   132   65   66 2    
   133   67   68 2    
   134   67   69 am   BACKBONE|DICT|INTERRES
   135   69   70 1    
   136   69  190 1    
   137   70   71 1    
   138   70   72 1    
   139   70  191 1    
   140   71  192 1    
   141   71  193 1    
   142   71  194 1    
   143   72   73 2    
   144   72   74 am   BACKBONE|DICT|INTERRES
   145   74   75 1    
   146   74  195 1    
   147   75   76 1    
   148   75   77 1    
   149   75  196 1    
   150   76  197 1    
   151   76  198 1    
   152   76  199 1    
   153   77   78 2    
   154   77   79 am   BACKBONE|DICT|INTERRES
   155   79   80 1    
   156   79  200 1    
   157   80   81 1    
   158   80   82 1    
   159   80  201 1    
   160   81  202 1    
   161   81  203 1    
   162   81  204 1    
   163   82   83 2    
   164   82   84 am   BACKBONE|DICT|INTERRES
   165   84   85 1    
   166   84  205 1    
   167   85   86 1    
   168   85   87 1    
   169   85  206 1    
   170   86  207 1    
   171   86  208 1    
   172   86  209 1    
   173   87   88 2    
   174   87   89 am   BACKBONE|DICT|INTERRES
   175   89   90 1    
   176   89  210 1    
   177   90   91 1    
   178   90   92 1    
   179   90  211 1    
   180   91  212 1    
   181   91  213 1    
   182   91  214 1    
   183   92   93 2    
   184   92   94 am   BACKBONE|DICT|INTERRES
   185   94   95 1    
   186   94  215 1    
   187   95   96 1    
   188   95   97 1    
   189   95  216 1    
   190   96  217 1    
   191   96  218 1    
   192   96  219 1    
   193   97   98 2    
   194   97   99 am   BACKBONE|DICT|INTERRES
   195   99  100 1    
   196   99  220 1    
   197  100  101 1    
   198  100  102 1    
   199  100  221 1    
   200  101  222 1    
   201  101  223 1    
   202  101  224 1    
   203  102  103 2    
   204  102  104 am   BACKBONE|DICT|INTERRES
   205  104  105 1    
   206  104  225 1    
   207  105  106 1    
   208  105  107 1    
   209  105  226 1    
   210  106  227 1    
   211  106  228 1    
   212  106  229 1    
   213  107  108 2    
   214  107  109 am   BACKBONE|DICT|INTERRES
   215  109  110 1    
   216  109  230 1    
   217  110  111 1    
   218  110  112 1    
   219  110  231 1    
   220  111  232 1    
   221  111  233 1    
   222  111  234 1    
   223  112  113 2    
   224  112  114 am   BACKBONE|DICT|INTERRES
   225  114  115 1    
   226  114  235 1    
   227  115  116 1    
   228  115  117 1    
   229  115  236 1    
   230  116  237 1    
   231  116  238 1    
   232  116  239 1    
   233  117  118 2    
   234  117  119 am   BACKBONE|DICT|INTERRES
   235  119  120 1    
   236  119  240 1    
   237  120  121 1    
   238  120  124 1    
   239  120  241 1    
   240  121  122 am   BACKBONE|DICT|INTERRES
   241  121  123 2    
   242  122  242 1    
   243  122  243 1    
   244  124  125 1    
   245  124  244 1    
   246  124  245 1    
   247  125  126 1    
   248  126  246 1    
   249  126  247 1    
@<TRIPOS>SUBSTRUCTURE
     1 UNK         1 GROUP             0       ****    0 ROOT    
