@<TRIPOS>MOLECULE
3R540
247   249    1
SMALL
USER_CHARGES


@<TRIPOS>ATOM
      1 CA          0.5873  -15.7187  -51.9880 C.3       0 UNK        -0.1800 
      2 C           1.6905  -14.6679  -52.0922 C.2       0 UNK         0.5000 
      3 O           2.3834  -14.6206  -53.1069 O.2       0 UNK        -0.5000 
      4 N           1.8991  -13.8091  -51.0870 N.am      1 UNK        -0.5000 
      5 CA          1.2212  -13.7735  -49.7896 C.3       1 UNK         0.1400 
      6 C6          0.3576  -12.4994  -49.5992 C.3       23 UNK        -0.0398 
      7 S7         -0.9386  -12.2766  -50.8667 S.3       23 UNK        -0.2404 
      8 C8         -2.4349  -12.8392  -49.9961 C.3       23 UNK        -0.0205 
      9 C9         -2.5545  -14.3541  -50.0181 C.ar      23 UNK        -0.0193 
     10 C10        -3.1545  -14.9905  -51.1086 C.ar      23 UNK        -0.1150 
     11 C11        -3.2606  -16.3833  -51.1460 C.ar      23 UNK        -0.0193 
     12 C12        -2.7675  -17.1408  -50.0822 C.ar      23 UNK        -0.1150 
     13 C13        -2.1599  -16.5153  -48.9905 C.ar      23 UNK        -0.0193 
     14 C14        -2.0645  -15.1210  -48.9575 C.ar      23 UNK        -0.1150 
     15 C15        -1.6135  -17.3518  -47.8489 C.3       23 UNK        -0.0205 
     16 S16        -0.1718  -18.3325  -48.3756 S.3       23 UNK        -0.2404 
     17 C17         0.2409  -19.1467  -46.7990 C.3       23 UNK        -0.0398 
     18 CA         -0.2342  -20.6121  -46.6234 C.3       11 UNK         0.1400 
     19 N           0.1593  -21.0992  -45.2995 N.am      11 UNK        -0.5000 
     20 C           0.0344  -22.3467  -44.8335 C.2       10 UNK         0.5000 
     21 O          -0.4031  -23.2836  -45.4973 O.2       10 UNK        -0.5000 
     22 CA          0.4209  -22.5697  -43.3584 C.3       10 UNK         0.1400 
     23 CB          1.9431  -22.7005  -43.2006 C.3       10 UNK        -0.1800 
     24 N          -0.0750  -21.5068  -42.4799 N.am      10 UNK        -0.5000 
     25 C          -1.3740  -21.2621  -42.2527 C.2       9 UNK         0.5000 
     26 O          -2.2879  -21.9350  -42.7298 O.2       9 UNK        -0.5000 
     27 CA         -1.7117  -20.0293  -41.3927 C.3       9 UNK         0.1400 
     28 CB         -1.5143  -20.3248  -39.8985 C.3       9 UNK        -0.1800 
     29 N          -0.9318  -18.8504  -41.7717 N.am      9 UNK        -0.5000 
     30 C          -1.0045  -18.2529  -42.9695 C.2       8 UNK         0.5000 
     31 O          -1.7783  -18.5991  -43.8606 O.2       8 UNK        -0.5000 
     32 CA         -0.0052  -17.1191  -43.2481 C.3       8 UNK         0.1400 
     33 CB         -0.4985  -15.7868  -42.6673 C.3       8 UNK        -0.1800 
     34 N           1.3387  -17.4172  -42.7528 N.am      8 UNK        -0.5000 
     35 C           2.1066  -18.4389  -43.1564 C.2       7 UNK         0.5000 
     36 O           1.7843  -19.2199  -44.0470 O.2       7 UNK        -0.5000 
     37 CA          3.4309  -18.6642  -42.4080 C.3       7 UNK         0.1400 
     38 CB          4.5495  -17.7645  -42.9506 C.3       7 UNK        -0.1800 
     39 N           3.2816  -18.4514  -40.9714 N.am      7 UNK        -0.5000 
     40 C           2.6001  -19.2686  -40.1575 C.2       6 UNK         0.5000 
     41 O           2.0625  -20.3132  -40.5282 O.2       6 UNK        -0.5000 
     42 CA          2.4681  -18.8132  -38.6932 C.3       6 UNK         0.1400 
     43 CB          3.7063  -19.2244  -37.8829 C.3       6 UNK        -0.1800 
     44 N           2.2683  -17.3662  -38.5771 N.am      6 UNK        -0.5000 
     45 C           1.1553  -16.7314  -38.9695 C.2       5 UNK         0.5000 
     46 O           0.1764  -17.3052  -39.4479 O.2       5 UNK        -0.5000 
     47 CA          1.1512  -15.1959  -38.8406 C.3       5 UNK         0.1400 
     48 CB          0.7961  -14.7754  -37.4065 C.3       5 UNK        -0.1800 
     49 N           2.4113  -14.5564  -39.2388 N.am      5 UNK        -0.5000 
     50 C           2.9429  -14.6242  -40.4664 C.2       4 UNK         0.5000 
     51 O           2.4860  -15.3254  -41.3676 O.2       4 UNK        -0.5000 
     52 CA          4.2176  -13.8073  -40.7295 C.3       4 UNK         0.1400 
     53 CB          5.4672  -14.6613  -40.4646 C.3       4 UNK        -0.1800 
     54 N           4.2535  -13.3173  -42.1105 N.am      4 UNK        -0.5000 
     55 C           3.5311  -12.2815  -42.5604 C.2       3 UNK         0.5000 
     56 O           2.7716  -11.6212  -41.8498 O.2       3 UNK        -0.5000 
     57 CA          3.7024  -11.8948  -44.0405 C.3       3 UNK         0.1400 
     58 CB          4.9650  -11.0376  -44.2251 C.3       3 UNK        -0.1800 
     59 N           3.7747  -13.0519  -44.9364 N.am      3 UNK        -0.5000 
     60 C           2.7083  -13.6199  -45.5141 C.2       2 UNK         0.5000 
     61 O           1.5430  -13.2819  -45.2931 O.2       2 UNK        -0.5000 
     62 CA          2.9891  -14.7557  -46.5165 C.3       2 UNK         0.1400 
     63 CB          2.7822  -16.1254  -45.8622 C.3       2 UNK        -0.1800 
     64 N           2.1083  -14.6568  -47.6796 N.am      2 UNK        -0.5000 
     65 C           2.3136  -13.8271  -48.7082 C.2       1 UNK         0.5000 
     66 O           3.3120  -13.1101  -48.8199 O.2       1 UNK        -0.5000 
     67 C          -1.7485  -20.7984  -46.8751 C.2       11 UNK         0.5000 
     68 O          -2.1320  -21.2495  -47.9530 O.2       11 UNK        -0.5000 
     69 N          -2.5793  -20.4796  -45.8721 N.am      12 UNK        -0.5000 
     70 CA         -4.0301  -20.6669  -45.9117 C.3       12 UNK         0.1400 
     71 CB         -4.6741  -19.9159  -44.7368 C.3       12 UNK        -0.1800 
     72 C          -4.4467  -22.1499  -45.9039 C.2       12 UNK         0.5000 
     73 O          -5.4282  -22.5046  -46.5570 O.2       12 UNK        -0.5000 
     74 N          -3.6996  -22.9893  -45.1732 N.am      13 UNK        -0.5000 
     75 CA         -3.8991  -24.4384  -45.1229 C.3       13 UNK         0.1400 
     76 CB         -3.1397  -25.0165  -43.9191 C.3       13 UNK        -0.1800 
     77 C          -3.4772  -25.1464  -46.4252 C.2       13 UNK         0.5000 
     78 O          -4.0911  -26.1484  -46.7948 O.2       13 UNK        -0.5000 
     79 N          -2.4400  -24.6229  -47.0917 N.am      14 UNK        -0.5000 
     80 CA         -1.9160  -25.1060  -48.3650 C.3       14 UNK         0.1400 
     81 CB         -0.5336  -24.4805  -48.6174 C.3       14 UNK        -0.1800 
     82 C          -2.8871  -24.8085  -49.5206 C.2       14 UNK         0.5000 
     83 O          -2.8720  -23.7079  -50.0763 O.2       14 UNK        -0.5000 
     84 N          -3.6970  -25.8112  -49.8859 N.am      15 UNK        -0.5000 
     85 CA         -4.6774  -25.7586  -50.9754 C.3       15 UNK         0.1400 
     86 CB         -5.4554  -27.0815  -51.0186 C.3       15 UNK        -0.1800 
     87 C          -4.0663  -25.4462  -52.3553 C.2       15 UNK         0.5000 
     88 O          -4.7503  -24.8654  -53.1954 O.2       15 UNK        -0.5000 
     89 N          -2.7808  -25.7797  -52.5450 N.am      16 UNK        -0.5000 
     90 CA         -1.9798  -25.4239  -53.7188 C.3       16 UNK         0.1400 
     91 CB         -0.5824  -26.0457  -53.5812 C.3       16 UNK        -0.1800 
     92 C          -1.8725  -23.9023  -53.9484 C.2       16 UNK         0.5000 
     93 O          -1.8213  -23.4679  -55.0987 O.2       16 UNK        -0.5000 
     94 N          -1.8837  -23.1215  -52.8606 N.am      17 UNK        -0.5000 
     95 CA         -2.0224  -21.6720  -52.9033 C.3       17 UNK         0.1400 
     96 CB         -1.2235  -21.0335  -51.7523 C.3       17 UNK        -0.1800 
     97 C          -3.5111  -21.3091  -52.8383 C.2       17 UNK         0.5000 
     98 O          -4.0648  -20.7963  -53.8137 O.2       17 UNK        -0.5000 
     99 N          -4.1280  -21.6116  -51.6894 N.am      18 UNK        -0.5000 
    100 CA        -5.4368  -21.1258  -51.2550 C.3       18 UNK         0.1400 
    101 CB        -5.6709  -21.5943  -49.8117 C.3       18 UNK        -0.1800 
    102 C         -6.6347  -21.5045  -52.1450 C.2       18 UNK         0.5000 
    103 O         -7.6351  -20.7863  -52.1208 O.2       18 UNK        -0.5000 
    104 N         -6.5299  -22.6000  -52.9056 N.am      19 UNK        -0.5000 
    105 CA        -7.6053  -23.1343  -53.7403 C.3       19 UNK         0.1400 
    106 CB        -8.2212  -24.3549  -53.0306 C.3       19 UNK        -0.1800 
    107 C         -7.1315  -23.4710  -55.1667 C.2       19 UNK         0.5000 
    108 O         -7.8416  -24.1900  -55.8731 O.2       19 UNK        -0.5000 
    109 N         -5.9650  -22.9579  -55.5839 N.am      20 UNK        -0.5000 
    110 CA        -5.4014  -23.2107  -56.9082 C.3       20 UNK         0.1400 
    111 CB        -4.5754  -24.5095  -56.9130 C.3       20 UNK        -0.1800 
    112 C         -4.6382  -21.9881  -57.4335 C.2       20 UNK         0.5000 
    113 O         -5.1845  -21.2694  -58.2718 O.2       20 UNK        -0.5000 
    114 N         -3.3967  -21.7726  -56.9699 N.am      21 UNK        -0.5000 
    115 CA        -2.5034  -20.7348  -57.5047 C.3       21 UNK         0.1400 
    116 CB        -1.0764  -20.9395  -56.9763 C.3       21 UNK        -0.1800 
    117 C         -2.9726  -19.2878  -57.2542 C.2       21 UNK         0.5000 
    118 O         -2.6495  -18.4087  -58.0552 O.2       21 UNK        -0.5000 
    119 N         -3.7332  -19.0643  -56.1780 N.am      22 UNK        -0.5000 
    120 CA        -4.3491  -17.7697  -55.8505 C.3       22 UNK         0.1400 
    121 C         -5.7328  -17.8841  -55.1539 C.2       22 UNK         0.5000 
    122 N         -6.0630  -18.9898  -54.4999 N.am      22 UNK        -0.7600 
    123 O         -6.5316  -16.9542  -55.2237 O.2       22 UNK        -0.5000 
    124 C124       -3.3830  -16.8125  -55.1020 C.3       23 UNK        -0.0398 
    125 S125       -2.6522  -17.5178  -53.5819 S.3       23 UNK        -0.2404 
    126 C126       -3.9012  -17.0702  -52.3367 C.3       23 UNK        -0.0205 
    127 H127        0.4980  -16.2790  -52.9189 H         1 UNK         0.0600 
    128 H128       -0.3759  -15.2490  -51.7948 H         1 UNK         0.0600 
    129 H129        0.7985  -16.4301  -51.1893 H         1 UNK         0.0600 
    130 H130        2.6665  -13.1550  -51.1597 H         1 UNK         0.3000 
    131 H131        0.5839  -14.6474  -49.6599 H         1 UNK         0.0600 
    132 H132       -0.1042  -12.4983  -48.6104 H         1 UNK         0.0800 
    133 H133        0.9882  -11.6087  -49.6310 H         1 UNK         0.0800 
    134 H134       -3.3065  -12.4001  -50.4839 H         1 UNK         0.0800 
    135 H135       -2.4443  -12.4628  -48.9722 H         1 UNK         0.0800 
    136 H136       -3.5273  -14.4016  -51.9350 H         1 UNK         0.1150 
    137 H137       -2.8394  -18.2196  -50.1100 H         1 UNK         0.1150 
    138 H138       -1.6017  -14.6317  -48.1122 H         1 UNK         0.1150 
    139 H139       -1.3330  -16.7156  -47.0079 H         1 UNK         0.0800 
    140 H140       -2.4014  -18.0132  -47.4874 H         1 UNK         0.0800 
    141 H141       -0.1414  -18.5358  -45.9842 H         1 UNK         0.0800 
    142 H142        1.3269  -19.1113  -46.7029 H         1 UNK         0.0800 
    143 H143        0.2899  -21.2243  -47.3601 H         1 UNK         0.0600 
    144 H144        0.5976  -20.4088  -44.6927 H         1 UNK         0.3000 
    145 H145       -0.0336  -23.5085  -43.0354 H         1 UNK         0.0600 
    146 H146        2.4614  -21.7883  -43.4961 H         1 UNK         0.0600 
    147 H147        2.2144  -22.9177  -42.1673 H         1 UNK         0.0600 
    148 H148        2.3302  -23.5125  -43.8173 H         1 UNK         0.0600 
    149 H149        0.6194  -20.9216  -42.0297 H         1 UNK         0.3000 
    150 H150       -2.7660  -19.7943  -41.5530 H         1 UNK         0.0600 
    151 H151       -2.1121  -21.1827  -39.5886 H         1 UNK         0.0600 
    152 H152       -1.8201  -19.4762  -39.2862 H         1 UNK         0.0600 
    153 H153       -0.4738  -20.5473  -39.6629 H         1 UNK         0.0600 
    154 H154       -0.3045  -18.4682  -41.0718 H         1 UNK         0.3000 
    155 H155        0.0545  -16.9984  -44.3284 H         1 UNK         0.0600 
    156 H156        0.1713  -14.9694  -42.9363 H         1 UNK         0.0600 
    157 H157       -1.4878  -15.5362  -43.0520 H         1 UNK         0.0600 
    158 H158       -0.5676  -15.8203  -41.5807 H         1 UNK         0.0600 
    159 H159        1.7180  -16.7656  -42.0678 H         1 UNK         0.3000 
    160 H160        3.7301  -19.7023  -42.5681 H         1 UNK         0.0600 
    161 H161        4.7230  -17.9586  -44.0096 H         1 UNK         0.0600 
    162 H162        5.4900  -17.9485  -42.4312 H         1 UNK         0.0600 
    163 H163        4.3077  -16.7076  -42.8415 H         1 UNK         0.0600 
    164 H164        3.6462  -17.5888  -40.5971 H         1 UNK         0.3000 
    165 H165        1.5976  -19.3158  -38.2656 H         1 UNK         0.0600 
    166 H166        3.5898  -18.9702  -36.8292 H         1 UNK         0.0600 
    167 H167        3.8693  -20.3015  -37.9402 H         1 UNK         0.0600 
    168 H168        4.6101  -18.7355  -38.2487 H         1 UNK         0.0600 
    169 H169        3.0283  -16.8233  -38.1941 H         1 UNK         0.3000 
    170 H170        0.3706  -14.8175  -39.5036 H         1 UNK         0.0600 
    171 H171       -0.1469  -15.2235  -37.0902 H         1 UNK         0.0600 
    172 H172        1.5618  -15.0841  -36.6937 H         1 UNK         0.0600 
    173 H173        0.6814  -13.6941  -37.3294 H         1 UNK         0.0600 
    174 H174        2.8565  -13.9737  -38.5445 H         1 UNK         0.3000 
    175 H175        4.2337  -12.9511  -40.0517 H         1 UNK         0.0600 
    176 H176        5.5148  -15.5286  -41.1228 H         1 UNK         0.0600 
    177 H177        6.3780  -14.0805  -40.6116 H         1 UNK         0.0600 
    178 H178        5.4806  -15.0281  -39.4375 H         1 UNK         0.0600 
    179 H179        4.8211  -13.8365  -42.7622 H         1 UNK         0.3000 
    180 H180        2.8455  -11.2772  -44.3195 H         1 UNK         0.0600 
    181 H181        5.8716  -11.5921  -43.9796 H         1 UNK         0.0600 
    182 H182        4.9358  -10.1560  -43.5833 H         1 UNK         0.0600 
    183 H183        5.0548  -10.6862  -45.2532 H         1 UNK         0.0600 
    184 H184        4.6985  -13.3847  -45.1717 H         1 UNK         0.3000 
    185 H185        4.0287  -14.6892  -46.8455 H         1 UNK         0.0600 
    186 H186        1.7360  -16.2930  -45.6148 H         1 UNK         0.0600 
    187 H187        3.1043  -16.9336  -46.5190 H         1 UNK         0.0600 
    188 H188        3.3557  -16.2006  -44.9409 H         1 UNK         0.0600 
    189 H189        1.2547  -15.1931  -47.6356 H         1 UNK         0.3000 
    190 H190       -2.2012  -20.0497  -45.0322 H         1 UNK         0.3000 
    191 H191       -4.4009  -20.2244  -46.8385 H         1 UNK         0.0600 
    192 H192       -4.3135  -20.2865  -43.7766 H         1 UNK         0.0600 
    193 H193       -5.7588  -20.0284  -44.7477 H         1 UNK         0.0600 
    194 H194       -4.4570  -18.8487  -44.7859 H         1 UNK         0.0600 
    195 H195       -2.9484  -22.6102  -44.6075 H         1 UNK         0.3000 
    196 H196       -4.9634  -24.6308  -44.9725 H         1 UNK         0.0600 
    197 H197       -2.0657  -24.8482  -44.0007 H         1 UNK         0.0600 
    198 H198       -3.2983  -26.0924  -43.8375 H         1 UNK         0.0600 
    199 H199       -3.4784  -24.5657  -42.9861 H         1 UNK         0.0600 
    200 H200       -1.9583  -23.8293  -46.6832 H         1 UNK         0.3000 
    201 H201       -1.7802  -26.1871  -48.2928 H         1 UNK         0.0600 
    202 H202        0.1741  -24.7620  -47.8376 H         1 UNK         0.0600 
    203 H203       -0.5810  -23.3915  -48.6459 H         1 UNK         0.0600 
    204 H204       -0.1200  -24.8156  -49.5693 H         1 UNK         0.0600 
    205 H205       -3.6771  -26.6637  -49.3434 H         1 UNK         0.3000 
    206 H206       -5.3810  -24.9561  -50.7458 H         1 UNK         0.0600 
    207 H207       -4.7966  -27.9295  -51.2095 H         1 UNK         0.0600 
    208 H208       -5.9754  -27.2640  -50.0780 H         1 UNK         0.0600 
    209 H209       -6.2090  -27.0674  -51.8072 H         1 UNK         0.0600 
    210 H210       -2.3012  -26.2609  -51.7991 H         1 UNK         0.3000 
    211 H211       -2.4643  -25.8585  -54.5950 H         1 UNK         0.0600 
    212 H212       -0.0594  -25.6700  -52.7008 H         1 UNK         0.0600 
    213 H213        0.0336  -25.8166  -54.4519 H         1 UNK         0.0600 
    214 H214       -0.6391  -27.1315  -53.5017 H         1 UNK         0.0600 
    215 H215       -1.9970  -23.5522  -51.9501 H         1 UNK         0.3000 
    216 H216       -1.6222  -21.2761  -53.8356 H         1 UNK         0.0600 
    217 H217       -1.3597  -19.9510  -51.7363 H         1 UNK         0.0600 
    218 H218       -0.1565  -21.2239  -51.8665 H         1 UNK         0.0600 
    219 H219       -1.5228  -21.4151  -50.7754 H         1 UNK         0.0600 
    220 H220       -3.6012  -22.1286  -50.9903 H         1 UNK         0.3000 
    221 H221       -5.3841  -20.0360  -51.2473 H         1 UNK         0.0600 
    222 H222       -6.6139  -21.2125  -49.4186 H         1 UNK         0.0600 
    223 H223       -5.7006  -22.6820  -49.7413 H         1 UNK         0.0600 
    224 H224       -4.8779  -21.2425  -49.1511 H         1 UNK         0.0600 
    225 H225       -5.6781  -23.1532  -52.8892 H         1 UNK         0.3000 
    226 H226       -8.3922  -22.3884  -53.8669 H         1 UNK         0.0600 
    227 H227       -8.5696  -24.0955  -52.0308 H         1 UNK         0.0600 
    228 H228       -9.0801  -24.7413  -53.5804 H         1 UNK         0.0600 
    229 H229       -7.4999  -25.1666  -52.9340 H         1 UNK         0.0600 
    230 H230       -5.4415  -22.3464  -54.9713 H         1 UNK         0.3000 
    231 H231       -6.2179  -23.3564  -57.6193 H         1 UNK         0.0600 
    232 H232       -3.9912  -24.6092  -57.8287 H         1 UNK         0.0600 
    233 H233       -5.2263  -25.3813  -56.8465 H         1 UNK         0.0600 
    234 H234       -3.8913  -24.5557  -56.0704 H         1 UNK         0.0600 
    235 H235       -2.9925  -22.4068  -56.2863 H         1 UNK         0.3000 
    236 H236       -2.4696  -20.8716  -58.5876 H         1 UNK         0.0600 
    237 H237       -0.3830  -20.2461  -57.4538 H         1 UNK         0.0600 
    238 H238       -0.7175  -21.9483  -57.1804 H         1 UNK         0.0600 
    239 H239       -1.0153  -20.7683  -55.9036 H         1 UNK         0.0600 
    240 H240       -3.9192  -19.8259  -55.5363 H         1 UNK         0.3000 
    241 H241       -4.5864  -17.2858  -56.8003 H         1 UNK         0.0600 
    242 H242       -6.9697  -19.0497  -54.0640 H         1 UNK         0.3800 
    243 H243       -5.3722  -19.7133  -54.3217 H         1 UNK         0.3800 
    244 H244       -3.8675  -15.8609  -54.8772 H         1 UNK         0.0800 
    245 H245       -2.5550  -16.5589  -55.7649 H         1 UNK         0.0800 
    246 H246       -4.4184  -17.9751  -52.0168 H         1 UNK         0.0800 
    247 H247       -4.6670  -16.4217  -52.7635 H         1 UNK         0.0800 
@<TRIPOS>BOND
     1    1    2 1    
     2    1  127 1    
     3    1  128 1    
     4    1  129 1    
     5    2    3 2    
     6    2    4 am   BACKBONE|DICT|INTERRES
     7    4    5 1    
     8    4  130 1    
     9    5    6 1    
    10    5   65 1    
    11    5  131 1    
    12    6    7 1    
    13    6  132 1    
    14    6  133 1    
    15    7    8 1    
    16    8    9 1    
    17    8  134 1    
    18    8  135 1    
    19    9   10 ar   
    20    9   14 ar   
    21   10   11 ar   
    22   10  136 1    
    23   11   12 ar   
    24   11  126 1    
    25   12   13 ar   
    26   12  137 1    
    27   13   14 ar   
    28   13   15 1    
    29   14  138 1    
    30   15   16 1    
    31   15  139 1    
    32   15  140 1    
    33   16   17 1    
    34   17   18 1    
    35   17  141 1    
    36   17  142 1    
    37   18   19 1    
    38   18   67 1    
    39   18  143 1    
    40   19   20 am   BACKBONE|DICT|INTERRES
    41   19  144 1    
    42   20   21 2    
    43   20   22 1    
    44   22   23 1    
    45   22   24 1    
    46   22  145 1    
    47   23  146 1    
    48   23  147 1    
    49   23  148 1    
    50   24   25 am   BACKBONE|DICT|INTERRES
    51   24  149 1    
    52   25   26 2    
    53   25   27 1    
    54   27   28 1    
    55   27   29 1    
    56   27  150 1    
    57   28  151 1    
    58   28  152 1    
    59   28  153 1    
    60   29   30 am   BACKBONE|DICT|INTERRES
    61   29  154 1    
    62   30   31 2    
    63   30   32 1    
    64   32   33 1    
    65   32   34 1    
    66   32  155 1    
    67   33  156 1    
    68   33  157 1    
    69   33  158 1    
    70   34   35 am   BACKBONE|DICT|INTERRES
    71   34  159 1    
    72   35   36 2    
    73   35   37 1    
    74   37   38 1    
    75   37   39 1    
    76   37  160 1    
    77   38  161 1    
    78   38  162 1    
    79   38  163 1    
    80   39   40 am   BACKBONE|DICT|INTERRES
    81   39  164 1    
    82   40   41 2    
    83   40   42 1    
    84   42   43 1    
    85   42   44 1    
    86   42  165 1    
    87   43  166 1    
    88   43  167 1    
    89   43  168 1    
    90   44   45 am   BACKBONE|DICT|INTERRES
    91   44  169 1    
    92   45   46 2    
    93   45   47 1    
    94   47   48 1    
    95   47   49 1    
    96   47  170 1    
    97   48  171 1    
    98   48  172 1    
    99   48  173 1    
   100   49   50 am   BACKBONE|DICT|INTERRES
   101   49  174 1    
   102   50   51 2    
   103   50   52 1    
   104   52   53 1    
   105   52   54 1    
   106   52  175 1    
   107   53  176 1    
   108   53  177 1    
   109   53  178 1    
   110   54   55 am   BACKBONE|DICT|INTERRES
   111   54  179 1    
   112   55   56 2    
   113   55   57 1    
   114   57   58 1    
   115   57   59 1    
   116   57  180 1    
   117   58  181 1    
   118   58  182 1    
   119   58  183 1    
   120   59   60 am   BACKBONE|DICT|INTERRES
   121   59  184 1    
   122   60   61 2    
   123   60   62 1    
   124   62   63 1    
   125   62   64 1    
   126   62  185 1    
   127   63  186 1    
   128   63  187 1    
   129   63  188 1    
   130   64   65 am   BACKBONE|DICT|INTERRES
   131   64  189 1    
   132   65   66 2    
   133   67   68 2    
   134   67   69 am   BACKBONE|DICT|INTERRES
   135   69   70 1    
   136   69  190 1    
   137   70   71 1    
   138   70   72 1    
   139   70  191 1    
   140   71  192 1    
   141   71  193 1    
   142   71  194 1    
   143   72   73 2    
   144   72   74 am   BACKBONE|DICT|INTERRES
   145   74   75 1    
   146   74  195 1    
   147   75   76 1    
   148   75   77 1    
   149   75  196 1    
   150   76  197 1    
   151   76  198 1    
   152   76  199 1    
   153   77   78 2    
   154   77   79 am   BACKBONE|DICT|INTERRES
   155   79   80 1    
   156   79  200 1    
   157   80   81 1    
   158   80   82 1    
   159   80  201 1    
   160   81  202 1    
   161   81  203 1    
   162   81  204 1    
   163   82   83 2    
   164   82   84 am   BACKBONE|DICT|INTERRES
   165   84   85 1    
   166   84  205 1    
   167   85   86 1    
   168   85   87 1    
   169   85  206 1    
   170   86  207 1    
   171   86  208 1    
   172   86  209 1    
   173   87   88 2    
   174   87   89 am   BACKBONE|DICT|INTERRES
   175   89   90 1    
   176   89  210 1    
   177   90   91 1    
   178   90   92 1    
   179   90  211 1    
   180   91  212 1    
   181   91  213 1    
   182   91  214 1    
   183   92   93 2    
   184   92   94 am   BACKBONE|DICT|INTERRES
   185   94   95 1    
   186   94  215 1    
   187   95   96 1    
   188   95   97 1    
   189   95  216 1    
   190   96  217 1    
   191   96  218 1    
   192   96  219 1    
   193   97   98 2    
   194   97   99 am   BACKBONE|DICT|INTERRES
   195   99  100 1    
   196   99  220 1    
   197  100  101 1    
   198  100  102 1    
   199  100  221 1    
   200  101  222 1    
   201  101  223 1    
   202  101  224 1    
   203  102  103 2    
   204  102  104 am   BACKBONE|DICT|INTERRES
   205  104  105 1    
   206  104  225 1    
   207  105  106 1    
   208  105  107 1    
   209  105  226 1    
   210  106  227 1    
   211  106  228 1    
   212  106  229 1    
   213  107  108 2    
   214  107  109 am   BACKBONE|DICT|INTERRES
   215  109  110 1    
   216  109  230 1    
   217  110  111 1    
   218  110  112 1    
   219  110  231 1    
   220  111  232 1    
   221  111  233 1    
   222  111  234 1    
   223  112  113 2    
   224  112  114 am   BACKBONE|DICT|INTERRES
   225  114  115 1    
   226  114  235 1    
   227  115  116 1    
   228  115  117 1    
   229  115  236 1    
   230  116  237 1    
   231  116  238 1    
   232  116  239 1    
   233  117  118 2    
   234  117  119 am   BACKBONE|DICT|INTERRES
   235  119  120 1    
   236  119  240 1    
   237  120  121 1    
   238  120  124 1    
   239  120  241 1    
   240  121  122 am   BACKBONE|DICT|INTERRES
   241  121  123 2    
   242  122  242 1    
   243  122  243 1    
   244  124  125 1    
   245  124  244 1    
   246  124  245 1    
   247  125  126 1    
   248  126  246 1    
   249  126  247 1    
@<TRIPOS>SUBSTRUCTURE
     1 UNK         1 GROUP             0       ****    0 ROOT    
