@<TRIPOS>MOLECULE
3R540
247   249    1
SMALL
USER_CHARGES


@<TRIPOS>ATOM
      1 CA         -3.7179  -16.5294  -42.0862 C.3       0 UNK        -0.1800 
      2 C          -3.2494  -15.2025  -42.6653 C.2       0 UNK         0.5000 
      3 O          -3.1475  -14.2136  -41.9392 O.2       0 UNK        -0.5000 
      4 N          -2.9452  -15.1792  -43.9661 N.am      1 UNK        -0.5000 
      5 CA         -2.4909  -14.0035  -44.7115 C.3       1 UNK         0.1400 
      6 C6         -2.9936  -14.0332  -46.1732 C.3       23 UNK        -0.0398 
      7 S7         -4.8081  -13.8987  -46.3441 S.3       23 UNK        -0.2404 
      8 C8         -5.3388  -15.6308  -46.6187 C.3       23 UNK        -0.0205 
      9 C9         -4.6001  -16.3931  -47.7213 C.ar      23 UNK        -0.0193 
     10 C10        -4.0247  -15.7459  -48.8213 C.ar      23 UNK        -0.1150 
     11 C11        -3.2560  -16.4588  -49.7430 C.ar      23 UNK        -0.0193 
     12 C12        -3.1201  -17.8419  -49.5992 C.ar      23 UNK        -0.1150 
     13 C13        -3.7404  -18.5209  -48.5457 C.ar      23 UNK        -0.0193 
     14 C14        -4.4701  -17.7807  -47.6064 C.ar      23 UNK        -0.1150 
     15 C15        -3.5484  -20.0363  -48.4421 C.3       23 UNK        -0.0205 
     16 S16        -4.7695  -20.9334  -47.4247 S.3       23 UNK        -0.2404 
     17 C17        -3.9923  -20.8573  -45.7750 C.3       23 UNK        -0.0398 
     18 CA         -2.9518  -21.9784  -45.5316 C.3       11 UNK         0.1400 
     19 N          -2.0708  -21.6423  -44.4080 N.am      11 UNK        -0.5000 
     20 C          -0.9697  -22.3172  -44.0521 C.2       10 UNK         0.5000 
     21 O          -0.6187  -23.3687  -44.5893 O.2       10 UNK        -0.5000 
     22 CA         -0.1368  -21.7164  -42.9016 C.3       10 UNK         0.1400 
     23 CB          1.2175  -22.4227  -42.7168 C.3       10 UNK        -0.1800 
     24 N           0.1122  -20.2916  -43.1065 N.am      10 UNK        -0.5000 
     25 C          -0.7131  -19.2932  -42.7686 C.2       9 UNK         0.5000 
     26 O          -1.8235  -19.4641  -42.2663 O.2       9 UNK        -0.5000 
     27 CA         -0.2249  -17.8764  -43.1088 C.3       9 UNK         0.1400 
     28 CB          1.0208  -17.5212  -42.2768 C.3       9 UNK        -0.1800 
     29 N           0.0636  -17.7762  -44.5394 N.am      9 UNK        -0.5000 
     30 C          -0.8717  -17.7676  -45.5026 C.2       8 UNK         0.5000 
     31 O          -2.0751  -17.6442  -45.2731 O.2       8 UNK        -0.5000 
     32 CA         -0.3982  -17.9737  -46.9551 C.3       8 UNK         0.1400 
     33 CB         -0.2438  -16.6496  -47.7095 C.3       8 UNK        -0.1800 
     34 N           0.8640  -18.7033  -47.0195 N.am      8 UNK        -0.5000 
     35 C           0.9718  -20.0381  -46.9932 C.2       7 UNK         0.5000 
     36 O           0.0083  -20.8013  -47.0097 O.2       7 UNK        -0.5000 
     37 CA          2.3989  -20.6173  -46.9334 C.3       7 UNK         0.1400 
     38 CB          2.8482  -21.0701  -48.3307 C.3       7 UNK        -0.1800 
     39 N           3.3805  -19.6680  -46.3962 N.am      7 UNK        -0.5000 
     40 C           3.4346  -19.2800  -45.1136 C.2       6 UNK         0.5000 
     41 O           2.6922  -19.7256  -44.2403 O.2       6 UNK        -0.5000 
     42 CA          4.4314  -18.1562  -44.7671 C.3       6 UNK         0.1400 
     43 CB          5.8226  -18.7369  -44.4756 C.3       6 UNK        -0.1800 
     44 N           4.5325  -17.1477  -45.8278 N.am      6 UNK        -0.5000 
     45 C           3.5367  -16.3241  -46.1812 C.2       5 UNK         0.5000 
     46 O           2.4485  -16.2888  -45.6041 O.2       5 UNK        -0.5000 
     47 CA          3.7658  -15.4723  -47.4371 C.3       5 UNK         0.1400 
     48 CB          3.6749  -16.3710  -48.6906 C.3       5 UNK        -0.1800 
     49 N           2.7689  -14.4029  -47.5041 N.am      5 UNK        -0.5000 
     50 C           2.7808  -13.3904  -48.3818 C.2       4 UNK         0.5000 
     51 O           3.6804  -13.2078  -49.2031 O.2       4 UNK        -0.5000 
     52 CA          1.6004  -12.4065  -48.3349 C.3       4 UNK         0.1400 
     53 CB          0.3140  -13.0425  -48.8890 C.3       4 UNK        -0.1800 
     54 N           1.3701  -11.9056  -46.9813 N.am      4 UNK        -0.5000 
     55 C           2.0304  -10.8665  -46.4463 C.2       3 UNK         0.5000 
     56 O           2.8863  -10.2200  -47.0522 O.2       3 UNK        -0.5000 
     57 CA          1.6783  -10.4596  -44.9999 C.3       3 UNK         0.1400 
     58 CB          0.6738   -9.2970  -44.9997 C.3       3 UNK        -0.1800 
     59 N           1.1282  -11.5575  -44.2076 N.am      3 UNK        -0.5000 
     60 C           1.8249  -12.6257  -43.7998 C.2       2 UNK         0.5000 
     61 O           3.0411  -12.7443  -43.9518 O.2       2 UNK        -0.5000 
     62 CA          1.0303  -13.7696  -43.1406 C.3       2 UNK         0.1400 
     63 CB          1.2394  -13.7766  -41.6189 C.3       2 UNK        -0.1800 
     64 N          -0.4102  -13.7778  -43.4244 N.am      2 UNK        -0.5000 
     65 C          -0.9516  -13.9168  -44.6415 C.2       1 UNK         0.5000 
     66 O          -0.2765  -13.9769  -45.6703 O.2       1 UNK        -0.5000 
     67 C          -3.5991  -23.3753  -45.3916 C.2       11 UNK         0.5000 
     68 O          -3.7696  -24.0714  -46.3937 O.2       11 UNK        -0.5000 
     69 N          -3.8913  -23.7839  -44.1478 N.am      12 UNK        -0.5000 
     70 CA         -4.4015  -25.1130  -43.8098 C.3       12 UNK         0.1400 
     71 CB         -4.8809  -25.1180  -42.3506 C.3       12 UNK        -0.1800 
     72 C          -3.3654  -26.2286  -44.0457 C.2       12 UNK         0.5000 
     73 O          -3.7277  -27.2918  -44.5487 O.2       12 UNK        -0.5000 
     74 N          -2.0926  -25.9595  -43.7180 N.am      13 UNK        -0.5000 
     75 CA         -0.9691  -26.8743  -43.9471 C.3       13 UNK         0.1400 
     76 CB          0.2416  -26.4298  -43.1141 C.3       13 UNK        -0.1800 
     77 C          -0.5991  -26.9679  -45.4382 C.2       13 UNK         0.5000 
     78 O          -0.2333  -28.0441  -45.9109 O.2       13 UNK        -0.5000 
     79 N          -0.7580  -25.8501  -46.1603 N.am      14 UNK        -0.5000 
     80 CA         -0.6504  -25.7583  -47.6174 C.3       14 UNK         0.1400 
     81 CB         -0.4696  -24.2812  -48.0087 C.3       14 UNK        -0.1800 
     82 C          -1.8566  -26.3730  -48.3622 C.2       14 UNK         0.5000 
     83 O          -1.8471  -26.3941  -49.5927 O.2       14 UNK        -0.5000 
     84 N          -2.8850  -26.8247  -47.6249 N.am      15 UNK        -0.5000 
     85 CA         -4.1351  -27.4314  -48.0996 C.3       15 UNK         0.1400 
     86 CB         -3.8571  -28.8244  -48.7006 C.3       15 UNK        -0.1800 
     87 C          -4.9310  -26.5163  -49.0549 C.2       15 UNK         0.5000 
     88 O          -5.5983  -27.0050  -49.9681 O.2       15 UNK        -0.5000 
     89 N          -4.8089  -25.1982  -48.8400 N.am      16 UNK        -0.5000 
     90 CA         -5.3350  -24.1002  -49.6535 C.3       16 UNK         0.1400 
     91 CB         -6.8760  -24.0721  -49.6127 C.3       16 UNK        -0.1800 
     92 C          -4.7798  -24.0352  -51.0940 C.2       16 UNK         0.5000 
     93 O          -5.3238  -23.2903  -51.9091 O.2       16 UNK        -0.5000 
     94 N          -3.6920  -24.7625  -51.3967 N.am      17 UNK        -0.5000 
     95 CA         -3.0602  -24.7719  -52.7206 C.3       17 UNK         0.1400 
     96 CB         -2.0504  -25.9252  -52.8065 C.3       17 UNK        -0.1800 
     97 C          -2.3818  -23.4328  -53.0605 C.2       17 UNK         0.5000 
     98 O          -2.3724  -23.0300  -54.2237 O.2       17 UNK        -0.5000 
     99 N          -1.8652  -22.7468  -52.0306 N.am      18 UNK        -0.5000 
    100 CA        -1.2494  -21.4237  -52.1348 C.3       18 UNK         0.1400 
    101 CB        -0.5474  -21.0862  -50.8091 C.3       18 UNK        -0.1800 
    102 C         -2.2471  -20.3148  -52.5206 C.2       18 UNK         0.5000 
    103 O         -1.8367  -19.3319  -53.1369 O.2       18 UNK        -0.5000 
    104 N         -3.5341  -20.4967  -52.1819 N.am      19 UNK        -0.5000 
    105 CA        -4.6150  -19.5390  -52.4427 C.3       19 UNK         0.1400 
    106 CB        -5.8618  -19.9289  -51.6332 C.3       19 UNK        -0.1800 
    107 C         -4.9642  -19.3952  -53.9353 C.2       19 UNK         0.5000 
    108 O         -5.5473  -18.3846  -54.3282 O.2       19 UNK        -0.5000 
    109 N         -4.5916  -20.3959  -54.7442 N.am      20 UNK        -0.5000 
    110 CA        -4.7296  -20.3794  -56.1992 C.3       20 UNK         0.1400 
    111 CB        -4.6702  -21.8258  -56.7150 C.3       20 UNK        -0.1800 
    112 C         -3.6605  -19.5122  -56.8956 C.2       20 UNK         0.5000 
    113 O         -3.8265  -19.2006  -58.0759 O.2       20 UNK        -0.5000 
    114 N         -2.5865  -19.1565  -56.1767 N.am      21 UNK        -0.5000 
    115 CA        -1.4534  -18.3932  -56.6890 C.3       21 UNK         0.1400 
    116 CB        -0.1653  -19.2136  -56.4968 C.3       21 UNK        -0.1800 
    117 C         -1.3584  -17.0254  -55.9977 C.2       21 UNK         0.5000 
    118 O         -1.4982  -16.0003  -56.6669 O.2       21 UNK        -0.5000 
    119 N         -1.1124  -17.0367  -54.6806 N.am      22 UNK        -0.5000 
    120 CA        -0.7847  -15.8694  -53.8436 C.3       22 UNK         0.1400 
    121 C          0.4440  -15.0530  -54.3645 C.2       22 UNK         0.5000 
    122 N          0.5343  -13.7534  -54.1096 N.am      22 UNK        -0.7600 
    123 O          1.3668  -15.6083  -54.9573 O.2       22 UNK        -0.5000 
    124 C124       -2.0366  -15.0138  -53.4905 C.3       23 UNK        -0.0398 
    125 S125       -3.2453  -15.9341  -52.4799 S.3       23 UNK        -0.2404 
    126 C126       -2.4970  -15.7219  -50.8351 C.3       23 UNK        -0.0205 
    127 H127       -3.7320  -17.3166  -42.8410 H         1 UNK         0.0600 
    128 H128       -4.7248  -16.4280  -41.6818 H         1 UNK         0.0600 
    129 H129       -3.0550  -16.8445  -41.2804 H         1 UNK         0.0600 
    130 H130       -2.9429  -16.0499  -44.4908 H         1 UNK         0.3000 
    131 H131       -2.8838  -13.0970  -44.2464 H         1 UNK         0.0600 
    132 H132       -2.5658  -13.2043  -46.7403 H         1 UNK         0.0800 
    133 H133       -2.6406  -14.9394  -46.6569 H         1 UNK         0.0800 
    134 H134       -6.4041  -15.6339  -46.8518 H         1 UNK         0.0800 
    135 H135       -5.2299  -16.1623  -45.6719 H         1 UNK         0.0800 
    136 H136       -4.1209  -14.6755  -48.9306 H         1 UNK         0.1150 
    137 H137       -2.5132  -18.3875  -50.3070 H         1 UNK         0.1150 
    138 H138       -4.9245  -18.2741  -46.7608 H         1 UNK         0.1150 
    139 H139       -2.5463  -20.2504  -48.0723 H         1 UNK         0.0800 
    140 H140       -3.5939  -20.4649  -49.4417 H         1 UNK         0.0800 
    141 H141       -4.7755  -20.8824  -45.0156 H         1 UNK         0.0800 
    142 H142       -3.5150  -19.8819  -45.6756 H         1 UNK         0.0800 
    143 H143       -2.3060  -22.0251  -46.4094 H         1 UNK         0.0600 
    144 H144       -2.2865  -20.7975  -43.8925 H         1 UNK         0.3000 
    145 H145       -0.7098  -21.8498  -41.9819 H         1 UNK         0.0600 
    146 H146        1.8071  -21.9470  -41.9330 H         1 UNK         0.0600 
    147 H147        1.0797  -23.4635  -42.4261 H         1 UNK         0.0600 
    148 H148        1.8082  -22.4071  -43.6339 H         1 UNK         0.0600 
    149 H149        1.0009  -20.0588  -43.5448 H         1 UNK         0.3000 
    150 H150       -1.0099  -17.1608  -42.8653 H         1 UNK         0.0600 
    151 H151        1.7733  -18.3086  -42.2862 H         1 UNK         0.0600 
    152 H152        0.7486  -17.3531  -41.2345 H         1 UNK         0.0600 
    153 H153        1.5063  -16.6199  -42.6363 H         1 UNK         0.0600 
    154 H154        1.0369  -17.7971  -44.8119 H         1 UNK         0.3000 
    155 H155       -1.1641  -18.5528  -47.4671 H         1 UNK         0.0600 
    156 H156        0.4581  -15.9835  -47.2145 H         1 UNK         0.0600 
    157 H157       -1.1960  -16.1308  -47.7792 H         1 UNK         0.0600 
    158 H158        0.1051  -16.8119  -48.7291 H         1 UNK         0.0600 
    159 H159        1.7053  -18.1488  -46.9819 H         1 UNK         0.3000 
    160 H160        2.3703  -21.4926  -46.2805 H         1 UNK         0.0600 
    161 H161        2.8965  -20.2341  -49.0296 H         1 UNK         0.0600 
    162 H162        2.1543  -21.8037  -48.7438 H         1 UNK         0.0600 
    163 H163        3.8317  -21.5389  -48.2967 H         1 UNK         0.0600 
    164 H164        4.0317  -19.2648  -47.0533 H         1 UNK         0.3000 
    165 H165        4.0711  -17.6623  -43.8619 H         1 UNK         0.0600 
    166 H166        6.5152  -17.9582  -44.1555 H         1 UNK         0.0600 
    167 H167        6.2489  -19.2264  -45.3521 H         1 UNK         0.0600 
    168 H168        5.7761  -19.4773  -43.6758 H         1 UNK         0.0600 
    169 H169        5.4000  -17.1226  -46.3447 H         1 UNK         0.3000 
    170 H170        4.7591  -15.0240  -47.3716 H         1 UNK         0.0600 
    171 H171        4.3787  -17.2022  -48.6388 H         1 UNK         0.0600 
    172 H172        2.6767  -16.7932  -48.8103 H         1 UNK         0.0600 
    173 H173        3.9114  -15.8208  -49.6009 H         1 UNK         0.0600 
    174 H174        2.0212  -14.4791  -46.8236 H         1 UNK         0.3000 
    175 H175        1.8465  -11.5658  -48.9876 H         1 UNK         0.0600 
    176 H176       -0.0285  -13.8747  -48.2772 H         1 UNK         0.0600 
    177 H177       -0.4946  -12.3132  -48.9371 H         1 UNK         0.0600 
    178 H178        0.4700  -13.4227  -49.8993 H         1 UNK         0.0600 
    179 H179        0.7183  -12.4334  -46.4100 H         1 UNK         0.3000 
    180 H180        2.5976  -10.1177  -44.5197 H         1 UNK         0.0600 
    181 H181       -0.2741   -9.5840  -45.4569 H         1 UNK         0.0600 
    182 H182        1.0628   -8.4447  -45.5584 H         1 UNK         0.0600 
    183 H183        0.4683   -8.9525  -43.9860 H         1 UNK         0.0600 
    184 H184        0.1352  -11.5393  -44.0299 H         1 UNK         0.3000 
    185 H185        1.4437  -14.6857  -43.5603 H         1 UNK         0.0600 
    186 H186        0.7550  -14.6363  -41.1560 H         1 UNK         0.0600 
    187 H187        2.3000  -13.8292  -41.3694 H         1 UNK         0.0600 
    188 H188        0.8363  -12.8752  -41.1559 H         1 UNK         0.0600 
    189 H189       -1.0348  -13.7375  -42.6285 H         1 UNK         0.3000 
    190 H190       -3.7136  -23.1541  -43.3793 H         1 UNK         0.3000 
    191 H191       -5.2615  -25.3182  -44.4511 H         1 UNK         0.0600 
    192 H192       -5.2850  -26.0934  -42.0763 H         1 UNK         0.0600 
    193 H193       -5.6717  -24.3844  -42.1931 H         1 UNK         0.0600 
    194 H194       -4.0697  -24.8919  -41.6574 H         1 UNK         0.0600 
    195 H195       -1.8618  -25.0402  -43.3704 H         1 UNK         0.3000 
    196 H196       -1.2649  -27.8701  -43.6099 H         1 UNK         0.0600 
    197 H197        0.6426  -25.4799  -43.4655 H         1 UNK         0.0600 
    198 H198       -0.0165  -26.3216  -42.0606 H         1 UNK         0.0600 
    199 H199        1.0455  -27.1639  -43.1793 H         1 UNK         0.0600 
    200 H200       -0.9837  -24.9904  -45.6686 H         1 UNK         0.3000 
    201 H201        0.2400  -26.3061  -47.9318 H         1 UNK         0.0600 
    202 H202       -1.3604  -23.6948  -47.7858 H         1 UNK         0.0600 
    203 H203       -0.2703  -24.1788  -49.0760 H         1 UNK         0.0600 
    204 H204        0.3681  -23.8277  -47.4779 H         1 UNK         0.0600 
    205 H205       -2.8145  -26.7259  -46.6213 H         1 UNK         0.3000 
    206 H206       -4.7627  -27.5684  -47.2181 H         1 UNK         0.0600 
    207 H207       -3.3024  -29.4505  -48.0016 H         1 UNK         0.0600 
    208 H208       -4.7870  -29.3448  -48.9325 H         1 UNK         0.0600 
    209 H209       -3.2794  -28.7583  -49.6232 H         1 UNK         0.0600 
    210 H210       -4.2702  -24.9046  -48.0274 H         1 UNK         0.3000 
    211 H211       -4.9812  -23.1908  -49.1713 H         1 UNK         0.0600 
    212 H212       -7.2640  -23.1668  -50.0812 H         1 UNK         0.0600 
    213 H213       -7.2420  -24.0846  -48.5861 H         1 UNK         0.0600 
    214 H214       -7.3114  -24.9231  -50.1368 H         1 UNK         0.0600 
    215 H215       -3.2718  -25.3553  -50.6883 H         1 UNK         0.3000 
    216 H216       -3.8393  -24.9485  -53.4652 H         1 UNK         0.0600 
    217 H217       -1.2130  -25.7800  -52.1232 H         1 UNK         0.0600 
    218 H218       -1.6394  -26.0077  -53.8134 H         1 UNK         0.0600 
    219 H219       -2.5185  -26.8799  -52.5657 H         1 UNK         0.0600 
    220 H220       -1.9119  -23.1609  -51.1117 H         1 UNK         0.3000 
    221 H221       -0.4917  -21.4642  -52.9202 H         1 UNK         0.0600 
    222 H222        0.2538  -21.7945  -50.5976 H         1 UNK         0.0600 
    223 H223       -1.2374  -21.1066  -49.9663 H         1 UNK         0.0600 
    224 H224       -0.0988  -20.0922  -50.8419 H         1 UNK         0.0600 
    225 H225       -3.8045  -21.3682  -51.7493 H         1 UNK         0.3000 
    226 H226       -4.2854  -18.5619  -52.0926 H         1 UNK         0.0600 
    227 H227       -6.2842  -20.8748  -51.9710 H         1 UNK         0.0600 
    228 H228       -5.6423  -20.0164  -50.5700 H         1 UNK         0.0600 
    229 H229       -6.6403  -19.1722  -51.7371 H         1 UNK         0.0600 
    230 H230       -4.1170  -21.1934  -54.3430 H         1 UNK         0.3000 
    231 H231       -5.7078  -19.9669  -56.4549 H         1 UNK         0.0600 
    232 H232       -3.7018  -22.2851  -56.5134 H         1 UNK         0.0600 
    233 H233       -4.8321  -21.8633  -57.7930 H         1 UNK         0.0600 
    234 H234       -5.4385  -22.4438  -56.2499 H         1 UNK         0.0600 
    235 H235       -2.5536  -19.4020  -55.1951 H         1 UNK         0.3000 
    236 H236       -1.5641  -18.2059  -57.7591 H         1 UNK         0.0600 
    237 H237       -0.1936  -20.1278  -57.0899 H         1 UNK         0.0600 
    238 H238        0.7105  -18.6464  -56.8148 H         1 UNK         0.0600 
    239 H239       -0.0126  -19.4999  -55.4555 H         1 UNK         0.0600 
    240 H240       -1.1035  -17.9279  -54.1935 H         1 UNK         0.3000 
    241 H241       -0.4145  -16.2998  -52.9136 H         1 UNK         0.0600 
    242 H242        1.3464  -13.2531  -54.4367 H         1 UNK         0.3800 
    243 H243       -0.1846  -13.2511  -53.6149 H         1 UNK         0.3800 
    244 H244       -2.5297  -14.6683  -54.4001 H         1 UNK         0.0800 
    245 H245       -1.7691  -14.1169  -52.9320 H         1 UNK         0.0800 
    246 H246       -2.4379  -14.6574  -50.6026 H         1 UNK         0.0800 
    247 H247       -1.4695  -16.0864  -50.8494 H         1 UNK         0.0800 
@<TRIPOS>BOND
     1    1    2 1    
     2    1  127 1    
     3    1  128 1    
     4    1  129 1    
     5    2    3 2    
     6    2    4 am   BACKBONE|DICT|INTERRES
     7    4    5 1    
     8    4  130 1    
     9    5    6 1    
    10    5   65 1    
    11    5  131 1    
    12    6    7 1    
    13    6  132 1    
    14    6  133 1    
    15    7    8 1    
    16    8    9 1    
    17    8  134 1    
    18    8  135 1    
    19    9   10 ar   
    20    9   14 ar   
    21   10   11 ar   
    22   10  136 1    
    23   11   12 ar   
    24   11  126 1    
    25   12   13 ar   
    26   12  137 1    
    27   13   14 ar   
    28   13   15 1    
    29   14  138 1    
    30   15   16 1    
    31   15  139 1    
    32   15  140 1    
    33   16   17 1    
    34   17   18 1    
    35   17  141 1    
    36   17  142 1    
    37   18   19 1    
    38   18   67 1    
    39   18  143 1    
    40   19   20 am   BACKBONE|DICT|INTERRES
    41   19  144 1    
    42   20   21 2    
    43   20   22 1    
    44   22   23 1    
    45   22   24 1    
    46   22  145 1    
    47   23  146 1    
    48   23  147 1    
    49   23  148 1    
    50   24   25 am   BACKBONE|DICT|INTERRES
    51   24  149 1    
    52   25   26 2    
    53   25   27 1    
    54   27   28 1    
    55   27   29 1    
    56   27  150 1    
    57   28  151 1    
    58   28  152 1    
    59   28  153 1    
    60   29   30 am   BACKBONE|DICT|INTERRES
    61   29  154 1    
    62   30   31 2    
    63   30   32 1    
    64   32   33 1    
    65   32   34 1    
    66   32  155 1    
    67   33  156 1    
    68   33  157 1    
    69   33  158 1    
    70   34   35 am   BACKBONE|DICT|INTERRES
    71   34  159 1    
    72   35   36 2    
    73   35   37 1    
    74   37   38 1    
    75   37   39 1    
    76   37  160 1    
    77   38  161 1    
    78   38  162 1    
    79   38  163 1    
    80   39   40 am   BACKBONE|DICT|INTERRES
    81   39  164 1    
    82   40   41 2    
    83   40   42 1    
    84   42   43 1    
    85   42   44 1    
    86   42  165 1    
    87   43  166 1    
    88   43  167 1    
    89   43  168 1    
    90   44   45 am   BACKBONE|DICT|INTERRES
    91   44  169 1    
    92   45   46 2    
    93   45   47 1    
    94   47   48 1    
    95   47   49 1    
    96   47  170 1    
    97   48  171 1    
    98   48  172 1    
    99   48  173 1    
   100   49   50 am   BACKBONE|DICT|INTERRES
   101   49  174 1    
   102   50   51 2    
   103   50   52 1    
   104   52   53 1    
   105   52   54 1    
   106   52  175 1    
   107   53  176 1    
   108   53  177 1    
   109   53  178 1    
   110   54   55 am   BACKBONE|DICT|INTERRES
   111   54  179 1    
   112   55   56 2    
   113   55   57 1    
   114   57   58 1    
   115   57   59 1    
   116   57  180 1    
   117   58  181 1    
   118   58  182 1    
   119   58  183 1    
   120   59   60 am   BACKBONE|DICT|INTERRES
   121   59  184 1    
   122   60   61 2    
   123   60   62 1    
   124   62   63 1    
   125   62   64 1    
   126   62  185 1    
   127   63  186 1    
   128   63  187 1    
   129   63  188 1    
   130   64   65 am   BACKBONE|DICT|INTERRES
   131   64  189 1    
   132   65   66 2    
   133   67   68 2    
   134   67   69 am   BACKBONE|DICT|INTERRES
   135   69   70 1    
   136   69  190 1    
   137   70   71 1    
   138   70   72 1    
   139   70  191 1    
   140   71  192 1    
   141   71  193 1    
   142   71  194 1    
   143   72   73 2    
   144   72   74 am   BACKBONE|DICT|INTERRES
   145   74   75 1    
   146   74  195 1    
   147   75   76 1    
   148   75   77 1    
   149   75  196 1    
   150   76  197 1    
   151   76  198 1    
   152   76  199 1    
   153   77   78 2    
   154   77   79 am   BACKBONE|DICT|INTERRES
   155   79   80 1    
   156   79  200 1    
   157   80   81 1    
   158   80   82 1    
   159   80  201 1    
   160   81  202 1    
   161   81  203 1    
   162   81  204 1    
   163   82   83 2    
   164   82   84 am   BACKBONE|DICT|INTERRES
   165   84   85 1    
   166   84  205 1    
   167   85   86 1    
   168   85   87 1    
   169   85  206 1    
   170   86  207 1    
   171   86  208 1    
   172   86  209 1    
   173   87   88 2    
   174   87   89 am   BACKBONE|DICT|INTERRES
   175   89   90 1    
   176   89  210 1    
   177   90   91 1    
   178   90   92 1    
   179   90  211 1    
   180   91  212 1    
   181   91  213 1    
   182   91  214 1    
   183   92   93 2    
   184   92   94 am   BACKBONE|DICT|INTERRES
   185   94   95 1    
   186   94  215 1    
   187   95   96 1    
   188   95   97 1    
   189   95  216 1    
   190   96  217 1    
   191   96  218 1    
   192   96  219 1    
   193   97   98 2    
   194   97   99 am   BACKBONE|DICT|INTERRES
   195   99  100 1    
   196   99  220 1    
   197  100  101 1    
   198  100  102 1    
   199  100  221 1    
   200  101  222 1    
   201  101  223 1    
   202  101  224 1    
   203  102  103 2    
   204  102  104 am   BACKBONE|DICT|INTERRES
   205  104  105 1    
   206  104  225 1    
   207  105  106 1    
   208  105  107 1    
   209  105  226 1    
   210  106  227 1    
   211  106  228 1    
   212  106  229 1    
   213  107  108 2    
   214  107  109 am   BACKBONE|DICT|INTERRES
   215  109  110 1    
   216  109  230 1    
   217  110  111 1    
   218  110  112 1    
   219  110  231 1    
   220  111  232 1    
   221  111  233 1    
   222  111  234 1    
   223  112  113 2    
   224  112  114 am   BACKBONE|DICT|INTERRES
   225  114  115 1    
   226  114  235 1    
   227  115  116 1    
   228  115  117 1    
   229  115  236 1    
   230  116  237 1    
   231  116  238 1    
   232  116  239 1    
   233  117  118 2    
   234  117  119 am   BACKBONE|DICT|INTERRES
   235  119  120 1    
   236  119  240 1    
   237  120  121 1    
   238  120  124 1    
   239  120  241 1    
   240  121  122 am   BACKBONE|DICT|INTERRES
   241  121  123 2    
   242  122  242 1    
   243  122  243 1    
   244  124  125 1    
   245  124  244 1    
   246  124  245 1    
   247  125  126 1    
   248  126  246 1    
   249  126  247 1    
@<TRIPOS>SUBSTRUCTURE
     1 UNK         1 GROUP             0       ****    0 ROOT    
