@<TRIPOS>MOLECULE
3R540
247   249    1
SMALL
USER_CHARGES


@<TRIPOS>ATOM
      1 CA         -0.4127  -13.6177  -47.0570 C.3       0 UNK        -0.1800 
      2 C           0.8473  -13.0626  -47.6990 C.2       0 UNK         0.5000 
      3 O           1.3515  -12.0273  -47.2642 O.2       0 UNK        -0.5000 
      4 N           1.3740  -13.7566  -48.7155 N.am      1 UNK        -0.5000 
      5 CA          2.5447  -13.3660  -49.5151 C.3       1 UNK         0.1400 
      6 C6          2.5028  -13.9938  -50.9321 C.3       23 UNK        -0.0398 
      7 S7          1.0678  -13.3881  -51.8864 S.3       23 UNK        -0.2404 
      8 C8          0.3757  -14.9219  -52.5843 C.3       23 UNK        -0.0205 
      9 C9         -0.2827  -15.8230  -51.5465 C.ar      23 UNK        -0.0193 
     10 C10        -1.3155  -15.3427  -50.7345 C.ar      23 UNK        -0.1150 
     11 C11        -1.9560  -16.1866  -49.8219 C.ar      23 UNK        -0.0193 
     12 C12        -1.5640  -17.5249  -49.7323 C.ar      23 UNK        -0.1150 
     13 C13        -0.5352  -18.0184  -50.5402 C.ar      23 UNK        -0.0193 
     14 C14         0.1052  -17.1613  -51.4389 C.ar      23 UNK        -0.1150 
     15 C15        -0.1386  -19.4855  -50.4778 C.3       23 UNK        -0.0205 
     16 S16         1.3008  -19.7709  -49.4002 S.3       23 UNK        -0.2404 
     17 C17         0.5746  -19.5929  -47.7377 C.3       23 UNK        -0.0398 
     18 CA          0.2098  -20.9397  -47.0743 C.3       11 UNK         0.1400 
     19 N           0.0060  -20.8050  -45.6313 N.am      11 UNK        -0.5000 
     20 C          -0.0404  -21.8346  -44.7740 C.2       10 UNK         0.5000 
     21 O           0.1417  -23.0071  -45.1000 O.2       10 UNK        -0.5000 
     22 CA         -0.4074  -21.4981  -43.3184 C.3       10 UNK         0.1400 
     23 CB          0.8396  -21.0857  -42.5220 C.3       10 UNK        -0.1800 
     24 N          -1.4208  -20.4438  -43.2393 N.am      10 UNK        -0.5000 
     25 C          -2.6978  -20.6127  -43.6158 C.2       9 UNK         0.5000 
     26 O          -3.1462  -21.6785  -44.0363 O.2       9 UNK        -0.5000 
     27 CA         -3.6222  -19.3819  -43.5573 C.3       9 UNK         0.1400 
     28 CB         -4.3025  -19.2873  -42.1839 C.3       9 UNK        -0.1800 
     29 N          -2.9411  -18.1191  -43.8446 N.am      9 UNK        -0.5000 
     30 C          -2.3125  -17.8214  -44.9893 C.2       8 UNK         0.5000 
     31 O          -2.2383  -18.5921  -45.9489 O.2       8 UNK        -0.5000 
     32 CA         -1.6065  -16.4538  -45.0762 C.3       8 UNK         0.1400 
     33 CB         -1.8154  -15.5441  -43.8431 C.3       8 UNK        -0.1800 
     34 N          -0.1773  -16.6175  -45.3598 N.am      8 UNK        -0.5000 
     35 C           0.7182  -17.2667  -44.6039 C.2       7 UNK         0.5000 
     36 O           0.4312  -17.8288  -43.5447 O.2       7 UNK        -0.5000 
     37 CA          2.1729  -17.3067  -45.1050 C.3       7 UNK         0.1400 
     38 CB          2.4453  -16.4533  -46.3626 C.3       7 UNK        -0.1800 
     39 N           3.0127  -16.8533  -44.0110 N.am      7 UNK        -0.5000 
     40 C           4.1126  -17.4593  -43.5538 C.2       6 UNK         0.5000 
     41 O           4.6745  -18.3992  -44.1169 O.2       6 UNK        -0.5000 
     42 CA          4.6393  -16.9438  -42.2017 C.3       6 UNK         0.1400 
     43 CB          5.4753  -15.6701  -42.3980 C.3       6 UNK        -0.1800 
     44 N           3.5383  -16.6697  -41.2738 N.am      6 UNK        -0.5000 
     45 C           2.7420  -17.6028  -40.7328 C.2       5 UNK         0.5000 
     46 O           2.9588  -18.8110  -40.8295 O.2       5 UNK        -0.5000 
     47 CA          1.4737  -17.1325  -39.9871 C.3       5 UNK         0.1400 
     48 CB          1.7070  -17.0750  -38.4650 C.3       5 UNK        -0.1800 
     49 N           0.8804  -15.8848  -40.4955 N.am      5 UNK        -0.5000 
     50 C           1.3695  -14.6400  -40.4289 C.2       4 UNK         0.5000 
     51 O           2.4309  -14.3443  -39.8757 O.2       4 UNK        -0.5000 
     52 CA          0.5614  -13.5426  -41.1490 C.3       4 UNK         0.1400 
     53 CB         -0.2430  -12.7081  -40.1416 C.3       4 UNK        -0.1800 
     54 N           1.4437  -12.6603  -41.9155 N.am      4 UNK        -0.5000 
     55 C           2.2022  -13.0712  -42.9388 C.2       3 UNK         0.5000 
     56 O           2.1260  -14.2046  -43.4262 O.2       3 UNK        -0.5000 
     57 CA          3.2402  -12.0746  -43.4819 C.3       3 UNK         0.1400 
     58 CB          4.3020  -11.7534  -42.4073 C.3       3 UNK        -0.1800 
     59 N           3.8460  -12.6898  -44.6579 N.am      3 UNK        -0.5000 
     60 C           4.7703  -12.1875  -45.4826 C.2       2 UNK         0.5000 
     61 O           5.2737  -11.0694  -45.3736 O.2       2 UNK        -0.5000 
     62 CA          5.1386  -13.0811  -46.6725 C.3       2 UNK         0.1400 
     63 CB          5.6361  -14.4707  -46.2209 C.3       2 UNK        -0.1800 
     64 N           3.9552  -13.1679  -47.5211 N.am      2 UNK        -0.5000 
     65 C           3.8874  -13.6095  -48.7802 C.2       1 UNK         0.5000 
     66 O           4.8272  -14.1554  -49.3605 O.2       1 UNK        -0.5000 
     67 C          -1.0178  -21.5906  -47.7349 C.2       11 UNK         0.5000 
     68 O          -0.8521  -22.5166  -48.5263 O.2       11 UNK        -0.5000 
     69 N          -2.2222  -21.1285  -47.3667 N.am      12 UNK        -0.5000 
     70 CA         -3.4970  -21.6692  -47.8416 C.3       12 UNK         0.1400 
     71 CB         -4.6557  -20.8550  -47.2514 C.3       12 UNK        -0.1800 
     72 C          -3.6676  -23.1630  -47.5149 C.2       12 UNK         0.5000 
     73 O          -4.0892  -23.9266  -48.3833 O.2       12 UNK        -0.5000 
     74 N          -3.2928  -23.5541  -46.2881 N.am      13 UNK        -0.5000 
     75 CA         -3.2688  -24.9398  -45.8246 C.3       13 UNK         0.1400 
     76 CB         -3.0071  -24.9729  -44.3114 C.3       13 UNK        -0.1800 
     77 C          -2.2379  -25.8010  -46.5758 C.2       13 UNK         0.5000 
     78 O          -2.5726  -26.9109  -46.9896 O.2       13 UNK        -0.5000 
     79 N          -1.0193  -25.2721  -46.7637 N.am      14 UNK        -0.5000 
     80 CA          0.0693  -25.9340  -47.4891 C.3       14 UNK         0.1400 
     81 CB          1.3726  -25.1429  -47.3010 C.3       14 UNK        -0.1800 
     82 C          -0.2362  -26.1315  -48.9857 C.2       14 UNK         0.5000 
     83 O           0.0531  -27.1970  -49.5314 O.2       14 UNK        -0.5000 
     84 N          -0.8398  -25.1136  -49.6123 N.am      15 UNK        -0.5000 
     85 CA         -1.3001  -25.1387  -51.0007 C.3       15 UNK         0.1400 
     86 CB         -1.5246  -23.6926  -51.4764 C.3       15 UNK        -0.1800 
     87 C          -2.5884  -25.9590  -51.1993 C.2       15 UNK         0.5000 
     88 O          -2.9234  -26.2727  -52.3398 O.2       15 UNK        -0.5000 
     89 N          -3.3155  -26.2434  -50.1082 N.am      16 UNK        -0.5000 
     90 CA         -4.6506  -26.8529  -50.0632 C.3       16 UNK         0.1400 
     91 CB         -4.5889  -28.3334  -50.4913 C.3       16 UNK        -0.1800 
     92 C          -5.6947  -26.0333  -50.8556 C.2       16 UNK         0.5000 
     93 O          -6.5726  -26.6034  -51.5054 O.2       16 UNK        -0.5000 
     94 N          -5.5401  -24.7010  -50.8077 N.am      17 UNK        -0.5000 
     95 CA         -6.2937  -23.6692  -51.5293 C.3       17 UNK         0.1400 
     96 CB         -7.7539  -23.6270  -51.0341 C.3       17 UNK        -0.1800 
     97 C          -6.2012  -23.7520  -53.0726 C.2       17 UNK         0.5000 
     98 O          -7.0130  -23.1253  -53.7582 O.2       17 UNK        -0.5000 
     99 N          -5.2257  -24.5038  -53.6096 N.am      18 UNK        -0.5000 
    100 CA        -4.9989  -24.6674  -55.0478 C.3       18 UNK         0.1400 
    101 CB        -3.9176  -25.7304  -55.2858 C.3       18 UNK        -0.1800 
    102 C         -4.6037  -23.3451  -55.7269 C.2       18 UNK         0.5000 
    103 O         -3.9384  -22.5116  -55.1083 O.2       18 UNK        -0.5000 
    104 N         -5.0467  -23.1732  -56.9810 N.am      19 UNK        -0.5000 
    105 CA        -4.8568  -21.9861  -57.8295 C.3       19 UNK         0.1400 
    106 CB        -3.3709  -21.8333  -58.2173 C.3       19 UNK        -0.1800 
    107 C         -5.4449  -20.6865  -57.2301 C.2       19 UNK         0.5000 
    108 O         -5.0244  -19.5928  -57.6105 O.2       19 UNK        -0.5000 
    109 N         -6.3983  -20.8365  -56.2964 N.am      20 UNK        -0.5000 
    110 CA        -7.0253  -19.7929  -55.4814 C.3       20 UNK         0.1400 
    111 CB        -7.8869  -18.8553  -56.3533 C.3       20 UNK        -0.1800 
    112 C         -6.0240  -19.0329  -54.5829 C.2       20 UNK         0.5000 
    113 O         -6.2406  -17.8555  -54.2866 O.2       20 UNK        -0.5000 
    114 N         -4.9522  -19.7118  -54.1448 N.am      21 UNK        -0.5000 
    115 CA        -3.9155  -19.1848  -53.2527 C.3       21 UNK         0.1400 
    116 CB        -2.6460  -20.0392  -53.4086 C.3       21 UNK        -0.1800 
    117 C         -4.4025  -19.1023  -51.7895 C.2       21 UNK         0.5000 
    118 O         -3.8636  -19.7815  -50.9139 O.2       21 UNK        -0.5000 
    119 N         -5.4338  -18.2774  -51.5726 N.am      22 UNK        -0.5000 
    120 CA        -6.1528  -18.0568  -50.3085 C.3       22 UNK         0.1400 
    121 C         -6.9276  -19.3111  -49.7963 C.2       22 UNK         0.5000 
    122 N         -7.5512  -19.2397  -48.6269 N.am      22 UNK        -0.7600 
    123 O         -7.0268  -20.3366  -50.4652 O.2       22 UNK        -0.5000 
    124 C124       -5.2592  -17.3918  -49.2233 C.3       23 UNK        -0.0398 
    125 S125       -4.6931  -15.7299  -49.7242 S.3       23 UNK        -0.2404 
    126 C126       -3.0611  -15.6434  -48.9293 C.3       23 UNK        -0.0205 
    127 H127       -0.6818  -14.5852  -47.4781 H         1 UNK         0.0600 
    128 H128       -0.2601  -13.7351  -45.9846 H         1 UNK         0.0600 
    129 H129       -1.2462  -12.9328  -47.2116 H         1 UNK         0.0600 
    130 H130        0.9115  -14.5974  -49.0296 H         1 UNK         0.3000 
    131 H131        2.4968  -12.2836  -49.6547 H         1 UNK         0.0600 
    132 H132        3.3964  -13.7320  -51.5012 H         1 UNK         0.0800 
    133 H133        2.4863  -15.0830  -50.8689 H         1 UNK         0.0800 
    134 H134       -0.3736  -14.6550  -53.3306 H         1 UNK         0.0800 
    135 H135        1.1639  -15.4522  -53.1212 H         1 UNK         0.0800 
    136 H136       -1.6263  -14.3107  -50.8195 H         1 UNK         0.1150 
    137 H137       -2.0684  -18.1874  -49.0432 H         1 UNK         0.1150 
    138 H138        0.8930  -17.5468  -52.0710 H         1 UNK         0.1150 
    139 H139       -0.9852  -20.0954  -50.1604 H         1 UNK         0.0800 
    140 H140        0.1167  -19.8341  -51.4792 H         1 UNK         0.0800 
    141 H141       -0.2697  -18.9055  -47.7482 H         1 UNK         0.0800 
    142 H142        1.3430  -19.1078  -47.1436 H         1 UNK         0.0800 
    143 H143        1.0544  -21.6182  -47.2147 H         1 UNK         0.0600 
    144 H144       -0.2426  -19.8894  -45.2862 H         1 UNK         0.3000 
    145 H145       -0.8181  -22.4003  -42.8596 H         1 UNK         0.0600 
    146 H146        0.5893  -20.8426  -41.4893 H         1 UNK         0.0600 
    147 H147        1.5687  -21.8964  -42.4971 H         1 UNK         0.0600 
    148 H148        1.3359  -20.2186  -42.9581 H         1 UNK         0.0600 
    149 H149       -1.1066  -19.5266  -42.9491 H         1 UNK         0.3000 
    150 H150       -4.3987  -19.5157  -44.3124 H         1 UNK         0.0600 
    151 H151       -4.8404  -20.2073  -41.9506 H         1 UNK         0.0600 
    152 H152       -5.0275  -18.4737  -42.1573 H         1 UNK         0.0600 
    153 H153       -3.5779  -19.1192  -41.3860 H         1 UNK         0.0600 
    154 H154       -2.9342  -17.4346  -43.1030 H         1 UNK         0.3000 
    155 H155       -2.0418  -15.9426  -45.9335 H         1 UNK         0.0600 
    156 H156       -1.3140  -14.5862  -43.9788 H         1 UNK         0.0600 
    157 H157       -1.4254  -15.9886  -42.9275 H         1 UNK         0.0600 
    158 H158       -2.8730  -15.3279  -43.6868 H         1 UNK         0.0600 
    159 H159        0.1455  -16.2157  -46.2260 H         1 UNK         0.3000 
    160 H160        2.3976  -18.3511  -45.3256 H         1 UNK         0.0600 
    161 H161        2.2969  -15.3906  -46.1683 H         1 UNK         0.0600 
    162 H162        1.8047  -16.7369  -47.1981 H         1 UNK         0.0600 
    163 H163        3.4719  -16.5873  -46.7025 H         1 UNK         0.0600 
    164 H164        2.6322  -16.0719  -43.4843 H         1 UNK         0.3000 
    165 H165        5.2771  -17.7145  -41.7642 H         1 UNK         0.0600 
    166 H166        4.8933  -14.8777  -42.8679 H         1 UNK         0.0600 
    167 H167        5.8535  -15.2930  -41.4478 H         1 UNK         0.0600 
    168 H168        6.3363  -15.8652  -43.0386 H         1 UNK         0.0600 
    169 H169        3.3159  -15.6990  -41.0859 H         1 UNK         0.3000 
    170 H170        0.7191  -17.8998  -40.1688 H         1 UNK         0.0600 
    171 H171        2.0120  -18.0503  -38.0839 H         1 UNK         0.0600 
    172 H172        2.4899  -16.3655  -38.1964 H         1 UNK         0.0600 
    173 H173        0.7976  -16.7896  -37.9363 H         1 UNK         0.0600 
    174 H174        0.0257  -16.0212  -41.0160 H         1 UNK         0.3000 
    175 H175       -0.1359  -14.0111  -41.8457 H         1 UNK         0.0600 
    176 H176       -0.8449  -11.9522  -40.6464 H         1 UNK         0.0600 
    177 H177       -0.9257  -13.3384  -39.5702 H         1 UNK         0.0600 
    178 H178        0.4081  -12.1996  -39.4293 H         1 UNK         0.0600 
    179 H179        1.5784  -11.7306  -41.5466 H         1 UNK         0.3000 
    180 H180        2.7240  -11.1625  -43.7863 H         1 UNK         0.0600 
    181 H181        4.8514  -12.6440  -42.1026 H         1 UNK         0.0600 
    182 H182        3.8454  -11.3320  -41.5114 H         1 UNK         0.0600 
    183 H183        5.0266  -11.0205  -42.7602 H         1 UNK         0.0600 
    184 H184        3.4693  -13.6124  -44.8400 H         1 UNK         0.3000 
    185 H185        5.9337  -12.5883  -47.2357 H         1 UNK         0.0600 
    186 H186        5.9300  -15.0871  -47.0700 H         1 UNK         0.0600 
    187 H187        6.5105  -14.3750  -45.5764 H         1 UNK         0.0600 
    188 H188        4.8802  -15.0178  -45.6594 H         1 UNK         0.0600 
    189 H189        3.1284  -12.6951  -47.1616 H         1 UNK         0.3000 
    190 H190       -2.2709  -20.3333  -46.7360 H         1 UNK         0.3000 
    191 H191       -3.5165  -21.5601  -48.9275 H         1 UNK         0.0600 
    192 H192       -4.5466  -19.7935  -47.4676 H         1 UNK         0.0600 
    193 H193       -5.6070  -21.1810  -47.6728 H         1 UNK         0.0600 
    194 H194       -4.7223  -20.9712  -46.1704 H         1 UNK         0.0600 
    195 H195       -3.0150  -22.8473  -45.6138 H         1 UNK         0.3000 
    196 H196       -4.2562  -25.3690  -46.0070 H         1 UNK         0.0600 
    197 H197       -2.9895  -25.9979  -43.9391 H         1 UNK         0.0600 
    198 H198       -3.7878  -24.4424  -43.7659 H         1 UNK         0.0600 
    199 H199       -2.0516  -24.5130  -44.0570 H         1 UNK         0.0600 
    200 H200       -0.8093  -24.3626  -46.3668 H         1 UNK         0.3000 
    201 H201        0.2091  -26.9231  -47.0481 H         1 UNK         0.0600 
    202 H202        1.6462  -25.0799  -46.2477 H         1 UNK         0.0600 
    203 H203        1.2861  -24.1264  -47.6857 H         1 UNK         0.0600 
    204 H204        2.2008  -25.6231  -47.8235 H         1 UNK         0.0600 
    205 H205       -0.9794  -24.2399  -49.1068 H         1 UNK         0.3000 
    206 H206       -0.5214  -25.5883  -51.6201 H         1 UNK         0.0600 
    207 H207       -1.8353  -23.6643  -52.5219 H         1 UNK         0.0600 
    208 H208       -2.2983  -23.1926  -50.8917 H         1 UNK         0.0600 
    209 H209       -0.6117  -23.1025  -51.3927 H         1 UNK         0.0600 
    210 H210       -2.9669  -25.9093  -49.2195 H         1 UNK         0.3000 
    211 H211       -4.9648  -26.8211  -49.0190 H         1 UNK         0.0600 
    212 H212       -4.3363  -28.4408  -51.5465 H         1 UNK         0.0600 
    213 H213       -5.5488  -28.8261  -50.3329 H         1 UNK         0.0600 
    214 H214       -3.8450  -28.8790  -49.9107 H         1 UNK         0.0600 
    215 H215       -4.8233  -24.3530  -50.1769 H         1 UNK         0.3000 
    216 H216       -5.8275  -22.7208  -51.2578 H         1 UNK         0.0600 
    217 H217       -7.7978  -23.5359  -49.9488 H         1 UNK         0.0600 
    218 H218       -8.3067  -24.5215  -51.3215 H         1 UNK         0.0600 
    219 H219       -8.2831  -22.7679  -51.4481 H         1 UNK         0.0600 
    220 H220       -4.5822  -24.9892  -52.9971 H         1 UNK         0.3000 
    221 H221       -5.9330  -25.0226  -55.4877 H         1 UNK         0.0600 
    222 H222       -2.9521  -25.4153  -54.8880 H         1 UNK         0.0600 
    223 H223       -4.1834  -26.6778  -54.8164 H         1 UNK         0.0600 
    224 H224       -3.7846  -25.9218  -56.3512 H         1 UNK         0.0600 
    225 H225       -5.5937  -23.9137  -57.3990 H         1 UNK         0.3000 
    226 H226       -5.4186  -22.1735  -58.7456 H         1 UNK         0.0600 
    227 H227       -2.9764  -22.7574  -58.6398 H         1 UNK         0.0600 
    228 H228       -3.2389  -21.0536  -58.9683 H         1 UNK         0.0600 
    229 H229       -2.7539  -21.5666  -57.3586 H         1 UNK         0.0600 
    230 H230       -6.6543  -21.7821  -56.0463 H         1 UNK         0.3000 
    231 H231       -7.6982  -20.3129  -54.7979 H         1 UNK         0.0600 
    232 H232       -8.5861  -19.4211  -56.9690 H         1 UNK         0.0600 
    233 H233       -7.2761  -18.2416  -57.0158 H         1 UNK         0.0600 
    234 H234       -8.4770  -18.1784  -55.7345 H         1 UNK         0.0600 
    235 H235       -4.8317  -20.6748  -54.4385 H         1 UNK         0.3000 
    236 H236       -3.6670  -18.1698  -53.5701 H         1 UNK         0.0600 
    237 H237       -1.8237  -19.6130  -52.8360 H         1 UNK         0.0600 
    238 H238       -2.7998  -21.0609  -53.0586 H         1 UNK         0.0600 
    239 H239       -2.3257  -20.0868  -54.4496 H         1 UNK         0.0600 
    240 H240       -5.8292  -17.8197  -52.3877 H         1 UNK         0.3000 
    241 H241       -6.9409  -17.3473  -50.5627 H         1 UNK         0.0600 
    242 H242       -7.5498  -18.4029  -48.0664 H         1 UNK         0.3800 
    243 H243       -8.0755  -20.0409  -48.3131 H         1 UNK         0.3800 
    244 H244       -5.7971  -17.2683  -48.2833 H         1 UNK         0.0800 
    245 H245       -4.4018  -18.0249  -48.9991 H         1 UNK         0.0800 
    246 H246       -2.8539  -14.6012  -48.6834 H         1 UNK         0.0800 
    247 H247       -3.0863  -16.1817  -47.9819 H         1 UNK         0.0800 
@<TRIPOS>BOND
     1    1    2 1    
     2    1  127 1    
     3    1  128 1    
     4    1  129 1    
     5    2    3 2    
     6    2    4 am   BACKBONE|DICT|INTERRES
     7    4    5 1    
     8    4  130 1    
     9    5    6 1    
    10    5   65 1    
    11    5  131 1    
    12    6    7 1    
    13    6  132 1    
    14    6  133 1    
    15    7    8 1    
    16    8    9 1    
    17    8  134 1    
    18    8  135 1    
    19    9   10 ar   
    20    9   14 ar   
    21   10   11 ar   
    22   10  136 1    
    23   11   12 ar   
    24   11  126 1    
    25   12   13 ar   
    26   12  137 1    
    27   13   14 ar   
    28   13   15 1    
    29   14  138 1    
    30   15   16 1    
    31   15  139 1    
    32   15  140 1    
    33   16   17 1    
    34   17   18 1    
    35   17  141 1    
    36   17  142 1    
    37   18   19 1    
    38   18   67 1    
    39   18  143 1    
    40   19   20 am   BACKBONE|DICT|INTERRES
    41   19  144 1    
    42   20   21 2    
    43   20   22 1    
    44   22   23 1    
    45   22   24 1    
    46   22  145 1    
    47   23  146 1    
    48   23  147 1    
    49   23  148 1    
    50   24   25 am   BACKBONE|DICT|INTERRES
    51   24  149 1    
    52   25   26 2    
    53   25   27 1    
    54   27   28 1    
    55   27   29 1    
    56   27  150 1    
    57   28  151 1    
    58   28  152 1    
    59   28  153 1    
    60   29   30 am   BACKBONE|DICT|INTERRES
    61   29  154 1    
    62   30   31 2    
    63   30   32 1    
    64   32   33 1    
    65   32   34 1    
    66   32  155 1    
    67   33  156 1    
    68   33  157 1    
    69   33  158 1    
    70   34   35 am   BACKBONE|DICT|INTERRES
    71   34  159 1    
    72   35   36 2    
    73   35   37 1    
    74   37   38 1    
    75   37   39 1    
    76   37  160 1    
    77   38  161 1    
    78   38  162 1    
    79   38  163 1    
    80   39   40 am   BACKBONE|DICT|INTERRES
    81   39  164 1    
    82   40   41 2    
    83   40   42 1    
    84   42   43 1    
    85   42   44 1    
    86   42  165 1    
    87   43  166 1    
    88   43  167 1    
    89   43  168 1    
    90   44   45 am   BACKBONE|DICT|INTERRES
    91   44  169 1    
    92   45   46 2    
    93   45   47 1    
    94   47   48 1    
    95   47   49 1    
    96   47  170 1    
    97   48  171 1    
    98   48  172 1    
    99   48  173 1    
   100   49   50 am   BACKBONE|DICT|INTERRES
   101   49  174 1    
   102   50   51 2    
   103   50   52 1    
   104   52   53 1    
   105   52   54 1    
   106   52  175 1    
   107   53  176 1    
   108   53  177 1    
   109   53  178 1    
   110   54   55 am   BACKBONE|DICT|INTERRES
   111   54  179 1    
   112   55   56 2    
   113   55   57 1    
   114   57   58 1    
   115   57   59 1    
   116   57  180 1    
   117   58  181 1    
   118   58  182 1    
   119   58  183 1    
   120   59   60 am   BACKBONE|DICT|INTERRES
   121   59  184 1    
   122   60   61 2    
   123   60   62 1    
   124   62   63 1    
   125   62   64 1    
   126   62  185 1    
   127   63  186 1    
   128   63  187 1    
   129   63  188 1    
   130   64   65 am   BACKBONE|DICT|INTERRES
   131   64  189 1    
   132   65   66 2    
   133   67   68 2    
   134   67   69 am   BACKBONE|DICT|INTERRES
   135   69   70 1    
   136   69  190 1    
   137   70   71 1    
   138   70   72 1    
   139   70  191 1    
   140   71  192 1    
   141   71  193 1    
   142   71  194 1    
   143   72   73 2    
   144   72   74 am   BACKBONE|DICT|INTERRES
   145   74   75 1    
   146   74  195 1    
   147   75   76 1    
   148   75   77 1    
   149   75  196 1    
   150   76  197 1    
   151   76  198 1    
   152   76  199 1    
   153   77   78 2    
   154   77   79 am   BACKBONE|DICT|INTERRES
   155   79   80 1    
   156   79  200 1    
   157   80   81 1    
   158   80   82 1    
   159   80  201 1    
   160   81  202 1    
   161   81  203 1    
   162   81  204 1    
   163   82   83 2    
   164   82   84 am   BACKBONE|DICT|INTERRES
   165   84   85 1    
   166   84  205 1    
   167   85   86 1    
   168   85   87 1    
   169   85  206 1    
   170   86  207 1    
   171   86  208 1    
   172   86  209 1    
   173   87   88 2    
   174   87   89 am   BACKBONE|DICT|INTERRES
   175   89   90 1    
   176   89  210 1    
   177   90   91 1    
   178   90   92 1    
   179   90  211 1    
   180   91  212 1    
   181   91  213 1    
   182   91  214 1    
   183   92   93 2    
   184   92   94 am   BACKBONE|DICT|INTERRES
   185   94   95 1    
   186   94  215 1    
   187   95   96 1    
   188   95   97 1    
   189   95  216 1    
   190   96  217 1    
   191   96  218 1    
   192   96  219 1    
   193   97   98 2    
   194   97   99 am   BACKBONE|DICT|INTERRES
   195   99  100 1    
   196   99  220 1    
   197  100  101 1    
   198  100  102 1    
   199  100  221 1    
   200  101  222 1    
   201  101  223 1    
   202  101  224 1    
   203  102  103 2    
   204  102  104 am   BACKBONE|DICT|INTERRES
   205  104  105 1    
   206  104  225 1    
   207  105  106 1    
   208  105  107 1    
   209  105  226 1    
   210  106  227 1    
   211  106  228 1    
   212  106  229 1    
   213  107  108 2    
   214  107  109 am   BACKBONE|DICT|INTERRES
   215  109  110 1    
   216  109  230 1    
   217  110  111 1    
   218  110  112 1    
   219  110  231 1    
   220  111  232 1    
   221  111  233 1    
   222  111  234 1    
   223  112  113 2    
   224  112  114 am   BACKBONE|DICT|INTERRES
   225  114  115 1    
   226  114  235 1    
   227  115  116 1    
   228  115  117 1    
   229  115  236 1    
   230  116  237 1    
   231  116  238 1    
   232  116  239 1    
   233  117  118 2    
   234  117  119 am   BACKBONE|DICT|INTERRES
   235  119  120 1    
   236  119  240 1    
   237  120  121 1    
   238  120  124 1    
   239  120  241 1    
   240  121  122 am   BACKBONE|DICT|INTERRES
   241  121  123 2    
   242  122  242 1    
   243  122  243 1    
   244  124  125 1    
   245  124  244 1    
   246  124  245 1    
   247  125  126 1    
   248  126  246 1    
   249  126  247 1    
@<TRIPOS>SUBSTRUCTURE
     1 UNK         1 GROUP             0       ****    0 ROOT    
