@<TRIPOS>MOLECULE
3R540
247   249    1
SMALL
USER_CHARGES


@<TRIPOS>ATOM
      1 CA          4.3449  -12.4505  -46.2437 C.3       0 UNK        -0.1800 
      2 C           3.8679  -12.6800  -47.6715 C.2       0 UNK         0.5000 
      3 O           4.3917  -12.0609  -48.5980 O.2       0 UNK        -0.5000 
      4 N           2.8904  -13.5794  -47.8429 N.am      1 UNK        -0.5000 
      5 CA          2.2337  -13.9411  -49.1056 C.3       1 UNK         0.1400 
      6 C6          3.2303  -14.4175  -50.2028 C.3       23 UNK        -0.0398 
      7 S7          2.5508  -15.7843  -51.1992 S.3       23 UNK        -0.2404 
      8 C8          2.9284  -17.1870  -50.0975 C.3       23 UNK        -0.0205 
      9 C9          1.8688  -18.2779  -50.1455 C.ar      23 UNK        -0.0193 
     10 C10         0.5150  -17.9635  -49.9888 C.ar      23 UNK        -0.1150 
     11 C11        -0.4568  -18.9683  -49.9792 C.ar      23 UNK        -0.0193 
     12 C12        -0.0602  -20.3011  -50.1139 C.ar      23 UNK        -0.1150 
     13 C13         1.2892  -20.6322  -50.2622 C.ar      23 UNK        -0.0193 
     14 C14         2.2475  -19.6148  -50.2917 C.ar      23 UNK        -0.1150 
     15 C15         1.7064  -22.0935  -50.3600 C.3       23 UNK        -0.0205 
     16 S16         2.8853  -22.5969  -49.0577 S.3       23 UNK        -0.2404 
     17 C17         2.1202  -21.9587  -47.5255 C.3       23 UNK        -0.0398 
     18 CA          1.2583  -23.0013  -46.7803 C.3       11 UNK         0.1400 
     19 N           1.1217  -22.6643  -45.3635 N.am      11 UNK        -0.5000 
     20 C           0.5520  -23.4440  -44.4352 C.2       10 UNK         0.5000 
     21 O           0.1320  -24.5798  -44.6556 O.2       10 UNK        -0.5000 
     22 CA          0.3705  -22.8192  -43.0410 C.3       10 UNK         0.1400 
     23 CB          1.6658  -22.9096  -42.2202 C.3       10 UNK        -0.1800 
     24 N          -0.0636  -21.4237  -43.1264 N.am      10 UNK        -0.5000 
     25 C          -1.2655  -21.0357  -43.5768 C.2       9 UNK         0.5000 
     26 O          -2.1548  -21.8195  -43.9097 O.2       9 UNK        -0.5000 
     27 CA         -1.4922  -19.5186  -43.7128 C.3       9 UNK         0.1400 
     28 CB         -1.8834  -18.9140  -42.3563 C.3       9 UNK        -0.1800 
     29 N          -0.3140  -18.8268  -44.2431 N.am      9 UNK        -0.5000 
     30 C           0.1323  -18.9737  -45.5014 C.2       8 UNK         0.5000 
     31 O          -0.4206  -19.6886  -46.3320 O.2       8 UNK        -0.5000 
     32 CA          1.4477  -18.2693  -45.8854 C.3       8 UNK         0.1400 
     33 CB          1.1740  -16.8727  -46.4541 C.3       8 UNK        -0.1800 
     34 N           2.3861  -18.1704  -44.7677 N.am      8 UNK        -0.5000 
     35 C           2.9306  -19.2313  -44.1529 C.2       7 UNK         0.5000 
     36 O           2.7381  -20.3930  -44.5130 O.2       7 UNK        -0.5000 
     37 CA          3.7914  -18.9711  -42.9018 C.3       7 UNK         0.1400 
     38 CB          5.2834  -19.0076  -43.2630 C.3       7 UNK        -0.1800 
     39 N           3.4976  -17.7117  -42.2136 N.am      7 UNK        -0.5000 
     40 C           2.3152  -17.3589  -41.6899 C.2       6 UNK         0.5000 
     41 O           1.3069  -18.0642  -41.7501 O.2       6 UNK        -0.5000 
     42 CA          2.2272  -15.9744  -41.0136 C.3       6 UNK         0.1400 
     43 CB          3.5978  -15.2991  -40.7792 C.3       6 UNK        -0.1800 
     44 N           1.3374  -15.0599  -41.7358 N.am      6 UNK        -0.5000 
     45 C           1.4123  -14.7088  -43.0271 C.2       5 UNK         0.5000 
     46 O           2.2288  -15.1716  -43.8281 O.2       5 UNK        -0.5000 
     47 CA          0.3987  -13.6549  -43.5017 C.3       5 UNK         0.1400 
     48 CB          1.0859  -12.5279  -44.2899 C.3       5 UNK        -0.1800 
     49 N          -0.6116  -14.2665  -44.3533 N.am      5 UNK        -0.5000 
     50 C          -1.6725  -14.9654  -43.9395 C.2       4 UNK         0.5000 
     51 O          -1.9349  -15.1479  -42.7499 O.2       4 UNK        -0.5000 
     52 CA         -2.6039  -15.5191  -45.0454 C.3       4 UNK         0.1400 
     53 CB         -3.9080  -16.1090  -44.4790 C.3       4 UNK        -0.1800 
     54 N          -2.9512  -14.5102  -46.0543 N.am      4 UNK        -0.5000 
     55 C          -2.1422  -14.0760  -47.0278 C.2       3 UNK         0.5000 
     56 O          -0.9799  -14.4715  -47.1718 O.2       3 UNK        -0.5000 
     57 CA         -2.6941  -12.9892  -47.9618 C.3       3 UNK         0.1400 
     58 CB         -2.6323  -11.6189  -47.2564 C.3       3 UNK        -0.1800 
     59 N          -1.8433  -13.0155  -49.1420 N.am      3 UNK        -0.5000 
     60 C          -1.8265  -12.2195  -50.2138 C.2       2 UNK         0.5000 
     61 O          -2.6622  -11.3419  -50.4350 O.2       2 UNK        -0.5000 
     62 CA         -0.6618  -12.4525  -51.2066 C.3       2 UNK         0.1400 
     63 CB         -0.1670  -11.1448  -51.8585 C.3       2 UNK        -0.1800 
     64 N           0.4595  -13.2147  -50.6299 N.am      2 UNK        -0.5000 
     65 C           1.2532  -12.8546  -49.6076 C.2       1 UNK         0.5000 
     66 O           1.1868  -11.7586  -49.0457 O.2       1 UNK        -0.5000 
     67 C          -0.1163  -23.2008  -47.4528 C.2       11 UNK         0.5000 
     68 O          -0.2995  -24.1895  -48.1602 O.2       11 UNK        -0.5000 
     69 N          -1.0729  -22.2996  -47.1823 N.am      12 UNK        -0.5000 
     70 CA         -2.4552  -22.3814  -47.6556 C.3       12 UNK         0.1400 
     71 CB         -3.2324  -21.1275  -47.2316 C.3       12 UNK        -0.1800 
     72 C          -3.1807  -23.6434  -47.1656 C.2       12 UNK         0.5000 
     73 O          -3.8488  -24.3013  -47.9623 O.2       12 UNK        -0.5000 
     74 N          -3.0053  -23.9755  -45.8790 N.am      13 UNK        -0.5000 
     75 CA         -3.5424  -25.1857  -45.2575 C.3       13 UNK         0.1400 
     76 CB         -3.3181  -25.1262  -43.7390 C.3       13 UNK        -0.1800 
     77 C          -2.9493  -26.4765  -45.8537 C.2       13 UNK         0.5000 
     78 O          -3.6888  -27.4376  -46.0670 O.2       13 UNK        -0.5000 
     79 N          -1.6387  -26.4662  -46.1351 N.am      14 UNK        -0.5000 
     80 CA         -0.9209  -27.5643  -46.7829 C.3       14 UNK         0.1400 
     81 CB          0.5929  -27.3385  -46.6461 C.3       14 UNK        -0.1800 
     82 C          -1.3185  -27.7452  -48.2603 C.2       14 UNK         0.5000 
     83 O          -1.5174  -28.8785  -48.7001 O.2       14 UNK        -0.5000 
     84 N          -1.4335  -26.6303  -48.9953 N.am      15 UNK        -0.5000 
     85 CA         -1.8277  -26.5933  -50.4047 C.3       15 UNK         0.1400 
     86 CB         -1.5208  -25.2007  -50.9800 C.3       15 UNK        -0.1800 
     87 C          -3.3093  -26.9417  -50.6319 C.2       15 UNK         0.5000 
     88 O          -3.6483  -27.4698  -51.6915 O.2       15 UNK        -0.5000 
     89 N          -4.1645  -26.6026  -49.6567 N.am      16 UNK        -0.5000 
     90 CA         -5.6239  -26.7575  -49.5934 C.3       16 UNK         0.1400 
     91 CB         -6.0496  -28.2305  -49.7386 C.3       16 UNK        -0.1800 
     92 C          -6.3930  -25.8453  -50.5695 C.2       16 UNK         0.5000 
     93 O          -7.3819  -25.2295  -50.1708 O.2       16 UNK        -0.5000 
     94 N          -5.9156  -25.7464  -51.8163 N.am      17 UNK        -0.5000 
     95 CA         -6.4231  -24.8437  -52.8514 C.3       17 UNK         0.1400 
     96 CB         -5.9127  -25.3239  -54.2185 C.3       17 UNK        -0.1800 
     97 C          -6.0201  -23.3739  -52.6183 C.2       17 UNK         0.5000 
     98 O          -6.6746  -22.4784  -53.1546 O.2       17 UNK        -0.5000 
     99 N          -4.9510  -23.1587  -51.8353 N.am      18 UNK        -0.5000 
    100 CA        -4.3337  -21.8901  -51.4291 C.3       18 UNK         0.1400 
    101 CB        -5.3189  -21.0117  -50.6366 C.3       18 UNK        -0.1800 
    102 C         -3.6746  -21.1013  -52.5760 C.2       18 UNK         0.5000 
    103 O         -2.4878  -20.7896  -52.4850 O.2       18 UNK        -0.5000 
    104 N         -4.4511  -20.8045  -53.6248 N.am      19 UNK        -0.5000 
    105 CA        -4.1120  -20.1133  -54.8731 C.3       19 UNK         0.1400 
    106 CB        -3.0735  -20.9119  -55.6846 C.3       19 UNK        -0.1800 
    107 C         -3.6831  -18.6410  -54.7102 C.2       19 UNK         0.5000 
    108 O         -4.3227  -17.7580  -55.2831 O.2       19 UNK        -0.5000 
    109 N         -2.6143  -18.3902  -53.9460 N.am      20 UNK        -0.5000 
    110 CA        -1.9364  -17.0979  -53.8044 C.3       20 UNK         0.1400 
    111 CB        -0.4565  -17.3498  -53.4703 C.3       20 UNK        -0.1800 
    112 C         -2.6335  -16.1296  -52.8221 C.2       20 UNK         0.5000 
    113 O         -1.9803  -15.5370  -51.9626 O.2       20 UNK        -0.5000 
    114 N         -3.9532  -15.9750  -52.9925 N.am      21 UNK        -0.5000 
    115 CA        -4.8319  -14.9751  -52.3738 C.3       21 UNK         0.1400 
    116 CB        -4.4606  -13.5619  -52.8698 C.3       21 UNK        -0.1800 
    117 C         -4.9635  -15.0487  -50.8356 C.2       21 UNK         0.5000 
    118 O         -5.3472  -14.0561  -50.2151 O.2       21 UNK        -0.5000 
    119 N         -4.6990  -16.2204  -50.2416 N.am      22 UNK        -0.5000 
    120 CA        -4.9010  -16.4719  -48.8008 C.3       22 UNK         0.1400 
    121 C         -6.3927  -16.6094  -48.3716 C.2       22 UNK         0.5000 
    122 N         -7.3402  -16.7785  -49.2862 N.am      22 UNK        -0.7600 
    123 O         -6.6956  -16.5544  -47.1836 O.2       22 UNK        -0.5000 
    124 C124       -4.0853  -17.6822  -48.2851 C.3       23 UNK        -0.0398 
    125 S125       -2.2858  -17.4856  -48.4831 S.3       23 UNK        -0.2404 
    126 C126       -1.9355  -18.6247  -49.8605 C.3       23 UNK        -0.0205 
    127 H127        4.0039  -11.4790  -45.8862 H         1 UNK         0.0600 
    128 H128        5.4340  -12.4678  -46.2025 H         1 UNK         0.0600 
    129 H129        3.9713  -13.2167  -45.5633 H         1 UNK         0.0600 
    130 H130        2.4989  -14.0222  -47.0242 H         1 UNK         0.3000 
    131 H131        1.6020  -14.7852  -48.8235 H         1 UNK         0.0600 
    132 H132        4.1611  -14.7689  -49.7549 H         1 UNK         0.0800 
    133 H133        3.5198  -13.5981  -50.8634 H         1 UNK         0.0800 
    134 H134        3.0061  -16.8470  -49.0645 H         1 UNK         0.0800 
    135 H135        3.9093  -17.5825  -50.3652 H         1 UNK         0.0800 
    136 H136        0.2117  -16.9320  -49.8793 H         1 UNK         0.1150 
    137 H137       -0.8049  -21.0838  -50.1047 H         1 UNK         0.1150 
    138 H138        3.2921  -19.8715  -50.3976 H         1 UNK         0.1150 
    139 H139        0.8348  -22.7479  -50.3149 H         1 UNK         0.0800 
    140 H140        2.1642  -22.2652  -51.3348 H         1 UNK         0.0800 
    141 H141        1.5617  -21.0410  -47.7063 H         1 UNK         0.0800 
    142 H142        2.9541  -21.6603  -46.8891 H         1 UNK         0.0800 
    143 H143        1.7799  -23.9601  -46.8167 H         1 UNK         0.0600 
    144 H144        1.4899  -21.7625  -45.0752 H         1 UNK         0.3000 
    145 H145       -0.4035  -23.3858  -42.5188 H         1 UNK         0.0600 
    146 H146        1.5245  -22.5103  -41.2158 H         1 UNK         0.0600 
    147 H147        1.9866  -23.9468  -42.1153 H         1 UNK         0.0600 
    148 H148        2.4835  -22.3605  -42.6874 H         1 UNK         0.0600 
    149 H149        0.6175  -20.7153  -42.8948 H         1 UNK         0.3000 
    150 H150       -2.3186  -19.3594  -44.4091 H         1 UNK         0.0600 
    151 H151       -1.9917  -17.8324  -42.4163 H         1 UNK         0.0600 
    152 H152       -2.8353  -19.3197  -42.0118 H         1 UNK         0.0600 
    153 H153       -1.1407  -19.1283  -41.5873 H         1 UNK         0.0600 
    154 H154        0.2342  -18.2903  -43.5805 H         1 UNK         0.3000 
    155 H155        1.9241  -18.8608  -46.6697 H         1 UNK         0.0600 
    156 H156        0.6737  -16.2384  -45.7260 H         1 UNK         0.0600 
    157 H157        0.5287  -16.9271  -47.3306 H         1 UNK         0.0600 
    158 H158        2.0970  -16.3785  -46.7549 H         1 UNK         0.0600 
    159 H159        2.5636  -17.2418  -44.4005 H         1 UNK         0.3000 
    160 H160        3.5894  -19.7825  -42.1996 H         1 UNK         0.0600 
    161 H161        5.5522  -18.1967  -43.9412 H         1 UNK         0.0600 
    162 H162        5.5443  -19.9464  -43.7537 H         1 UNK         0.0600 
    163 H163        5.9078  -18.9239  -42.3733 H         1 UNK         0.0600 
    164 H164        4.2585  -17.0514  -42.1476 H         1 UNK         0.3000 
    165 H165        1.7726  -16.1452  -40.0368 H         1 UNK         0.0600 
    166 H166        3.4806  -14.3722  -40.2177 H         1 UNK         0.0600 
    167 H167        4.2609  -15.9406  -40.1971 H         1 UNK         0.0600 
    168 H168        4.1032  -15.0521  -41.7137 H         1 UNK         0.0600 
    169 H169        0.5819  -14.6747  -41.1862 H         1 UNK         0.3000 
    170 H170       -0.0880  -13.2075  -42.6324 H         1 UNK         0.0600 
    171 H171        1.8935  -12.0785  -43.7106 H         1 UNK         0.0600 
    172 H172        1.5118  -12.8919  -45.2248 H         1 UNK         0.0600 
    173 H173        0.3798  -11.7346  -44.5358 H         1 UNK         0.0600 
    174 H174       -0.4647  -14.2020  -45.3563 H         1 UNK         0.3000 
    175 H175       -2.0625  -16.3292  -45.5392 H         1 UNK         0.0600 
    176 H176       -4.4802  -15.3619  -43.9278 H         1 UNK         0.0600 
    177 H177       -4.5464  -16.4966  -45.2720 H         1 UNK         0.0600 
    178 H178       -3.7053  -16.9359  -43.7989 H         1 UNK         0.0600 
    179 H179       -3.8688  -14.0985  -45.9650 H         1 UNK         0.3000 
    180 H180       -3.7188  -13.2296  -48.2461 H         1 UNK         0.0600 
    181 H181       -1.6052  -11.3375  -47.0191 H         1 UNK         0.0600 
    182 H182       -3.1934  -11.6310  -46.3214 H         1 UNK         0.0600 
    183 H183       -3.0621  -10.8290  -47.8716 H         1 UNK         0.0600 
    184 H184       -1.1118  -13.7118  -49.0612 H         1 UNK         0.3000 
    185 H185       -1.0663  -13.0742  -52.0051 H         1 UNK         0.0600 
    186 H186       -0.9645  -10.6677  -52.4291 H         1 UNK         0.0600 
    187 H187        0.1761  -10.4244  -51.1157 H         1 UNK         0.0600 
    188 H188        0.6550  -11.3343  -52.5487 H         1 UNK         0.0600 
    189 H189        0.5838  -14.1402  -51.0208 H         1 UNK         0.3000 
    190 H190       -0.8302  -21.4644  -46.6540 H         1 UNK         0.3000 
    191 H191       -2.4201  -22.4142  -48.7446 H         1 UNK         0.0600 
    192 H192       -2.7133  -20.2225  -47.5351 H         1 UNK         0.0600 
    193 H193       -4.2233  -21.1084  -47.6855 H         1 UNK         0.0600 
    194 H194       -3.3667  -21.0773  -46.1515 H         1 UNK         0.0600 
    195 H195       -2.4726  -23.3512  -45.2825 H         1 UNK         0.3000 
    196 H196       -4.6189  -25.2018  -45.4399 H         1 UNK         0.0600 
    197 H197       -3.7433  -26.0019  -43.2472 H         1 UNK         0.0600 
    198 H198       -3.7927  -24.2459  -43.3051 H         1 UNK         0.0600 
    199 H199       -2.2580  -25.0909  -43.4878 H         1 UNK         0.0600 
    200 H200       -1.0909  -25.6512  -45.8782 H         1 UNK         0.3000 
    201 H201       -1.1714  -28.4874  -46.2559 H         1 UNK         0.0600 
    202 H202        0.8886  -27.2786  -45.5985 H         1 UNK         0.0600 
    203 H203        0.9105  -26.4171  -47.1347 H         1 UNK         0.0600 
    204 H204        1.1524  -28.1591  -47.0966 H         1 UNK         0.0600 
    205 H205       -1.1799  -25.7388  -48.5734 H         1 UNK         0.3000 
    206 H206       -1.2279  -27.3274  -50.9466 H         1 UNK         0.0600 
    207 H207       -0.4566  -24.9741  -50.9117 H         1 UNK         0.0600 
    208 H208       -1.7987  -25.1383  -52.0329 H         1 UNK         0.0600 
    209 H209       -2.0623  -24.4175  -50.4480 H         1 UNK         0.0600 
    210 H210       -3.7804  -26.0724  -48.8804 H         1 UNK         0.3000 
    211 H211       -5.9003  -26.4381  -48.5872 H         1 UNK         0.0600 
    212 H212       -5.8392  -28.6232  -50.7336 H         1 UNK         0.0600 
    213 H213       -7.1207  -28.3422  -49.5663 H         1 UNK         0.0600 
    214 H214       -5.5355  -28.8607  -49.0127 H         1 UNK         0.0600 
    215 H215       -5.1136  -26.3243  -52.0535 H         1 UNK         0.3000 
    216 H216       -7.5140  -24.8927  -52.8533 H         1 UNK         0.0600 
    217 H217       -6.2887  -24.6892  -55.0222 H         1 UNK         0.0600 
    218 H218       -6.2437  -26.3414  -54.4274 H         1 UNK         0.0600 
    219 H219       -4.8231  -25.3084  -54.2694 H         1 UNK         0.0600 
    220 H220       -4.5000  -23.9841  -51.4695 H         1 UNK         0.3000 
    221 H221       -3.5274  -22.1644  -50.7491 H         1 UNK         0.0600 
    222 H222       -6.2020  -20.7485  -51.2186 H         1 UNK         0.0600 
    223 H223       -5.6542  -21.5164  -49.7305 H         1 UNK         0.0600 
    224 H224       -4.8464  -20.0784  -50.3398 H         1 UNK         0.0600 
    225 H225       -5.4068  -21.1496  -53.5722 H         1 UNK         0.3000 
    226 H226       -5.0341  -20.1029  -55.4565 H         1 UNK         0.0600 
    227 H227       -3.4272  -21.9230  -55.8866 H         1 UNK         0.0600 
    228 H228       -2.8826  -20.4362  -56.6474 H         1 UNK         0.0600 
    229 H229       -2.1178  -20.9903  -55.1656 H         1 UNK         0.0600 
    230 H230       -2.2138  -19.1775  -53.4421 H         1 UNK         0.3000 
    231 H231       -1.9562  -16.5969  -54.7744 H         1 UNK         0.0600 
    232 H232       -0.3486  -17.9422  -52.5650 H         1 UNK         0.0600 
    233 H233        0.0893  -16.4166  -53.3255 H         1 UNK         0.0600 
    234 H234        0.0394  -17.8901  -54.2765 H         1 UNK         0.0600 
    235 H235       -4.3735  -16.5259  -53.7352 H         1 UNK         0.3000 
    236 H236       -5.8307  -15.1928  -52.7542 H         1 UNK         0.0600 
    237 H237       -3.4796  -13.2541  -52.5110 H         1 UNK         0.0600 
    238 H238       -4.4469  -13.5177  -53.9588 H         1 UNK         0.0600 
    239 H239       -5.1810  -12.8179  -52.5279 H         1 UNK         0.0600 
    240 H240       -4.3737  -16.9901  -50.8050 H         1 UNK         0.3000 
    241 H241       -4.5303  -15.5958  -48.2677 H         1 UNK         0.0600 
    242 H242       -7.1126  -16.8232  -50.2657 H         1 UNK         0.3800 
    243 H243       -8.3007  -16.8602  -48.9917 H         1 UNK         0.3800 
    244 H244       -4.4202  -18.5999  -48.7625 H         1 UNK         0.0800 
    245 H245       -4.2596  -17.8320  -47.2187 H         1 UNK         0.0800 
    246 H246       -2.5155  -19.5383  -49.7357 H         1 UNK         0.0800 
    247 H247       -2.2693  -18.1749  -50.7937 H         1 UNK         0.0800 
@<TRIPOS>BOND
     1    1    2 1    
     2    1  127 1    
     3    1  128 1    
     4    1  129 1    
     5    2    3 2    
     6    2    4 am   BACKBONE|DICT|INTERRES
     7    4    5 1    
     8    4  130 1    
     9    5    6 1    
    10    5   65 1    
    11    5  131 1    
    12    6    7 1    
    13    6  132 1    
    14    6  133 1    
    15    7    8 1    
    16    8    9 1    
    17    8  134 1    
    18    8  135 1    
    19    9   10 ar   
    20    9   14 ar   
    21   10   11 ar   
    22   10  136 1    
    23   11   12 ar   
    24   11  126 1    
    25   12   13 ar   
    26   12  137 1    
    27   13   14 ar   
    28   13   15 1    
    29   14  138 1    
    30   15   16 1    
    31   15  139 1    
    32   15  140 1    
    33   16   17 1    
    34   17   18 1    
    35   17  141 1    
    36   17  142 1    
    37   18   19 1    
    38   18   67 1    
    39   18  143 1    
    40   19   20 am   BACKBONE|DICT|INTERRES
    41   19  144 1    
    42   20   21 2    
    43   20   22 1    
    44   22   23 1    
    45   22   24 1    
    46   22  145 1    
    47   23  146 1    
    48   23  147 1    
    49   23  148 1    
    50   24   25 am   BACKBONE|DICT|INTERRES
    51   24  149 1    
    52   25   26 2    
    53   25   27 1    
    54   27   28 1    
    55   27   29 1    
    56   27  150 1    
    57   28  151 1    
    58   28  152 1    
    59   28  153 1    
    60   29   30 am   BACKBONE|DICT|INTERRES
    61   29  154 1    
    62   30   31 2    
    63   30   32 1    
    64   32   33 1    
    65   32   34 1    
    66   32  155 1    
    67   33  156 1    
    68   33  157 1    
    69   33  158 1    
    70   34   35 am   BACKBONE|DICT|INTERRES
    71   34  159 1    
    72   35   36 2    
    73   35   37 1    
    74   37   38 1    
    75   37   39 1    
    76   37  160 1    
    77   38  161 1    
    78   38  162 1    
    79   38  163 1    
    80   39   40 am   BACKBONE|DICT|INTERRES
    81   39  164 1    
    82   40   41 2    
    83   40   42 1    
    84   42   43 1    
    85   42   44 1    
    86   42  165 1    
    87   43  166 1    
    88   43  167 1    
    89   43  168 1    
    90   44   45 am   BACKBONE|DICT|INTERRES
    91   44  169 1    
    92   45   46 2    
    93   45   47 1    
    94   47   48 1    
    95   47   49 1    
    96   47  170 1    
    97   48  171 1    
    98   48  172 1    
    99   48  173 1    
   100   49   50 am   BACKBONE|DICT|INTERRES
   101   49  174 1    
   102   50   51 2    
   103   50   52 1    
   104   52   53 1    
   105   52   54 1    
   106   52  175 1    
   107   53  176 1    
   108   53  177 1    
   109   53  178 1    
   110   54   55 am   BACKBONE|DICT|INTERRES
   111   54  179 1    
   112   55   56 2    
   113   55   57 1    
   114   57   58 1    
   115   57   59 1    
   116   57  180 1    
   117   58  181 1    
   118   58  182 1    
   119   58  183 1    
   120   59   60 am   BACKBONE|DICT|INTERRES
   121   59  184 1    
   122   60   61 2    
   123   60   62 1    
   124   62   63 1    
   125   62   64 1    
   126   62  185 1    
   127   63  186 1    
   128   63  187 1    
   129   63  188 1    
   130   64   65 am   BACKBONE|DICT|INTERRES
   131   64  189 1    
   132   65   66 2    
   133   67   68 2    
   134   67   69 am   BACKBONE|DICT|INTERRES
   135   69   70 1    
   136   69  190 1    
   137   70   71 1    
   138   70   72 1    
   139   70  191 1    
   140   71  192 1    
   141   71  193 1    
   142   71  194 1    
   143   72   73 2    
   144   72   74 am   BACKBONE|DICT|INTERRES
   145   74   75 1    
   146   74  195 1    
   147   75   76 1    
   148   75   77 1    
   149   75  196 1    
   150   76  197 1    
   151   76  198 1    
   152   76  199 1    
   153   77   78 2    
   154   77   79 am   BACKBONE|DICT|INTERRES
   155   79   80 1    
   156   79  200 1    
   157   80   81 1    
   158   80   82 1    
   159   80  201 1    
   160   81  202 1    
   161   81  203 1    
   162   81  204 1    
   163   82   83 2    
   164   82   84 am   BACKBONE|DICT|INTERRES
   165   84   85 1    
   166   84  205 1    
   167   85   86 1    
   168   85   87 1    
   169   85  206 1    
   170   86  207 1    
   171   86  208 1    
   172   86  209 1    
   173   87   88 2    
   174   87   89 am   BACKBONE|DICT|INTERRES
   175   89   90 1    
   176   89  210 1    
   177   90   91 1    
   178   90   92 1    
   179   90  211 1    
   180   91  212 1    
   181   91  213 1    
   182   91  214 1    
   183   92   93 2    
   184   92   94 am   BACKBONE|DICT|INTERRES
   185   94   95 1    
   186   94  215 1    
   187   95   96 1    
   188   95   97 1    
   189   95  216 1    
   190   96  217 1    
   191   96  218 1    
   192   96  219 1    
   193   97   98 2    
   194   97   99 am   BACKBONE|DICT|INTERRES
   195   99  100 1    
   196   99  220 1    
   197  100  101 1    
   198  100  102 1    
   199  100  221 1    
   200  101  222 1    
   201  101  223 1    
   202  101  224 1    
   203  102  103 2    
   204  102  104 am   BACKBONE|DICT|INTERRES
   205  104  105 1    
   206  104  225 1    
   207  105  106 1    
   208  105  107 1    
   209  105  226 1    
   210  106  227 1    
   211  106  228 1    
   212  106  229 1    
   213  107  108 2    
   214  107  109 am   BACKBONE|DICT|INTERRES
   215  109  110 1    
   216  109  230 1    
   217  110  111 1    
   218  110  112 1    
   219  110  231 1    
   220  111  232 1    
   221  111  233 1    
   222  111  234 1    
   223  112  113 2    
   224  112  114 am   BACKBONE|DICT|INTERRES
   225  114  115 1    
   226  114  235 1    
   227  115  116 1    
   228  115  117 1    
   229  115  236 1    
   230  116  237 1    
   231  116  238 1    
   232  116  239 1    
   233  117  118 2    
   234  117  119 am   BACKBONE|DICT|INTERRES
   235  119  120 1    
   236  119  240 1    
   237  120  121 1    
   238  120  124 1    
   239  120  241 1    
   240  121  122 am   BACKBONE|DICT|INTERRES
   241  121  123 2    
   242  122  242 1    
   243  122  243 1    
   244  124  125 1    
   245  124  244 1    
   246  124  245 1    
   247  125  126 1    
   248  126  246 1    
   249  126  247 1    
@<TRIPOS>SUBSTRUCTURE
     1 UNK         1 GROUP             0       ****    0 ROOT    
