@<TRIPOS>MOLECULE
3R540
247   249    1
SMALL
USER_CHARGES


@<TRIPOS>ATOM
      1 CA          2.3862   -9.0256  -48.4496 C.3       0 UNK        -0.1800 
      2 C           1.8522  -10.4162  -48.1380 C.2       0 UNK         0.5000 
      3 O           2.3229  -11.0588  -47.1985 O.2       0 UNK        -0.5000 
      4 N           0.8649  -10.8830  -48.9133 N.am      1 UNK        -0.5000 
      5 CA          0.2073  -12.1862  -48.7658 C.3       1 UNK         0.1400 
      6 C6         -0.3544  -12.6851  -50.1229 C.3       23 UNK        -0.0398 
      7 S7         -0.6105  -14.4922  -50.1501 S.3       23 UNK        -0.2404 
      8 C8          0.9578  -15.0394  -50.8867 C.3       23 UNK        -0.0205 
      9 C9          1.0300  -16.5548  -50.9621 C.ar      23 UNK        -0.0193 
     10 C10         0.5989  -17.2241  -52.1104 C.ar      23 UNK        -0.1150 
     11 C11         0.6813  -18.6167  -52.1909 C.ar      23 UNK        -0.0193 
     12 C12         1.2071  -19.3402  -51.1178 C.ar      23 UNK        -0.1150 
     13 C13         1.6229  -18.6829  -49.9566 C.ar      23 UNK        -0.0193 
     14 C14         1.5328  -17.2895  -49.8847 C.ar      23 UNK        -0.1150 
     15 C15         2.1666  -19.4743  -48.7792 C.3       23 UNK        -0.0205 
     16 S16         0.8706  -20.5006  -48.0147 S.3       23 UNK        -0.2404 
     17 C17         1.2887  -22.1685  -48.6388 C.3       23 UNK        -0.0398 
     18 CA          0.9105  -23.3195  -47.6713 C.3       11 UNK         0.1400 
     19 N           1.4259  -23.0873  -46.3224 N.am      11 UNK        -0.5000 
     20 C           1.6577  -24.0393  -45.4116 C.2       10 UNK         0.5000 
     21 O           1.5354  -25.2442  -45.6417 O.2       10 UNK        -0.5000 
     22 CA          2.0946  -23.5541  -44.0142 C.3       10 UNK         0.1400 
     23 CB          2.7953  -24.6451  -43.1782 C.3       10 UNK        -0.1800 
     24 N           2.8961  -22.3285  -44.0598 N.am      10 UNK        -0.5000 
     25 C           4.1124  -22.1473  -44.5943 C.2       9 UNK         0.5000 
     26 O           4.7691  -23.0344  -45.1403 O.2       9 UNK        -0.5000 
     27 CA          4.6973  -20.7228  -44.4983 C.3       9 UNK         0.1400 
     28 CB          4.4242  -19.9440  -45.7939 C.3       9 UNK        -0.1800 
     29 N           4.1689  -19.9622  -43.3624 N.am      9 UNK        -0.5000 
     30 C           4.4490  -20.2194  -42.0765 C.2       8 UNK         0.5000 
     31 O           5.2671  -21.0644  -41.7107 O.2       8 UNK        -0.5000 
     32 CA          3.6586  -19.4239  -41.0202 C.3       8 UNK         0.1400 
     33 CB          4.3197  -18.0636  -40.7519 C.3       8 UNK        -0.1800 
     34 N           2.2552  -19.2285  -41.3927 N.am      8 UNK        -0.5000 
     35 C           1.3485  -20.2131  -41.4806 C.2       7 UNK         0.5000 
     36 O           1.5850  -21.3869  -41.1954 O.2       7 UNK        -0.5000 
     37 CA         -0.0479  -19.8385  -42.0113 C.3       7 UNK         0.1400 
     38 CB         -0.9395  -19.3146  -40.8764 C.3       7 UNK        -0.1800 
     39 N          -0.0038  -18.8603  -43.0993 N.am      7 UNK        -0.5000 
     40 C           0.5462  -19.0885  -44.3006 C.2       6 UNK         0.5000 
     41 O           1.0429  -20.1673  -44.6227 O.2       6 UNK        -0.5000 
     42 CA          0.5943  -17.9041  -45.2854 C.3       6 UNK         0.1400 
     43 CB         -0.7558  -17.6952  -45.9882 C.3       6 UNK        -0.1800 
     44 N           1.0025  -16.6604  -44.6353 N.am      6 UNK        -0.5000 
     45 C           2.1982  -16.4616  -44.0641 C.2       5 UNK         0.5000 
     46 O           3.1088  -17.2898  -44.0737 O.2       5 UNK        -0.5000 
     47 CA          2.3833  -15.1380  -43.3039 C.3       5 UNK         0.1400 
     48 CB          2.7178  -13.9874  -44.2662 C.3       5 UNK        -0.1800 
     49 N           1.1998  -14.7992  -42.5118 N.am      5 UNK        -0.5000 
     50 C           0.8064  -15.4716  -41.4203 C.2       4 UNK         0.5000 
     51 O           1.4222  -16.4262  -40.9482 O.2       4 UNK        -0.5000 
     52 CA         -0.5154  -15.0267  -40.7678 C.3       4 UNK         0.1400 
     53 CB         -0.2783  -13.8432  -39.8182 C.3       4 UNK        -0.1800 
     54 N          -1.5353  -14.6620  -41.7514 N.am      4 UNK        -0.5000 
     55 C          -2.1146  -15.5231  -42.6003 C.2       3 UNK         0.5000 
     56 O          -1.8778  -16.7294  -42.6192 O.2       3 UNK        -0.5000 
     57 CA         -3.0764  -14.9229  -43.6423 C.3       3 UNK         0.1400 
     58 CB         -4.4954  -14.8058  -43.0671 C.3       3 UNK        -0.1800 
     59 N          -2.6375  -13.6142  -44.1368 N.am      3 UNK        -0.5000 
     60 C          -1.4919  -13.4078  -44.7987 C.2       2 UNK         0.5000 
     61 O          -0.6795  -14.3016  -45.0505 O.2       2 UNK        -0.5000 
     62 CA         -1.1700  -11.9536  -45.1811 C.3       2 UNK         0.1400 
     63 CB         -0.3852  -11.2675  -44.0522 C.3       2 UNK        -0.1800 
     64 N          -0.3750  -11.9021  -46.4044 N.am      2 UNK        -0.5000 
     65 C          -0.8450  -12.1461  -47.6327 C.2       1 UNK         0.5000 
     66 O          -2.0434  -12.2983  -47.8789 O.2       1 UNK        -0.5000 
     67 C          -0.6124  -23.5625  -47.6404 C.2       11 UNK         0.5000 
     68 O          -1.3045  -23.0484  -46.7583 O.2       11 UNK        -0.5000 
     69 N          -1.1189  -24.3060  -48.6357 N.am      12 UNK        -0.5000 
     70 CA         -2.5441  -24.6194  -48.8037 C.3       12 UNK         0.1400 
     71 CB         -2.7168  -25.5785  -49.9908 C.3       12 UNK        -0.1800 
     72 C          -3.4333  -23.3753  -48.9909 C.2       12 UNK         0.5000 
     73 O          -4.5911  -23.3859  -48.5719 O.2       12 UNK        -0.5000 
     74 N          -2.8560  -22.3093  -49.5648 N.am      13 UNK        -0.5000 
     75 CA         -3.4778  -20.9989  -49.7646 C.3       13 UNK         0.1400 
     76 CB         -2.4909  -20.0911  -50.5143 C.3       13 UNK        -0.1800 
     77 C          -3.9523  -20.3240  -48.4615 C.2       13 UNK         0.5000 
     78 O          -4.8992  -19.5392  -48.5057 O.2       13 UNK        -0.5000 
     79 N          -3.3283  -20.6683  -47.3235 N.am      14 UNK        -0.5000 
     80 CA         -3.7122  -20.2026  -45.9892 C.3       14 UNK         0.1400 
     81 CB         -2.6668  -20.6819  -44.9707 C.3       14 UNK        -0.1800 
     82 C          -5.1107  -20.6878  -45.5634 C.2       14 UNK         0.5000 
     83 O          -5.8204  -19.9584  -44.8702 O.2       14 UNK        -0.5000 
     84 N          -5.4728  -21.9068  -45.9838 N.am      15 UNK        -0.5000 
     85 CA         -6.7606  -22.5338  -45.6995 C.3       15 UNK         0.1400 
     86 CB         -6.5388  -24.0314  -45.4345 C.3       15 UNK        -0.1800 
     87 C          -7.7474  -22.3349  -46.8598 C.2       15 UNK         0.5000 
     88 O          -8.9249  -22.0684  -46.6167 O.2       15 UNK        -0.5000 
     89 N          -7.2570  -22.4838  -48.0976 N.am      16 UNK        -0.5000 
     90 CA         -8.0654  -22.4567  -49.3149 C.3       16 UNK         0.1400 
     91 CB         -7.2612  -23.0992  -50.4545 C.3       16 UNK        -0.1800 
     92 C          -8.5263  -21.0508  -49.7341 C.2       16 UNK         0.5000 
     93 O          -9.5221  -20.9456  -50.4501 O.2       16 UNK        -0.5000 
     94 N          -7.7717  -20.0094  -49.3504 N.am      17 UNK        -0.5000 
     95 CA         -7.8990  -18.5900  -49.7246 C.3       17 UNK         0.1400 
     96 CB         -9.2704  -18.0136  -49.3233 C.3       17 UNK        -0.1800 
     97 C          -7.5695  -18.2884  -51.2044 C.2       17 UNK         0.5000 
     98 O          -7.0293  -17.2210  -51.4987 O.2       17 UNK        -0.5000 
     99 N          -7.8706  -19.2341  -52.1017 N.am      18 UNK        -0.5000 
    100 CA        -7.4325  -19.2883  -53.4946 C.3       18 UNK         0.1400 
    101 CB        -8.2502  -20.3806  -54.2055 C.3       18 UNK        -0.1800 
    102 C         -5.9202  -19.5740  -53.6150 C.2       18 UNK         0.5000 
    103 O         -5.2612  -19.8656  -52.6144 O.2       18 UNK        -0.5000 
    104 N         -5.4045  -19.5063  -54.8519 N.am      19 UNK        -0.5000 
    105 CA        -3.9955  -19.7240  -55.2003 C.3       19 UNK         0.1400 
    106 CB        -3.8126  -19.5473  -56.7153 C.3       19 UNK        -0.1800 
    107 C         -3.4375  -21.0833  -54.7369 C.2       19 UNK         0.5000 
    108 O         -2.3295  -21.1186  -54.2057 O.2       19 UNK        -0.5000 
    109 N         -4.2389  -22.1480  -54.8994 N.am      20 UNK        -0.5000 
    110 CA        -4.0602  -23.5062  -54.3717 C.3       20 UNK         0.1400 
    111 CB        -4.4319  -23.5288  -52.8753 C.3       20 UNK        -0.1800 
    112 C         -2.6738  -24.1250  -54.6529 C.2       20 UNK         0.5000 
    113 O         -2.5033  -24.7948  -55.6721 O.2       20 UNK        -0.5000 
    114 N         -1.7196  -23.8960  -53.7398 N.am      21 UNK        -0.5000 
    115 CA        -0.3221  -24.3163  -53.8406 C.3       21 UNK         0.1400 
    116 CB         0.3643  -24.0810  -52.4847 C.3       21 UNK        -0.1800 
    117 C          0.4531  -23.5994  -54.9641 C.2       21 UNK         0.5000 
    118 O          1.3735  -24.1899  -55.5313 O.2       21 UNK        -0.5000 
    119 N          0.0752  -22.3508  -55.2627 N.am      22 UNK        -0.5000 
    120 CA         0.6203  -21.5587  -56.3712 C.3       22 UNK         0.1400 
    121 C         -0.0412  -21.9706  -57.7131 C.2       22 UNK         0.5000 
    122 N          0.7445  -22.2443  -58.7455 N.am      22 UNK        -0.7600 
    123 O         -1.2631  -22.0011  -57.8381 O.2       22 UNK        -0.5000 
    124 C124        0.4503  -20.0390  -56.1274 C.3       23 UNK        -0.0398 
    125 S125        1.4420  -19.4261  -54.7230 S.3       23 UNK        -0.2404 
    126 C126        0.1743  -19.3394  -53.4247 C.3       23 UNK        -0.0205 
    127 H127        1.8780   -8.5777  -49.3038 H         1 UNK         0.0600 
    128 H128        3.4515   -9.0752  -48.6751 H         1 UNK         0.0600 
    129 H129        2.2487   -8.3701  -47.5896 H         1 UNK         0.0600 
    130 H130        0.4976  -10.2909  -49.6450 H         1 UNK         0.3000 
    131 H131        0.9715  -12.9020  -48.4533 H         1 UNK         0.0600 
    132 H132       -1.2913  -12.1858  -50.3759 H         1 UNK         0.0800 
    133 H133        0.3350  -12.4303  -50.9291 H         1 UNK         0.0800 
    134 H134        1.7919  -14.6570  -50.2962 H         1 UNK         0.0800 
    135 H135        1.0621  -14.6101  -51.8845 H         1 UNK         0.0800 
    136 H136        0.1963  -16.6620  -52.9415 H         1 UNK         0.1150 
    137 H137        1.2738  -20.4169  -51.1779 H         1 UNK         0.1150 
    138 H138        1.8529  -16.7733  -48.9904 H         1 UNK         0.1150 
    139 H139        3.0124  -20.0797  -49.1056 H         1 UNK         0.0800 
    140 H140        2.5612  -18.7966  -48.0218 H         1 UNK         0.0800 
    141 H141        2.3635  -22.2173  -48.8155 H         1 UNK         0.0800 
    142 H142        0.8261  -22.3064  -49.6172 H         1 UNK         0.0800 
    143 H143        1.3750  -24.2309  -48.0543 H         1 UNK         0.0600 
    144 H144        1.4792  -22.1185  -46.0329 H         1 UNK         0.3000 
    145 H145        1.1749  -23.2851  -43.4928 H         1 UNK         0.0600 
    146 H146        3.0810  -24.2641  -42.1975 H         1 UNK         0.0600 
    147 H147        2.1342  -25.4967  -43.0145 H         1 UNK         0.0600 
    148 H148        3.6940  -25.0192  -43.6690 H         1 UNK         0.0600 
    149 H149        2.4221  -21.4995  -43.7209 H         1 UNK         0.3000 
    150 H150        5.7783  -20.8153  -44.3758 H         1 UNK         0.0600 
    151 H151        4.8227  -20.4713  -46.6614 H         1 UNK         0.0600 
    152 H152        4.8886  -18.9582  -45.7680 H         1 UNK         0.0600 
    153 H153        3.3558  -19.8053  -45.9564 H         1 UNK         0.0600 
    154 H154        3.5375  -19.1976  -43.5806 H         1 UNK         0.3000 
    155 H155        3.6806  -19.9970  -40.0909 H         1 UNK         0.0600 
    156 H156        5.3616  -18.1877  -40.4542 H         1 UNK         0.0600 
    157 H157        3.8130  -17.5317  -39.9466 H         1 UNK         0.0600 
    158 H158        4.3046  -17.4255  -41.6354 H         1 UNK         0.0600 
    159 H159        1.9632  -18.2749  -41.5798 H         1 UNK         0.3000 
    160 H160       -0.5048  -20.7488  -42.4053 H         1 UNK         0.0600 
    161 H161       -0.5597  -18.3788  -40.4660 H         1 UNK         0.0600 
    162 H162       -0.9957  -20.0342  -40.0588 H         1 UNK         0.0600 
    163 H163       -1.9574  -19.1394  -41.2251 H         1 UNK         0.0600 
    164 H164       -0.4547  -17.9665  -42.9241 H         1 UNK         0.3000 
    165 H165        1.3400  -18.1353  -46.0472 H         1 UNK         0.0600 
    166 H166       -0.7139  -16.8526  -46.6790 H         1 UNK         0.0600 
    167 H167       -1.0325  -18.5733  -46.5716 H         1 UNK         0.0600 
    168 H168       -1.5583  -17.5046  -45.2757 H         1 UNK         0.0600 
    169 H169        0.3243  -15.9036  -44.6237 H         1 UNK         0.3000 
    170 H170        3.2260  -15.2608  -42.6202 H         1 UNK         0.0600 
    171 H171        3.6248  -14.2065  -44.8309 H         1 UNK         0.0600 
    172 H172        1.9207  -13.8120  -44.9887 H         1 UNK         0.0600 
    173 H173        2.8904  -13.0573  -43.7247 H         1 UNK         0.0600 
    174 H174        0.6076  -14.0658  -42.8701 H         1 UNK         0.3000 
    175 H175       -0.8955  -15.8650  -40.1802 H         1 UNK         0.0600 
    176 H176        0.4676  -14.0934  -39.0624 H         1 UNK         0.0600 
    177 H177        0.0780  -12.9612  -40.3520 H         1 UNK         0.0600 
    178 H178       -1.1933  -13.5707  -39.2919 H         1 UNK         0.0600 
    179 H179       -1.7915  -13.6875  -41.8051 H         1 UNK         0.3000 
    180 H180       -3.1088  -15.6072  -44.4928 H         1 UNK         0.0600 
    181 H181       -4.8517  -15.7730  -42.7095 H         1 UNK         0.0600 
    182 H182       -4.5354  -14.1102  -42.2279 H         1 UNK         0.0600 
    183 H183       -5.2005  -14.4613  -43.8237 H         1 UNK         0.0600 
    184 H184       -3.2521  -12.8333  -43.9567 H         1 UNK         0.3000 
    185 H185       -2.1038  -11.4112  -45.3434 H         1 UNK         0.0600 
    186 H186       -0.9529  -11.2681  -43.1209 H         1 UNK         0.0600 
    187 H187        0.5652  -11.7663  -43.8591 H         1 UNK         0.0600 
    188 H188       -0.1707  -10.2275  -44.2992 H         1 UNK         0.0600 
    189 H189        0.6244  -11.7644  -46.3011 H         1 UNK         0.3000 
    190 H190       -0.4909  -24.7146  -49.3121 H         1 UNK         0.3000 
    191 H191       -2.8821  -25.1279  -47.8984 H         1 UNK         0.0600 
    192 H192       -2.3783  -25.1308  -50.9254 H         1 UNK         0.0600 
    193 H193       -3.7646  -25.8531  -50.1207 H         1 UNK         0.0600 
    194 H194       -2.1577  -26.5018  -49.8382 H         1 UNK         0.0600 
    195 H195       -1.8918  -22.3911  -49.8463 H         1 UNK         0.3000 
    196 H196       -4.3573  -21.1438  -50.3940 H         1 UNK         0.0600 
    197 H197       -2.9377  -19.1177  -50.7212 H         1 UNK         0.0600 
    198 H198       -2.2078  -20.5225  -51.4744 H         1 UNK         0.0600 
    199 H199       -1.5808  -19.9193  -49.9384 H         1 UNK         0.0600 
    200 H200       -2.5747  -21.3445  -47.3612 H         1 UNK         0.3000 
    201 H201       -3.7128  -19.1108  -46.0034 H         1 UNK         0.0600 
    202 H202       -2.7752  -20.1559  -44.0214 H         1 UNK         0.0600 
    203 H203       -2.7577  -21.7500  -44.7686 H         1 UNK         0.0600 
    204 H204       -1.6549  -20.5115  -45.3316 H         1 UNK         0.0600 
    205 H205       -4.8429  -22.4177  -46.5889 H         1 UNK         0.3000 
    206 H206       -7.2026  -22.0965  -44.8016 H         1 UNK         0.0600 
    207 H207       -5.8840  -24.1853  -44.5766 H         1 UNK         0.0600 
    208 H208       -7.4824  -24.5337  -45.2175 H         1 UNK         0.0600 
    209 H209       -6.0886  -24.5327  -46.2925 H         1 UNK         0.0600 
    210 H210       -6.2800  -22.7421  -48.2147 H         1 UNK         0.3000 
    211 H211       -8.9597  -23.0607  -49.1475 H         1 UNK         0.0600 
    212 H212       -7.8442  -23.1397  -51.3755 H         1 UNK         0.0600 
    213 H213       -6.9694  -24.1204  -50.2083 H         1 UNK         0.0600 
    214 H214       -6.3535  -22.5330  -50.6641 H         1 UNK         0.0600 
    215 H215       -6.9377  -20.2139  -48.8123 H         1 UNK         0.3000 
    216 H216       -7.1452  -18.0686  -49.1329 H         1 UNK         0.0600 
    217 H217       -9.2940  -16.9338  -49.4748 H         1 UNK         0.0600 
    218 H218       -9.4833  -18.1993  -48.2706 H         1 UNK         0.0600 
    219 H219      -10.0831  -18.4392  -49.9119 H         1 UNK         0.0600 
    220 H220       -8.3608  -20.0490  -51.7520 H         1 UNK         0.3000 
    221 H221       -7.6391  -18.3233  -53.9613 H         1 UNK         0.0600 
    222 H222       -8.0495  -21.3677  -53.7863 H         1 UNK         0.0600 
    223 H223       -9.3203  -20.1919  -54.1161 H         1 UNK         0.0600 
    224 H224       -8.0210  -20.4226  -55.2707 H         1 UNK         0.0600 
    225 H225       -6.0174  -19.2660  -55.6174 H         1 UNK         0.3000 
    226 H226       -3.4148  -18.9487  -54.6961 H         1 UNK         0.0600 
    227 H227       -2.7721  -19.6946  -57.0058 H         1 UNK         0.0600 
    228 H228       -4.4118  -20.2625  -57.2800 H         1 UNK         0.0600 
    229 H229       -4.0973  -18.5443  -57.0334 H         1 UNK         0.0600 
    230 H230       -5.1122  -21.9899  -55.3804 H         1 UNK         0.3000 
    231 H231       -4.7844  -24.1340  -54.8932 H         1 UNK         0.0600 
    232 H232       -5.4775  -23.2548  -52.7425 H         1 UNK         0.0600 
    233 H233       -3.8344  -22.8298  -52.2900 H         1 UNK         0.0600 
    234 H234       -4.3029  -24.5238  -52.4486 H         1 UNK         0.0600 
    235 H235       -1.9480  -23.2721  -52.9806 H         1 UNK         0.3000 
    236 H236       -0.3044  -25.3867  -54.0559 H         1 UNK         0.0600 
    237 H237       -0.1089  -24.6644  -51.6960 H         1 UNK         0.0600 
    238 H238        1.4128  -24.3796  -52.5210 H         1 UNK         0.0600 
    239 H239        0.3330  -23.0297  -52.1952 H         1 UNK         0.0600 
    240 H240       -0.7363  -21.9588  -54.7927 H         1 UNK         0.3000 
    241 H241        1.6912  -21.7610  -56.4420 H         1 UNK         0.0600 
    242 H242        0.3242  -22.4979  -59.6263 H         1 UNK         0.3800 
    243 H243        1.7499  -22.2223  -58.6666 H         1 UNK         0.3800 
    244 H244        0.7721  -19.4796  -57.0076 H         1 UNK         0.0800 
    245 H245       -0.5999  -19.7850  -55.9807 H         1 UNK         0.0800 
    246 H246       -0.1284  -20.3516  -53.1566 H         1 UNK         0.0800 
    247 H247       -0.7166  -18.8353  -53.8021 H         1 UNK         0.0800 
@<TRIPOS>BOND
     1    1    2 1    
     2    1  127 1    
     3    1  128 1    
     4    1  129 1    
     5    2    3 2    
     6    2    4 am   BACKBONE|DICT|INTERRES
     7    4    5 1    
     8    4  130 1    
     9    5    6 1    
    10    5   65 1    
    11    5  131 1    
    12    6    7 1    
    13    6  132 1    
    14    6  133 1    
    15    7    8 1    
    16    8    9 1    
    17    8  134 1    
    18    8  135 1    
    19    9   10 ar   
    20    9   14 ar   
    21   10   11 ar   
    22   10  136 1    
    23   11   12 ar   
    24   11  126 1    
    25   12   13 ar   
    26   12  137 1    
    27   13   14 ar   
    28   13   15 1    
    29   14  138 1    
    30   15   16 1    
    31   15  139 1    
    32   15  140 1    
    33   16   17 1    
    34   17   18 1    
    35   17  141 1    
    36   17  142 1    
    37   18   19 1    
    38   18   67 1    
    39   18  143 1    
    40   19   20 am   BACKBONE|DICT|INTERRES
    41   19  144 1    
    42   20   21 2    
    43   20   22 1    
    44   22   23 1    
    45   22   24 1    
    46   22  145 1    
    47   23  146 1    
    48   23  147 1    
    49   23  148 1    
    50   24   25 am   BACKBONE|DICT|INTERRES
    51   24  149 1    
    52   25   26 2    
    53   25   27 1    
    54   27   28 1    
    55   27   29 1    
    56   27  150 1    
    57   28  151 1    
    58   28  152 1    
    59   28  153 1    
    60   29   30 am   BACKBONE|DICT|INTERRES
    61   29  154 1    
    62   30   31 2    
    63   30   32 1    
    64   32   33 1    
    65   32   34 1    
    66   32  155 1    
    67   33  156 1    
    68   33  157 1    
    69   33  158 1    
    70   34   35 am   BACKBONE|DICT|INTERRES
    71   34  159 1    
    72   35   36 2    
    73   35   37 1    
    74   37   38 1    
    75   37   39 1    
    76   37  160 1    
    77   38  161 1    
    78   38  162 1    
    79   38  163 1    
    80   39   40 am   BACKBONE|DICT|INTERRES
    81   39  164 1    
    82   40   41 2    
    83   40   42 1    
    84   42   43 1    
    85   42   44 1    
    86   42  165 1    
    87   43  166 1    
    88   43  167 1    
    89   43  168 1    
    90   44   45 am   BACKBONE|DICT|INTERRES
    91   44  169 1    
    92   45   46 2    
    93   45   47 1    
    94   47   48 1    
    95   47   49 1    
    96   47  170 1    
    97   48  171 1    
    98   48  172 1    
    99   48  173 1    
   100   49   50 am   BACKBONE|DICT|INTERRES
   101   49  174 1    
   102   50   51 2    
   103   50   52 1    
   104   52   53 1    
   105   52   54 1    
   106   52  175 1    
   107   53  176 1    
   108   53  177 1    
   109   53  178 1    
   110   54   55 am   BACKBONE|DICT|INTERRES
   111   54  179 1    
   112   55   56 2    
   113   55   57 1    
   114   57   58 1    
   115   57   59 1    
   116   57  180 1    
   117   58  181 1    
   118   58  182 1    
   119   58  183 1    
   120   59   60 am   BACKBONE|DICT|INTERRES
   121   59  184 1    
   122   60   61 2    
   123   60   62 1    
   124   62   63 1    
   125   62   64 1    
   126   62  185 1    
   127   63  186 1    
   128   63  187 1    
   129   63  188 1    
   130   64   65 am   BACKBONE|DICT|INTERRES
   131   64  189 1    
   132   65   66 2    
   133   67   68 2    
   134   67   69 am   BACKBONE|DICT|INTERRES
   135   69   70 1    
   136   69  190 1    
   137   70   71 1    
   138   70   72 1    
   139   70  191 1    
   140   71  192 1    
   141   71  193 1    
   142   71  194 1    
   143   72   73 2    
   144   72   74 am   BACKBONE|DICT|INTERRES
   145   74   75 1    
   146   74  195 1    
   147   75   76 1    
   148   75   77 1    
   149   75  196 1    
   150   76  197 1    
   151   76  198 1    
   152   76  199 1    
   153   77   78 2    
   154   77   79 am   BACKBONE|DICT|INTERRES
   155   79   80 1    
   156   79  200 1    
   157   80   81 1    
   158   80   82 1    
   159   80  201 1    
   160   81  202 1    
   161   81  203 1    
   162   81  204 1    
   163   82   83 2    
   164   82   84 am   BACKBONE|DICT|INTERRES
   165   84   85 1    
   166   84  205 1    
   167   85   86 1    
   168   85   87 1    
   169   85  206 1    
   170   86  207 1    
   171   86  208 1    
   172   86  209 1    
   173   87   88 2    
   174   87   89 am   BACKBONE|DICT|INTERRES
   175   89   90 1    
   176   89  210 1    
   177   90   91 1    
   178   90   92 1    
   179   90  211 1    
   180   91  212 1    
   181   91  213 1    
   182   91  214 1    
   183   92   93 2    
   184   92   94 am   BACKBONE|DICT|INTERRES
   185   94   95 1    
   186   94  215 1    
   187   95   96 1    
   188   95   97 1    
   189   95  216 1    
   190   96  217 1    
   191   96  218 1    
   192   96  219 1    
   193   97   98 2    
   194   97   99 am   BACKBONE|DICT|INTERRES
   195   99  100 1    
   196   99  220 1    
   197  100  101 1    
   198  100  102 1    
   199  100  221 1    
   200  101  222 1    
   201  101  223 1    
   202  101  224 1    
   203  102  103 2    
   204  102  104 am   BACKBONE|DICT|INTERRES
   205  104  105 1    
   206  104  225 1    
   207  105  106 1    
   208  105  107 1    
   209  105  226 1    
   210  106  227 1    
   211  106  228 1    
   212  106  229 1    
   213  107  108 2    
   214  107  109 am   BACKBONE|DICT|INTERRES
   215  109  110 1    
   216  109  230 1    
   217  110  111 1    
   218  110  112 1    
   219  110  231 1    
   220  111  232 1    
   221  111  233 1    
   222  111  234 1    
   223  112  113 2    
   224  112  114 am   BACKBONE|DICT|INTERRES
   225  114  115 1    
   226  114  235 1    
   227  115  116 1    
   228  115  117 1    
   229  115  236 1    
   230  116  237 1    
   231  116  238 1    
   232  116  239 1    
   233  117  118 2    
   234  117  119 am   BACKBONE|DICT|INTERRES
   235  119  120 1    
   236  119  240 1    
   237  120  121 1    
   238  120  124 1    
   239  120  241 1    
   240  121  122 am   BACKBONE|DICT|INTERRES
   241  121  123 2    
   242  122  242 1    
   243  122  243 1    
   244  124  125 1    
   245  124  244 1    
   246  124  245 1    
   247  125  126 1    
   248  126  246 1    
   249  126  247 1    
@<TRIPOS>SUBSTRUCTURE
     1 UNK         1 GROUP             0       ****    0 ROOT    
