@<TRIPOS>MOLECULE
3R540
247   249    1
SMALL
USER_CHARGES


@<TRIPOS>ATOM
      1 CA          0.9161  -14.1440  -43.6619 C.3       0 UNK        -0.1800 
      2 C          -0.4978  -13.6303  -43.8860 C.2       0 UNK         0.5000 
      3 O          -1.3056  -13.6167  -42.9578 O.2       0 UNK        -0.5000 
      4 N          -0.7956  -13.1822  -45.1103 N.am      1 UNK        -0.5000 
      5 CA         -2.0805  -12.6222  -45.5445 C.3       1 UNK         0.1400 
      6 C6         -2.3302  -12.8796  -47.0567 C.3       23 UNK        -0.0398 
      7 S7         -1.0099  -12.3062  -48.1945 S.3       23 UNK        -0.2404 
      8 C8          0.1327  -13.7242  -48.3071 C.3       23 UNK        -0.0205 
      9 C9         -0.5135  -14.9766  -48.8799 C.ar      23 UNK        -0.0193 
     10 C10        -0.6321  -15.1416  -50.2626 C.ar      23 UNK        -0.1150 
     11 C11        -1.1771  -16.3148  -50.7943 C.ar      23 UNK        -0.0193 
     12 C12        -1.5979  -17.3300  -49.9302 C.ar      23 UNK        -0.1150 
     13 C13        -1.5030  -17.1668  -48.5455 C.ar      23 UNK        -0.0193 
     14 C14        -0.9571  -15.9907  -48.0266 C.ar      23 UNK        -0.1150 
     15 C15        -1.9667  -18.2686  -47.6095 C.3       23 UNK        -0.0205 
     16 S16        -3.7741  -18.4560  -47.6275 S.3       23 UNK        -0.2404 
     17 C17        -4.0588  -19.5183  -46.1711 C.3       23 UNK        -0.0398 
     18 CA         -3.7953  -21.0132  -46.4688 C.3       11 UNK         0.1400 
     19 N          -2.3632  -21.3344  -46.5071 N.am      11 UNK        -0.5000 
     20 C          -1.8509  -22.4872  -46.9572 C.2       10 UNK         0.5000 
     21 O          -2.5372  -23.4054  -47.4005 O.2       10 UNK        -0.5000 
     22 CA         -0.3296  -22.6655  -46.8500 C.3       10 UNK         0.1400 
     23 CB          0.3827  -21.9901  -48.0312 C.3       10 UNK        -0.1800 
     24 N           0.1797  -22.1432  -45.5817 N.am      10 UNK        -0.5000 
     25 C           0.0125  -22.7665  -44.4045 C.2       9 UNK         0.5000 
     26 O          -0.5242  -23.8683  -44.2922 O.2       9 UNK        -0.5000 
     27 CA          0.4883  -22.0335  -43.1334 C.3       9 UNK         0.1400 
     28 CB          1.9386  -22.4165  -42.8046 C.3       9 UNK        -0.1800 
     29 N           0.3876  -20.5761  -43.2190 N.am      9 UNK        -0.5000 
     30 C          -0.7478  -19.8893  -43.4063 C.2       8 UNK         0.5000 
     31 O          -1.8589  -20.4139  -43.4798 O.2       8 UNK        -0.5000 
     32 CA         -0.6185  -18.3666  -43.6079 C.3       8 UNK         0.1400 
     33 CB         -0.8165  -17.6345  -42.2727 C.3       8 UNK        -0.1800 
     34 N           0.6457  -17.9291  -44.2134 N.am      8 UNK        -0.5000 
     35 C           1.1860  -18.3745  -45.3583 C.2       7 UNK         0.5000 
     36 O           0.6793  -19.2660  -46.0396 O.2       7 UNK        -0.5000 
     37 CA          2.5127  -17.7371  -45.8218 C.3       7 UNK         0.1400 
     38 CB          2.3605  -17.0977  -47.2109 C.3       7 UNK        -0.1800 
     39 N           3.0544  -16.7265  -44.9089 N.am      7 UNK        -0.5000 
     40 C           3.6724  -16.9676  -43.7447 C.2       6 UNK         0.5000 
     41 O           3.7833  -18.0951  -43.2616 O.2       6 UNK        -0.5000 
     42 CA          4.2249  -15.7366  -42.9879 C.3       6 UNK         0.1400 
     43 CB          5.4563  -16.0775  -42.1235 C.3       6 UNK        -0.1800 
     44 N           4.4987  -14.5738  -43.8478 N.am      6 UNK        -0.5000 
     45 C           5.3815  -14.5015  -44.8583 C.2       5 UNK         0.5000 
     46 O           6.0803  -15.4434  -45.2325 O.2       5 UNK        -0.5000 
     47 CA          5.4926  -13.1496  -45.5924 C.3       5 UNK         0.1400 
     48 CB          4.5898  -13.1511  -46.8372 C.3       5 UNK        -0.1800 
     49 N           5.1563  -11.9826  -44.7721 N.am      5 UNK        -0.5000 
     50 C           5.8001  -11.5850  -43.6649 C.2       4 UNK         0.5000 
     51 O           6.7719  -12.1798  -43.1972 O.2       4 UNK        -0.5000 
     52 CA          5.2918  -10.3053  -42.9626 C.3       4 UNK         0.1400 
     53 CB          6.4091   -9.2520  -42.8737 C.3       4 UNK        -0.1800 
     54 N           4.1198   -9.6827  -43.5901 N.am      4 UNK        -0.5000 
     55 C           2.8678  -10.1516  -43.5373 C.2       3 UNK         0.5000 
     56 O           2.5565  -11.2194  -43.0032 O.2       3 UNK        -0.5000 
     57 CA          1.7982   -9.3018  -44.2370 C.3       3 UNK         0.1400 
     58 CB          1.8417   -9.5113  -45.7614 C.3       3 UNK        -0.1800 
     59 N           0.4859   -9.6907  -43.7390 N.am      3 UNK        -0.5000 
     60 C          -0.5875   -8.8989  -43.6340 C.2       2 UNK         0.5000 
     61 O          -0.5843   -7.6989  -43.9158 O.2       2 UNK        -0.5000 
     62 CA         -1.8813   -9.5939  -43.1549 C.3       2 UNK         0.1400 
     63 CB         -3.1422   -8.7150  -43.2951 C.3       2 UNK        -0.1800 
     64 N          -2.0600  -10.8976  -43.8068 N.am      2 UNK        -0.5000 
     65 C          -2.2030  -11.1393  -45.1197 C.2       1 UNK         0.5000 
     66 O          -2.3748  -10.2584  -45.9631 O.2       1 UNK        -0.5000 
     67 C          -4.5477  -21.9319  -45.4846 C.2       11 UNK         0.5000 
     68 O          -5.6306  -22.4141  -45.8182 O.2       11 UNK        -0.5000 
     69 N          -3.9252  -22.2290  -44.3345 N.am      12 UNK        -0.5000 
     70 CA         -4.3922  -23.2118  -43.3518 C.3       12 UNK         0.1400 
     71 CB         -3.4984  -23.1356  -42.1052 C.3       12 UNK        -0.1800 
     72 C          -4.4397  -24.6560  -43.8970 C.2       12 UNK         0.5000 
     73 O          -5.2397  -25.4583  -43.4161 O.2       12 UNK        -0.5000 
     74 N          -3.6171  -24.9468  -44.9134 N.am      13 UNK        -0.5000 
     75 CA         -3.5809  -26.2031  -45.6619 C.3       13 UNK         0.1400 
     76 CB         -2.1137  -26.5468  -45.9777 C.3       13 UNK        -0.1800 
     77 C          -4.4469  -26.1434  -46.9402 C.2       13 UNK         0.5000 
     78 O          -4.1815  -26.8881  -47.8845 O.2       13 UNK        -0.5000 
     79 N          -5.4554  -25.2574  -46.9633 N.am      14 UNK        -0.5000 
     80 CA         -6.4171  -25.0316  -48.0484 C.3       14 UNK         0.1400 
     81 CB         -7.3179  -26.2687  -48.2496 C.3       14 UNK        -0.1800 
     82 C          -5.7332  -24.5650  -49.3481 C.2       14 UNK         0.5000 
     83 O          -5.9469  -25.1507  -50.4105 O.2       14 UNK        -0.5000 
     84 N          -4.8849  -23.5352  -49.2180 N.am      15 UNK        -0.5000 
     85 CA         -4.0310  -22.9569  -50.2633 C.3       15 UNK         0.1400 
     86 CB         -4.8836  -22.2758  -51.3542 C.3       15 UNK        -0.1800 
     87 C          -3.0297  -23.9919  -50.8168 C.2       15 UNK         0.5000 
     88 O          -2.8593  -24.1087  -52.0308 O.2       15 UNK        -0.5000 
     89 N          -2.4182  -24.7496  -49.8944 N.am      16 UNK        -0.5000 
     90 CA         -1.5230  -25.8879  -50.1196 C.3       16 UNK         0.1400 
     91 CB         -0.1736  -25.4016  -50.6880 C.3       16 UNK        -0.1800 
     92 C          -2.1891  -26.9825  -50.9798 C.2       16 UNK         0.5000 
     93 O          -1.6209  -27.4123  -51.9829 O.2       16 UNK        -0.5000 
     94 N          -3.4131  -27.3706  -50.5925 N.am      17 UNK        -0.5000 
     95 CA         -4.3309  -28.2574  -51.3173 C.3       17 UNK         0.1400 
     96 CB         -3.8029  -29.7069  -51.3191 C.3       17 UNK        -0.1800 
     97 C          -4.6643  -27.7259  -52.7297 C.2       17 UNK         0.5000 
     98 O          -4.6144  -28.4731  -53.7086 O.2       17 UNK        -0.5000 
     99 N          -4.9755  -26.4237  -52.7940 N.am      18 UNK        -0.5000 
    100 CA        -5.2841  -25.6206  -53.9813 C.3       18 UNK         0.1400 
    101 CB        -6.6047  -26.0910  -54.6255 C.3       18 UNK        -0.1800 
    102 C         -4.1300  -25.5025  -55.0035 C.2       18 UNK         0.5000 
    103 O         -4.3854  -25.1971  -56.1701 O.2       18 UNK        -0.5000 
    104 N         -2.8837  -25.7287  -54.5658 N.am      19 UNK        -0.5000 
    105 CA        -1.6851  -25.5727  -55.3900 C.3       19 UNK         0.1400 
    106 CB        -0.5548  -26.4512  -54.8357 C.3       19 UNK        -0.1800 
    107 C         -1.2236  -24.1078  -55.4845 C.2       19 UNK         0.5000 
    108 O         -0.6534  -23.7261  -56.5081 O.2       19 UNK        -0.5000 
    109 N         -1.4613  -23.3134  -54.4306 N.am      20 UNK        -0.5000 
    110 CA        -1.1450  -21.8867  -54.3998 C.3       20 UNK         0.1400 
    111 CB        -1.0677  -21.4044  -52.9424 C.3       20 UNK        -0.1800 
    112 C         -2.1901  -21.0812  -55.1904 C.2       20 UNK         0.5000 
    113 O         -3.3796  -21.4078  -55.1517 O.2       20 UNK        -0.5000 
    114 N         -1.7299  -20.0172  -55.8624 N.am      21 UNK        -0.5000 
    115 CA        -2.5282  -19.1531  -56.7415 C.3       21 UNK         0.1400 
    116 CB        -1.5964  -18.1317  -57.4120 C.3       21 UNK        -0.1800 
    117 C         -3.7005  -18.4320  -56.0460 C.2       21 UNK         0.5000 
    118 O         -4.6765  -18.0828  -56.7113 O.2       21 UNK        -0.5000 
    119 N         -3.5889  -18.2392  -54.7269 N.am      22 UNK        -0.5000 
    120 CA        -4.6456  -17.6905  -53.8634 C.3       22 UNK         0.1400 
    121 C         -5.7797  -18.7042  -53.5226 C.2       22 UNK         0.5000 
    122 N         -5.6783  -19.9795  -53.8816 N.am      22 UNK        -0.7600 
    123 O         -6.7834  -18.3206  -52.9283 O.2       22 UNK        -0.5000 
    124 C124       -4.0635  -17.0519  -52.5761 C.3       23 UNK        -0.0398 
    125 S125       -2.8374  -15.7440  -52.9345 S.3       23 UNK        -0.2404 
    126 C126       -1.2981  -16.4824  -52.3013 C.3       23 UNK        -0.0205 
    127 H127        0.8975  -15.2147  -43.4714 H         1 UNK         0.0600 
    128 H128        1.3586  -13.6538  -42.7950 H         1 UNK         0.0600 
    129 H129        1.5565  -13.9547  -44.5233 H         1 UNK         0.0600 
    130 H130       -0.0761  -13.1591  -45.8164 H         1 UNK         0.3000 
    131 H131       -2.8759  -13.1475  -45.0110 H         1 UNK         0.0600 
    132 H132       -3.2620  -12.4022  -47.3643 H         1 UNK         0.0800 
    133 H133       -2.5051  -13.9420  -47.2161 H         1 UNK         0.0800 
    134 H134        0.5679  -13.9355  -47.3313 H         1 UNK         0.0800 
    135 H135        0.9719  -13.4360  -48.9421 H         1 UNK         0.0800 
    136 H136       -0.2959  -14.3570  -50.9261 H         1 UNK         0.1150 
    137 H137       -2.0086  -18.2464  -50.3290 H         1 UNK         0.1150 
    138 H138       -0.8675  -15.8678  -46.9563 H         1 UNK         0.1150 
    139 H139       -1.4949  -19.2033  -47.9100 H         1 UNK         0.0800 
    140 H140       -1.6399  -18.0602  -46.5922 H         1 UNK         0.0800 
    141 H141       -5.1007  -19.3629  -45.8840 H         1 UNK         0.0800 
    142 H142       -3.4638  -19.1681  -45.3270 H         1 UNK         0.0800 
    143 H143       -4.2035  -21.2302  -47.4579 H         1 UNK         0.0600 
    144 H144       -1.7319  -20.6526  -46.1133 H         1 UNK         0.3000 
    145 H145       -0.1147  -23.7352  -46.8997 H         1 UNK         0.0600 
    146 H146        0.2143  -20.9138  -48.0505 H         1 UNK         0.0600 
    147 H147        1.4588  -22.1584  -47.9892 H         1 UNK         0.0600 
    148 H148        0.0271  -22.3916  -48.9811 H         1 UNK         0.0600 
    149 H149        0.5844  -21.2124  -45.6025 H         1 UNK         0.3000 
    150 H150       -0.1477  -22.3608  -42.3085 H         1 UNK         0.0600 
    151 H151        2.0457  -23.4981  -42.7108 H         1 UNK         0.0600 
    152 H152        2.2589  -21.9764  -41.8601 H         1 UNK         0.0600 
    153 H153        2.6283  -22.0838  -43.5816 H         1 UNK         0.0600 
    154 H154        1.2547  -20.0598  -43.1839 H         1 UNK         0.3000 
    155 H155       -1.4236  -18.0622  -44.2773 H         1 UNK         0.0600 
    156 H156       -1.7418  -17.9483  -41.7872 H         1 UNK         0.0600 
    157 H157       -0.8824  -16.5563  -42.4172 H         1 UNK         0.0600 
    158 H158        0.0017  -17.8334  -41.5793 H         1 UNK         0.0600 
    159 H159        1.1598  -17.2249  -43.7084 H         1 UNK         0.3000 
    160 H160        3.2367  -18.5504  -45.9030 H         1 UNK         0.0600 
    161 H161        3.3277  -16.7892  -47.6082 H         1 UNK         0.0600 
    162 H162        1.7202  -16.2175  -47.1772 H         1 UNK         0.0600 
    163 H163        1.9250  -17.7952  -47.9282 H         1 UNK         0.0600 
    164 H164        3.0226  -15.7720  -45.2317 H         1 UNK         0.3000 
    165 H165        3.4299  -15.4259  -42.3087 H         1 UNK         0.0600 
    166 H166        6.2768  -16.4712  -42.7240 H         1 UNK         0.0600 
    167 H167        5.8214  -15.1972  -41.5941 H         1 UNK         0.0600 
    168 H168        5.2129  -16.8288  -41.3714 H         1 UNK         0.0600 
    169 H169        3.9874  -13.7316  -43.6208 H         1 UNK         0.3000 
    170 H170        6.5290  -13.0391  -45.9178 H         1 UNK         0.0600 
    171 H171        3.5341  -13.2186  -46.5707 H         1 UNK         0.0600 
    172 H172        4.7293  -12.2449  -47.4270 H         1 UNK         0.0600 
    173 H173        4.8188  -13.9970  -47.4870 H         1 UNK         0.0600 
    174 H174        4.3758  -11.4240  -45.0814 H         1 UNK         0.3000 
    175 H175        5.0179  -10.5931  -41.9454 H         1 UNK         0.0600 
    176 H176        6.7313   -8.9244  -43.8629 H         1 UNK         0.0600 
    177 H177        6.0803   -8.3733  -42.3186 H         1 UNK         0.0600 
    178 H178        7.2850   -9.6475  -42.3576 H         1 UNK         0.0600 
    179 H179        4.2911   -8.8122  -44.0732 H         1 UNK         0.3000 
    180 H180        1.9867   -8.2521  -44.0017 H         1 UNK         0.0600 
    181 H181        1.6627  -10.5536  -46.0294 H         1 UNK         0.0600 
    182 H182        2.8098   -9.2250  -46.1739 H         1 UNK         0.0600 
    183 H183        1.0857   -8.9067  -46.2632 H         1 UNK         0.0600 
    184 H184        0.4317  -10.6493  -43.4216 H         1 UNK         0.3000 
    185 H185       -1.7420   -9.7985  -42.0925 H         1 UNK         0.0600 
    186 H186       -3.0527   -7.8098  -42.6936 H         1 UNK         0.0600 
    187 H187       -3.3123   -8.4036  -44.3259 H         1 UNK         0.0600 
    188 H188       -4.0314   -9.2445  -42.9533 H         1 UNK         0.0600 
    189 H189       -1.9172  -11.7093  -43.2131 H         1 UNK         0.3000 
    190 H190       -3.0628  -21.7395  -44.1088 H         1 UNK         0.3000 
    191 H191       -5.4083  -22.9361  -43.0626 H         1 UNK         0.0600 
    192 H192       -2.4670  -23.4038  -42.3348 H         1 UNK         0.0600 
    193 H193       -3.4967  -22.1315  -41.6805 H         1 UNK         0.0600 
    194 H194       -3.8500  -23.8170  -41.3295 H         1 UNK         0.0600 
    195 H195       -3.0017  -24.2203  -45.2537 H         1 UNK         0.3000 
    196 H196       -3.9844  -27.0082  -45.0451 H         1 UNK         0.0600 
    197 H197       -1.5154  -26.5869  -45.0673 H         1 UNK         0.0600 
    198 H198       -1.6594  -25.8110  -46.6406 H         1 UNK         0.0600 
    199 H199       -2.0309  -27.5209  -46.4611 H         1 UNK         0.0600 
    200 H200       -5.5565  -24.6408  -46.1673 H         1 UNK         0.3000 
    201 H201       -7.0569  -24.2086  -47.7266 H         1 UNK         0.0600 
    202 H202       -8.1037  -26.0632  -48.9773 H         1 UNK         0.0600 
    203 H203       -7.8056  -26.5563  -47.3183 H         1 UNK         0.0600 
    204 H204       -6.7556  -27.1293  -48.6133 H         1 UNK         0.0600 
    205 H205       -4.7111  -23.1986  -48.2812 H         1 UNK         0.3000 
    206 H206       -3.4309  -22.1806  -49.7868 H         1 UNK         0.0600 
    207 H207       -5.5255  -21.5062  -50.9258 H         1 UNK         0.0600 
    208 H208       -5.5210  -22.9858  -51.8793 H         1 UNK         0.0600 
    209 H209       -4.2584  -21.7913  -52.1029 H         1 UNK         0.0600 
    210 H210       -2.6160  -24.5312  -48.9217 H         1 UNK         0.3000 
    211 H211       -1.3324  -26.3359  -49.1436 H         1 UNK         0.0600 
    212 H212        0.2942  -24.6775  -50.0217 H         1 UNK         0.0600 
    213 H213        0.5239  -26.2317  -50.8048 H         1 UNK         0.0600 
    214 H214       -0.2893  -24.9306  -51.6645 H         1 UNK         0.0600 
    215 H215       -3.7756  -26.9950  -49.7185 H         1 UNK         0.3000 
    216 H216       -5.2675  -28.2477  -50.7579 H         1 UNK         0.0600 
    217 H217       -4.5356  -30.3879  -51.7534 H         1 UNK         0.0600 
    218 H218       -2.8835  -29.8042  -51.8972 H         1 UNK         0.0600 
    219 H219       -3.6001  -30.0525  -50.3054 H         1 UNK         0.0600 
    220 H220       -5.0358  -25.9162  -51.9144 H         1 UNK         0.3000 
    221 H221       -5.4468  -24.6075  -53.6132 H         1 UNK         0.0600 
    222 H222       -6.5040  -27.0763  -55.0812 H         1 UNK         0.0600 
    223 H223       -7.4060  -26.1415  -53.8882 H         1 UNK         0.0600 
    224 H224       -6.9289  -25.4017  -55.4059 H         1 UNK         0.0600 
    225 H225       -2.7442  -25.9451  -53.5866 H         1 UNK         0.3000 
    226 H226       -1.9063  -25.9192  -56.4017 H         1 UNK         0.0600 
    227 H227       -0.8670  -27.4924  -54.7523 H         1 UNK         0.0600 
    228 H228        0.3165  -26.4231  -55.4910 H         1 UNK         0.0600 
    229 H229       -0.2316  -26.1161  -53.8500 H         1 UNK         0.0600 
    230 H230       -1.9839  -23.6805  -53.6384 H         1 UNK         0.3000 
    231 H231       -0.1635  -21.7395  -54.8558 H         1 UNK         0.0600 
    232 H232       -0.7429  -20.3646  -52.8917 H         1 UNK         0.0600 
    233 H233       -0.3553  -21.9966  -52.3676 H         1 UNK         0.0600 
    234 H234       -2.0325  -21.4682  -52.4427 H         1 UNK         0.0600 
    235 H235       -0.7416  -19.8124  -55.8250 H         1 UNK         0.3000 
    236 H236       -2.9577  -19.7868  -57.5201 H         1 UNK         0.0600 
    237 H237       -1.1127  -17.4867  -56.6772 H         1 UNK         0.0600 
    238 H238       -0.8169  -18.6273  -57.9910 H         1 UNK         0.0600 
    239 H239       -2.1491  -17.4892  -58.0988 H         1 UNK         0.0600 
    240 H240       -2.7516  -18.5592  -54.2666 H         1 UNK         0.3000 
    241 H241       -5.1350  -16.8887  -54.4198 H         1 UNK         0.0600 
    242 H242       -4.8646  -20.3313  -54.3758 H         1 UNK         0.3800 
    243 H243       -6.4315  -20.6094  -53.6596 H         1 UNK         0.3800 
    244 H244       -4.8589  -16.5964  -51.9837 H         1 UNK         0.0800 
    245 H245       -3.6218  -17.8208  -51.9427 H         1 UNK         0.0800 
    246 H246       -0.4519  -15.9968  -52.7897 H         1 UNK         0.0800 
    247 H247       -1.2425  -17.5356  -52.5800 H         1 UNK         0.0800 
@<TRIPOS>BOND
     1    1    2 1    
     2    1  127 1    
     3    1  128 1    
     4    1  129 1    
     5    2    3 2    
     6    2    4 am   BACKBONE|DICT|INTERRES
     7    4    5 1    
     8    4  130 1    
     9    5    6 1    
    10    5   65 1    
    11    5  131 1    
    12    6    7 1    
    13    6  132 1    
    14    6  133 1    
    15    7    8 1    
    16    8    9 1    
    17    8  134 1    
    18    8  135 1    
    19    9   10 ar   
    20    9   14 ar   
    21   10   11 ar   
    22   10  136 1    
    23   11   12 ar   
    24   11  126 1    
    25   12   13 ar   
    26   12  137 1    
    27   13   14 ar   
    28   13   15 1    
    29   14  138 1    
    30   15   16 1    
    31   15  139 1    
    32   15  140 1    
    33   16   17 1    
    34   17   18 1    
    35   17  141 1    
    36   17  142 1    
    37   18   19 1    
    38   18   67 1    
    39   18  143 1    
    40   19   20 am   BACKBONE|DICT|INTERRES
    41   19  144 1    
    42   20   21 2    
    43   20   22 1    
    44   22   23 1    
    45   22   24 1    
    46   22  145 1    
    47   23  146 1    
    48   23  147 1    
    49   23  148 1    
    50   24   25 am   BACKBONE|DICT|INTERRES
    51   24  149 1    
    52   25   26 2    
    53   25   27 1    
    54   27   28 1    
    55   27   29 1    
    56   27  150 1    
    57   28  151 1    
    58   28  152 1    
    59   28  153 1    
    60   29   30 am   BACKBONE|DICT|INTERRES
    61   29  154 1    
    62   30   31 2    
    63   30   32 1    
    64   32   33 1    
    65   32   34 1    
    66   32  155 1    
    67   33  156 1    
    68   33  157 1    
    69   33  158 1    
    70   34   35 am   BACKBONE|DICT|INTERRES
    71   34  159 1    
    72   35   36 2    
    73   35   37 1    
    74   37   38 1    
    75   37   39 1    
    76   37  160 1    
    77   38  161 1    
    78   38  162 1    
    79   38  163 1    
    80   39   40 am   BACKBONE|DICT|INTERRES
    81   39  164 1    
    82   40   41 2    
    83   40   42 1    
    84   42   43 1    
    85   42   44 1    
    86   42  165 1    
    87   43  166 1    
    88   43  167 1    
    89   43  168 1    
    90   44   45 am   BACKBONE|DICT|INTERRES
    91   44  169 1    
    92   45   46 2    
    93   45   47 1    
    94   47   48 1    
    95   47   49 1    
    96   47  170 1    
    97   48  171 1    
    98   48  172 1    
    99   48  173 1    
   100   49   50 am   BACKBONE|DICT|INTERRES
   101   49  174 1    
   102   50   51 2    
   103   50   52 1    
   104   52   53 1    
   105   52   54 1    
   106   52  175 1    
   107   53  176 1    
   108   53  177 1    
   109   53  178 1    
   110   54   55 am   BACKBONE|DICT|INTERRES
   111   54  179 1    
   112   55   56 2    
   113   55   57 1    
   114   57   58 1    
   115   57   59 1    
   116   57  180 1    
   117   58  181 1    
   118   58  182 1    
   119   58  183 1    
   120   59   60 am   BACKBONE|DICT|INTERRES
   121   59  184 1    
   122   60   61 2    
   123   60   62 1    
   124   62   63 1    
   125   62   64 1    
   126   62  185 1    
   127   63  186 1    
   128   63  187 1    
   129   63  188 1    
   130   64   65 am   BACKBONE|DICT|INTERRES
   131   64  189 1    
   132   65   66 2    
   133   67   68 2    
   134   67   69 am   BACKBONE|DICT|INTERRES
   135   69   70 1    
   136   69  190 1    
   137   70   71 1    
   138   70   72 1    
   139   70  191 1    
   140   71  192 1    
   141   71  193 1    
   142   71  194 1    
   143   72   73 2    
   144   72   74 am   BACKBONE|DICT|INTERRES
   145   74   75 1    
   146   74  195 1    
   147   75   76 1    
   148   75   77 1    
   149   75  196 1    
   150   76  197 1    
   151   76  198 1    
   152   76  199 1    
   153   77   78 2    
   154   77   79 am   BACKBONE|DICT|INTERRES
   155   79   80 1    
   156   79  200 1    
   157   80   81 1    
   158   80   82 1    
   159   80  201 1    
   160   81  202 1    
   161   81  203 1    
   162   81  204 1    
   163   82   83 2    
   164   82   84 am   BACKBONE|DICT|INTERRES
   165   84   85 1    
   166   84  205 1    
   167   85   86 1    
   168   85   87 1    
   169   85  206 1    
   170   86  207 1    
   171   86  208 1    
   172   86  209 1    
   173   87   88 2    
   174   87   89 am   BACKBONE|DICT|INTERRES
   175   89   90 1    
   176   89  210 1    
   177   90   91 1    
   178   90   92 1    
   179   90  211 1    
   180   91  212 1    
   181   91  213 1    
   182   91  214 1    
   183   92   93 2    
   184   92   94 am   BACKBONE|DICT|INTERRES
   185   94   95 1    
   186   94  215 1    
   187   95   96 1    
   188   95   97 1    
   189   95  216 1    
   190   96  217 1    
   191   96  218 1    
   192   96  219 1    
   193   97   98 2    
   194   97   99 am   BACKBONE|DICT|INTERRES
   195   99  100 1    
   196   99  220 1    
   197  100  101 1    
   198  100  102 1    
   199  100  221 1    
   200  101  222 1    
   201  101  223 1    
   202  101  224 1    
   203  102  103 2    
   204  102  104 am   BACKBONE|DICT|INTERRES
   205  104  105 1    
   206  104  225 1    
   207  105  106 1    
   208  105  107 1    
   209  105  226 1    
   210  106  227 1    
   211  106  228 1    
   212  106  229 1    
   213  107  108 2    
   214  107  109 am   BACKBONE|DICT|INTERRES
   215  109  110 1    
   216  109  230 1    
   217  110  111 1    
   218  110  112 1    
   219  110  231 1    
   220  111  232 1    
   221  111  233 1    
   222  111  234 1    
   223  112  113 2    
   224  112  114 am   BACKBONE|DICT|INTERRES
   225  114  115 1    
   226  114  235 1    
   227  115  116 1    
   228  115  117 1    
   229  115  236 1    
   230  116  237 1    
   231  116  238 1    
   232  116  239 1    
   233  117  118 2    
   234  117  119 am   BACKBONE|DICT|INTERRES
   235  119  120 1    
   236  119  240 1    
   237  120  121 1    
   238  120  124 1    
   239  120  241 1    
   240  121  122 am   BACKBONE|DICT|INTERRES
   241  121  123 2    
   242  122  242 1    
   243  122  243 1    
   244  124  125 1    
   245  124  244 1    
   246  124  245 1    
   247  125  126 1    
   248  126  246 1    
   249  126  247 1    
@<TRIPOS>SUBSTRUCTURE
     1 UNK         1 GROUP             0       ****    0 ROOT    
