@<TRIPOS>MOLECULE
3R540
247   249    1
SMALL
USER_CHARGES


@<TRIPOS>ATOM
      1 CA         -1.1907  -11.5180  -52.6794 C.3       0 UNK        -0.1800 
      2 C          -0.7957  -12.4303  -51.5266 C.2       0 UNK         0.5000 
      3 O           0.2387  -13.0936  -51.5992 O.2       0 UNK        -0.5000 
      4 N          -1.6187  -12.4714  -50.4713 N.am      1 UNK        -0.5000 
      5 CA         -1.3798  -13.2554  -49.2577 C.3       1 UNK         0.1400 
      6 C6         -2.6963  -13.4665  -48.4650 C.3       23 UNK        -0.0398 
      7 S7         -2.5804  -14.6787  -47.0996 S.3       23 UNK        -0.2404 
      8 C8         -3.0161  -16.2442  -47.9281 C.3       23 UNK        -0.0205 
      9 C9         -1.9056  -16.7014  -48.8603 C.ar      23 UNK        -0.0193 
     10 C10        -2.0378  -16.5471  -50.2430 C.ar      23 UNK        -0.1150 
     11 C11        -0.9765  -16.8634  -51.0946 C.ar      23 UNK        -0.0193 
     12 C12         0.2085  -17.3749  -50.5584 C.ar      23 UNK        -0.1150 
     13 C13         0.3426  -17.5612  -49.1800 C.ar      23 UNK        -0.0193 
     14 C14        -0.7185  -17.2220  -48.3373 C.ar      23 UNK        -0.1150 
     15 C15         1.6499  -18.0837  -48.6003 C.3       23 UNK        -0.0205 
     16 S16         1.4565  -19.6735  -47.7357 S.3       23 UNK        -0.2404 
     17 C17         0.9435  -20.7892  -49.0930 C.3       23 UNK        -0.0398 
     18 CA          0.0215  -21.9446  -48.6316 C.3       11 UNK         0.1400 
     19 N           0.6504  -22.7581  -47.5862 N.am      11 UNK        -0.5000 
     20 C           0.1441  -23.8740  -47.0456 C.2       10 UNK         0.5000 
     21 O          -0.9143  -24.3915  -47.4038 O.2       10 UNK        -0.5000 
     22 CA          0.9153  -24.4807  -45.8582 C.3       10 UNK         0.1400 
     23 CB          1.8739  -25.5746  -46.3491 C.3       10 UNK        -0.1800 
     24 N           1.6609  -23.5092  -45.0458 N.am      10 UNK        -0.5000 
     25 C           1.1291  -22.4441  -44.4302 C.2       9 UNK         0.5000 
     26 O          -0.0429  -22.0877  -44.5719 O.2       9 UNK        -0.5000 
     27 CA          2.0599  -21.6200  -43.5299 C.3       9 UNK         0.1400 
     28 CB          2.5331  -20.3575  -44.2629 C.3       9 UNK        -0.1800 
     29 N           1.3396  -21.2353  -42.3182 N.am      9 UNK        -0.5000 
     30 C           1.2111  -22.0205  -41.2394 C.2       8 UNK         0.5000 
     31 O           1.7753  -23.1112  -41.1340 O.2       8 UNK        -0.5000 
     32 CA          0.2822  -21.5385  -40.1008 C.3       8 UNK         0.1400 
     33 CB          0.8011  -21.9386  -38.7033 C.3       8 UNK        -0.1800 
     34 N          -0.0508  -20.1099  -40.1503 N.am      8 UNK        -0.5000 
     35 C           0.7797  -19.0691  -39.9957 C.2       7 UNK         0.5000 
     36 O           1.9836  -19.1647  -39.7499 O.2       7 UNK        -0.5000 
     37 CA          0.1478  -17.6784  -40.1987 C.3       7 UNK         0.1400 
     38 CB          0.4857  -16.7318  -39.0358 C.3       7 UNK        -0.1800 
     39 N           0.5730  -17.0594  -41.4532 N.am      7 UNK        -0.5000 
     40 C           0.4332  -17.5807  -42.6814 C.2       6 UNK         0.5000 
     41 O          -0.0961  -18.6701  -42.9025 O.2       6 UNK        -0.5000 
     42 CA          0.9548  -16.7464  -43.8669 C.3       6 UNK         0.1400 
     43 CB         -0.2273  -16.1816  -44.6708 C.3       6 UNK        -0.1800 
     44 N           1.8373  -15.6557  -43.4382 N.am      6 UNK        -0.5000 
     45 C           3.1481  -15.8052  -43.1865 C.2       5 UNK         0.5000 
     46 O           3.7539  -16.8589  -43.3807 O.2       5 UNK        -0.5000 
     47 CA          3.9198  -14.6034  -42.6020 C.3       5 UNK         0.1400 
     48 CB          4.9737  -14.0701  -43.5848 C.3       5 UNK        -0.1800 
     49 N           3.0442  -13.5019  -42.2025 N.am      5 UNK        -0.5000 
     50 C           2.4918  -13.3763  -40.9880 C.2       4 UNK         0.5000 
     51 O           2.6982  -14.1584  -40.0604 O.2       4 UNK        -0.5000 
     52 CA          1.5136  -12.2018  -40.7823 C.3       4 UNK         0.1400 
     53 CB          2.2530  -10.9757  -40.2265 C.3       4 UNK        -0.1800 
     54 N           0.7949  -11.8170  -42.0000 N.am      4 UNK        -0.5000 
     55 C          -0.0243  -12.6209  -42.6909 C.2       3 UNK         0.5000 
     56 O          -0.2762  -13.7763  -42.3511 O.2       3 UNK        -0.5000 
     57 CA         -0.6314  -12.0728  -43.9970 C.3       3 UNK         0.1400 
     58 CB         -0.6338  -10.5306  -44.0828 C.3       3 UNK        -0.1800 
     59 N           0.0028  -12.6425  -45.1911 N.am      3 UNK        -0.5000 
     60 C           1.3023  -12.6087  -45.5297 C.2       2 UNK         0.5000 
     61 O           2.1882  -12.1771  -44.7902 O.2       2 UNK        -0.5000 
     62 CA          1.6880  -13.1314  -46.9325 C.3       2 UNK         0.1400 
     63 CB          2.6364  -14.3391  -46.8544 C.3       2 UNK        -0.1800 
     64 N           0.5439  -13.4952  -47.7707 N.am      2 UNK        -0.5000 
     65 C          -0.2589  -12.6296  -48.4033 C.2       1 UNK         0.5000 
     66 O          -0.1530  -11.4036  -48.3203 O.2       1 UNK        -0.5000 
     67 C          -1.3877  -21.4349  -48.2467 C.2       11 UNK         0.5000 
     68 O          -2.2499  -21.3319  -49.1198 O.2       11 UNK        -0.5000 
     69 N          -1.6007  -21.1678  -46.9516 N.am      12 UNK        -0.5000 
     70 CA         -2.8680  -20.7229  -46.3828 C.3       12 UNK         0.1400 
     71 CB         -2.5991  -19.5210  -45.4662 C.3       12 UNK        -0.1800 
     72 C          -3.5472  -21.8496  -45.5891 C.2       12 UNK         0.5000 
     73 O          -4.7611  -22.0177  -45.6958 O.2       12 UNK        -0.5000 
     74 N          -2.7626  -22.5926  -44.7979 N.am      13 UNK        -0.5000 
     75 CA         -3.2517  -23.5886  -43.8459 C.3       13 UNK         0.1400 
     76 CB         -2.1411  -23.8977  -42.8296 C.3       13 UNK        -0.1800 
     77 C          -3.7614  -24.8861  -44.4961 C.2       13 UNK         0.5000 
     78 O          -4.6496  -25.5224  -43.9269 O.2       13 UNK        -0.5000 
     79 N          -3.1946  -25.2641  -45.6495 N.am      14 UNK        -0.5000 
     80 CA         -3.5351  -26.4935  -46.3655 C.3       14 UNK         0.1400 
     81 CB         -2.3074  -27.4195  -46.4135 C.3       14 UNK        -0.1800 
     82 C          -4.0531  -26.1854  -47.7761 C.2       14 UNK         0.5000 
     83 O          -5.1230  -26.6696  -48.1466 O.2       14 UNK        -0.5000 
     84 N          -3.2910  -25.3928  -48.5413 N.am      15 UNK        -0.5000 
     85 CA         -3.5863  -25.0845  -49.9417 C.3       15 UNK         0.1400 
     86 CB         -2.2854  -24.6769  -50.6451 C.3       15 UNK        -0.1800 
     87 C          -4.6647  -24.0000  -50.1242 C.2       15 UNK         0.5000 
     88 O          -5.2788  -23.9401  -51.1920 O.2       15 UNK        -0.5000 
     89 N          -4.8616  -23.1670  -49.0897 N.am      16 UNK        -0.5000 
     90 CA         -5.8564  -22.0924  -48.9805 C.3       16 UNK         0.1400 
     91 CB         -7.2576  -22.7022  -48.7728 C.3       16 UNK        -0.1800 
     92 C          -5.8136  -21.0794  -50.1444 C.2       16 UNK         0.5000 
     93 O          -6.8649  -20.6384  -50.6119 O.2       16 UNK        -0.5000 
     94 N          -4.6001  -20.7737  -50.6286 N.am      17 UNK        -0.5000 
     95 CA         -4.2422  -19.9574  -51.7990 C.3       17 UNK         0.1400 
     96 CB         -4.7266  -18.5066  -51.6308 C.3       17 UNK        -0.1800 
     97 C          -4.6964  -20.5357  -53.1593 C.2       17 UNK         0.5000 
     98 O          -3.9881  -20.3738  -54.1538 O.2       17 UNK        -0.5000 
     99 N          -5.8555  -21.2025  -53.1920 N.am      18 UNK        -0.5000 
    100 CA        -6.4838  -21.8041  -54.3643 C.3       18 UNK         0.1400 
    101 CB        -7.8777  -22.3232  -53.9798 C.3       18 UNK        -0.1800 
    102 C         -5.6360  -22.9197  -54.9943 C.2       18 UNK         0.5000 
    103 O         -5.3513  -22.8580  -56.1905 O.2       18 UNK        -0.5000 
    104 N         -5.2065  -23.8956  -54.1805 N.am      19 UNK        -0.5000 
    105 CA        -4.3695  -25.0119  -54.6367 C.3       19 UNK         0.1400 
    106 CB        -4.4970  -26.1902  -53.6622 C.3       19 UNK        -0.1800 
    107 C         -2.8955  -24.6074  -54.8360 C.2       19 UNK         0.5000 
    108 O         -2.1667  -25.3018  -55.5446 O.2       19 UNK        -0.5000 
    109 N         -2.4949  -23.4740  -54.2424 N.am      20 UNK        -0.5000 
    110 CA        -1.2079  -22.8150  -54.4735 C.3       20 UNK         0.1400 
    111 CB        -0.8699  -21.9402  -53.2549 C.3       20 UNK        -0.1800 
    112 C         -1.1970  -21.9838  -55.7760 C.2       20 UNK         0.5000 
    113 O         -0.1309  -21.5177  -56.1791 O.2       20 UNK        -0.5000 
    114 N         -2.3720  -21.8244  -56.4075 N.am      21 UNK        -0.5000 
    115 CA        -2.6420  -21.0886  -57.6439 C.3       21 UNK         0.1400 
    116 CB        -1.9336  -21.7513  -58.8443 C.3       21 UNK        -0.1800 
    117 C         -2.3551  -19.5789  -57.5202 C.2       21 UNK         0.5000 
    118 O         -1.8516  -18.9688  -58.4661 O.2       21 UNK        -0.5000 
    119 N         -2.6864  -19.0022  -56.3587 N.am      22 UNK        -0.5000 
    120 CA        -2.4734  -17.5827  -56.0385 C.3       22 UNK         0.1400 
    121 C         -3.7054  -16.8756  -55.4034 C.2       22 UNK         0.5000 
    122 N         -4.8444  -17.5380  -55.2426 N.am      22 UNK        -0.7600 
    123 O         -3.6400  -15.6920  -55.0829 O.2       22 UNK        -0.5000 
    124 C124       -1.1553  -17.3681  -55.2518 C.3       23 UNK        -0.0398 
    125 S125       -1.1482  -18.0985  -53.5756 S.3       23 UNK        -0.2404 
    126 C126       -1.0778  -16.5779  -52.5828 C.3       23 UNK        -0.0205 
    127 H127       -1.3146  -12.1006  -53.5924 H         1 UNK         0.0600 
    128 H128       -2.1262  -10.9943  -52.4808 H         1 UNK         0.0600 
    129 H129       -0.4138  -10.7731  -52.8515 H         1 UNK         0.0600 
    130 H130       -2.4323  -11.8733  -50.4570 H         1 UNK         0.3000 
    131 H131       -1.0155  -14.2270  -49.5854 H         1 UNK         0.0600 
    132 H132       -3.4856  -13.7966  -49.1419 H         1 UNK         0.0800 
    133 H133       -3.0429  -12.5188  -48.0491 H         1 UNK         0.0800 
    134 H134       -3.9578  -16.1284  -48.4668 H         1 UNK         0.0800 
    135 H135       -3.1930  -17.0078  -47.1711 H         1 UNK         0.0800 
    136 H136       -2.9457  -16.1264  -50.6516 H         1 UNK         0.1150 
    137 H137        1.0316  -17.6103  -51.2185 H         1 UNK         0.1150 
    138 H138       -0.6079  -17.3447  -47.2711 H         1 UNK         0.1150 
    139 H139        2.4062  -18.1940  -49.3789 H         1 UNK         0.0800 
    140 H140        2.0413  -17.3490  -47.8955 H         1 UNK         0.0800 
    141 H141        0.4574  -20.2196  -49.8865 H         1 UNK         0.0800 
    142 H142        1.8471  -21.2019  -49.5433 H         1 UNK         0.0800 
    143 H143       -0.1091  -22.6024  -49.4912 H         1 UNK         0.0600 
    144 H144        1.5084  -22.3910  -47.2014 H         1 UNK         0.3000 
    145 H145        0.1758  -24.9493  -45.2062 H         1 UNK         0.0600 
    146 H146        2.3436  -26.0928  -45.5128 H         1 UNK         0.0600 
    147 H147        1.3430  -26.3254  -46.9364 H         1 UNK         0.0600 
    148 H148        2.6647  -25.1639  -46.9782 H         1 UNK         0.0600 
    149 H149        2.6363  -23.7200  -44.8903 H         1 UNK         0.3000 
    150 H150        2.9363  -22.2141  -43.2627 H         1 UNK         0.0600 
    151 H151        3.1640  -20.6143  -45.1145 H         1 UNK         0.0600 
    152 H152        3.1161  -19.7104  -43.6071 H         1 UNK         0.0600 
    153 H153        1.6920  -19.7792  -44.6450 H         1 UNK         0.0600 
    154 H154        0.7912  -20.3827  -42.3772 H         1 UNK         0.3000 
    155 H155       -0.6612  -22.0638  -40.2544 H         1 UNK         0.0600 
    156 H156        0.1260  -21.5971  -37.9186 H         1 UNK         0.0600 
    157 H157        1.7886  -21.5228  -38.5020 H         1 UNK         0.0600 
    158 H158        0.8804  -23.0223  -38.6101 H         1 UNK         0.0600 
    159 H159       -1.0084  -19.9078  -40.4028 H         1 UNK         0.3000 
    160 H160       -0.9381  -17.7856  -40.2373 H         1 UNK         0.0600 
    161 H161        1.5581  -16.5438  -38.9675 H         1 UNK         0.0600 
    162 H162        0.1646  -17.1540  -38.0829 H         1 UNK         0.0600 
    163 H163       -0.0142  -15.7697  -39.1513 H         1 UNK         0.0600 
    164 H164        1.0211  -16.1587  -41.3741 H         1 UNK         0.3000 
    165 H165        1.5097  -17.4168  -44.5256 H         1 UNK         0.0600 
    166 H166       -0.8513  -15.5166  -44.0768 H         1 UNK         0.0600 
    167 H167        0.1039  -15.6349  -45.5509 H         1 UNK         0.0600 
    168 H168       -0.8745  -16.9865  -45.0162 H         1 UNK         0.0600 
    169 H169        1.3839  -14.7814  -43.2023 H         1 UNK         0.3000 
    170 H170        4.4555  -14.9778  -41.7270 H         1 UNK         0.0600 
    171 H171        5.5919  -14.8754  -43.9838 H         1 UNK         0.0600 
    172 H172        4.5179  -13.5522  -44.4261 H         1 UNK         0.0600 
    173 H173        5.6420  -13.3649  -43.0905 H         1 UNK         0.0600 
    174 H174        2.7986  -12.8353  -42.9282 H         1 UNK         0.3000 
    175 H175        0.7726  -12.5187  -40.0454 H         1 UNK         0.0600 
    176 H176        2.9905  -10.5959  -40.9348 H         1 UNK         0.0600 
    177 H177        1.5594  -10.1668  -39.9962 H         1 UNK         0.0600 
    178 H178        2.7803  -11.2226  -39.3039 H         1 UNK         0.0600 
    179 H179        0.9807  -10.8938  -42.3641 H         1 UNK         0.3000 
    180 H180       -1.6708  -12.4043  -44.0107 H         1 UNK         0.0600 
    181 H181       -1.1239  -10.0881  -43.2146 H         1 UNK         0.0600 
    182 H182        0.3729  -10.1161  -44.1464 H         1 UNK         0.0600 
    183 H183       -1.1801  -10.1945  -44.9643 H         1 UNK         0.0600 
    184 H184       -0.6315  -13.0635  -45.8544 H         1 UNK         0.3000 
    185 H185        2.2252  -12.3221  -47.4313 H         1 UNK         0.0600 
    186 H186        2.2118  -15.1635  -46.2841 H         1 UNK         0.0600 
    187 H187        2.8802  -14.7134  -47.8490 H         1 UNK         0.0600 
    188 H188        3.5786  -14.0643  -46.3843 H         1 UNK         0.0600 
    189 H189        0.3740  -14.4840  -47.8874 H         1 UNK         0.3000 
    190 H190       -0.8439  -21.3204  -46.2942 H         1 UNK         0.3000 
    191 H191       -3.5495  -20.4001  -47.1724 H         1 UNK         0.0600 
    192 H192       -3.5276  -19.1214  -45.0570 H         1 UNK         0.0600 
    193 H193       -2.1093  -18.7196  -46.0148 H         1 UNK         0.0600 
    194 H194       -1.9541  -19.7867  -44.6274 H         1 UNK         0.0600 
    195 H195       -1.7676  -22.3788  -44.7483 H         1 UNK         0.3000 
    196 H196       -4.0887  -23.1472  -43.3006 H         1 UNK         0.0600 
    197 H197       -2.4924  -24.5900  -42.0635 H         1 UNK         0.0600 
    198 H198       -1.8096  -22.9917  -42.3224 H         1 UNK         0.0600 
    199 H199       -1.2717  -24.3501  -43.3069 H         1 UNK         0.0600 
    200 H200       -2.4809  -24.6789  -46.0667 H         1 UNK         0.3000 
    201 H201       -4.3306  -27.0350  -45.8494 H         1 UNK         0.0600 
    202 H202       -1.9823  -27.6898  -45.4089 H         1 UNK         0.0600 
    203 H203       -1.4621  -26.9567  -46.9227 H         1 UNK         0.0600 
    204 H204       -2.5391  -28.3460  -46.9402 H         1 UNK         0.0600 
    205 H205       -2.4080  -25.0441  -48.1727 H         1 UNK         0.3000 
    206 H206       -3.9555  -25.9955  -50.4157 H         1 UNK         0.0600 
    207 H207       -1.5187  -25.4448  -50.5415 H         1 UNK         0.0600 
    208 H208       -2.4467  -24.5198  -51.7098 H         1 UNK         0.0600 
    209 H209       -1.8908  -23.7496  -50.2378 H         1 UNK         0.0600 
    210 H210       -4.2778  -23.3021  -48.2777 H         1 UNK         0.3000 
    211 H211       -5.6091  -21.5213  -48.0872 H         1 UNK         0.0600 
    212 H212       -7.5894  -23.2563  -49.6517 H         1 UNK         0.0600 
    213 H213       -7.9990  -21.9280  -48.5716 H         1 UNK         0.0600 
    214 H214       -7.2660  -23.3850  -47.9231 H         1 UNK         0.0600 
    215 H215       -3.7986  -21.1701  -50.1404 H         1 UNK         0.3000 
    216 H216       -3.1520  -19.9348  -51.8118 H         1 UNK         0.0600 
    217 H217       -5.8092  -18.4231  -51.7297 H         1 UNK         0.0600 
    218 H218       -4.2776  -17.8602  -52.3856 H         1 UNK         0.0600 
    219 H219       -4.4487  -18.1105  -50.6547 H         1 UNK         0.0600 
    220 H220       -6.3802  -21.2429  -52.3233 H         1 UNK         0.3000 
    221 H221       -6.6077  -21.0185  -55.1124 H         1 UNK         0.0600 
    222 H222       -7.8253  -23.0717  -53.1878 H         1 UNK         0.0600 
    223 H223       -8.5157  -21.5118  -53.6288 H         1 UNK         0.0600 
    224 H224       -8.3755  -22.7815  -54.8354 H         1 UNK         0.0600 
    225 H225       -5.4367  -23.8650  -53.1905 H         1 UNK         0.3000 
    226 H226       -4.7441  -25.3488  -55.6058 H         1 UNK         0.0600 
    227 H227       -5.5383  -26.4839  -53.5293 H         1 UNK         0.0600 
    228 H228       -3.9567  -27.0622  -54.0327 H         1 UNK         0.0600 
    229 H229       -4.0893  -25.9470  -52.6850 H         1 UNK         0.0600 
    230 H230       -3.1711  -22.9623  -53.6951 H         1 UNK         0.3000 
    231 H231       -0.4317  -23.5773  -54.5666 H         1 UNK         0.0600 
    232 H232       -1.5956  -21.1398  -53.1219 H         1 UNK         0.0600 
    233 H233       -0.8433  -22.5271  -52.3371 H         1 UNK         0.0600 
    234 H234        0.1088  -21.4725  -53.3690 H         1 UNK         0.0600 
    235 H235       -3.1919  -22.2293  -55.9753 H         1 UNK         0.3000 
    236 H236       -3.7160  -21.1738  -57.8139 H         1 UNK         0.0600 
    237 H237       -2.1714  -22.8134  -58.9040 H         1 UNK         0.0600 
    238 H238       -2.2490  -21.2963  -59.7838 H         1 UNK         0.0600 
    239 H239       -0.8496  -21.6527  -58.7818 H         1 UNK         0.0600 
    240 H240       -3.0686  -19.5711  -55.6066 H         1 UNK         0.3000 
    241 H241       -2.3539  -17.0428  -56.9793 H         1 UNK         0.0600 
    242 H242       -4.9101  -18.5132  -55.4860 H         1 UNK         0.3800 
    243 H243       -5.6407  -17.0609  -54.8517 H         1 UNK         0.3800 
    244 H244       -0.9264  -16.3028  -55.1957 H         1 UNK         0.0800 
    245 H245       -0.3268  -17.8092  -55.8074 H         1 UNK         0.0800 
    246 H246       -1.9577  -15.9694  -52.7977 H         1 UNK         0.0800 
    247 H247       -0.2129  -15.9850  -52.8845 H         1 UNK         0.0800 
@<TRIPOS>BOND
     1    1    2 1    
     2    1  127 1    
     3    1  128 1    
     4    1  129 1    
     5    2    3 2    
     6    2    4 am   BACKBONE|DICT|INTERRES
     7    4    5 1    
     8    4  130 1    
     9    5    6 1    
    10    5   65 1    
    11    5  131 1    
    12    6    7 1    
    13    6  132 1    
    14    6  133 1    
    15    7    8 1    
    16    8    9 1    
    17    8  134 1    
    18    8  135 1    
    19    9   10 ar   
    20    9   14 ar   
    21   10   11 ar   
    22   10  136 1    
    23   11   12 ar   
    24   11  126 1    
    25   12   13 ar   
    26   12  137 1    
    27   13   14 ar   
    28   13   15 1    
    29   14  138 1    
    30   15   16 1    
    31   15  139 1    
    32   15  140 1    
    33   16   17 1    
    34   17   18 1    
    35   17  141 1    
    36   17  142 1    
    37   18   19 1    
    38   18   67 1    
    39   18  143 1    
    40   19   20 am   BACKBONE|DICT|INTERRES
    41   19  144 1    
    42   20   21 2    
    43   20   22 1    
    44   22   23 1    
    45   22   24 1    
    46   22  145 1    
    47   23  146 1    
    48   23  147 1    
    49   23  148 1    
    50   24   25 am   BACKBONE|DICT|INTERRES
    51   24  149 1    
    52   25   26 2    
    53   25   27 1    
    54   27   28 1    
    55   27   29 1    
    56   27  150 1    
    57   28  151 1    
    58   28  152 1    
    59   28  153 1    
    60   29   30 am   BACKBONE|DICT|INTERRES
    61   29  154 1    
    62   30   31 2    
    63   30   32 1    
    64   32   33 1    
    65   32   34 1    
    66   32  155 1    
    67   33  156 1    
    68   33  157 1    
    69   33  158 1    
    70   34   35 am   BACKBONE|DICT|INTERRES
    71   34  159 1    
    72   35   36 2    
    73   35   37 1    
    74   37   38 1    
    75   37   39 1    
    76   37  160 1    
    77   38  161 1    
    78   38  162 1    
    79   38  163 1    
    80   39   40 am   BACKBONE|DICT|INTERRES
    81   39  164 1    
    82   40   41 2    
    83   40   42 1    
    84   42   43 1    
    85   42   44 1    
    86   42  165 1    
    87   43  166 1    
    88   43  167 1    
    89   43  168 1    
    90   44   45 am   BACKBONE|DICT|INTERRES
    91   44  169 1    
    92   45   46 2    
    93   45   47 1    
    94   47   48 1    
    95   47   49 1    
    96   47  170 1    
    97   48  171 1    
    98   48  172 1    
    99   48  173 1    
   100   49   50 am   BACKBONE|DICT|INTERRES
   101   49  174 1    
   102   50   51 2    
   103   50   52 1    
   104   52   53 1    
   105   52   54 1    
   106   52  175 1    
   107   53  176 1    
   108   53  177 1    
   109   53  178 1    
   110   54   55 am   BACKBONE|DICT|INTERRES
   111   54  179 1    
   112   55   56 2    
   113   55   57 1    
   114   57   58 1    
   115   57   59 1    
   116   57  180 1    
   117   58  181 1    
   118   58  182 1    
   119   58  183 1    
   120   59   60 am   BACKBONE|DICT|INTERRES
   121   59  184 1    
   122   60   61 2    
   123   60   62 1    
   124   62   63 1    
   125   62   64 1    
   126   62  185 1    
   127   63  186 1    
   128   63  187 1    
   129   63  188 1    
   130   64   65 am   BACKBONE|DICT|INTERRES
   131   64  189 1    
   132   65   66 2    
   133   67   68 2    
   134   67   69 am   BACKBONE|DICT|INTERRES
   135   69   70 1    
   136   69  190 1    
   137   70   71 1    
   138   70   72 1    
   139   70  191 1    
   140   71  192 1    
   141   71  193 1    
   142   71  194 1    
   143   72   73 2    
   144   72   74 am   BACKBONE|DICT|INTERRES
   145   74   75 1    
   146   74  195 1    
   147   75   76 1    
   148   75   77 1    
   149   75  196 1    
   150   76  197 1    
   151   76  198 1    
   152   76  199 1    
   153   77   78 2    
   154   77   79 am   BACKBONE|DICT|INTERRES
   155   79   80 1    
   156   79  200 1    
   157   80   81 1    
   158   80   82 1    
   159   80  201 1    
   160   81  202 1    
   161   81  203 1    
   162   81  204 1    
   163   82   83 2    
   164   82   84 am   BACKBONE|DICT|INTERRES
   165   84   85 1    
   166   84  205 1    
   167   85   86 1    
   168   85   87 1    
   169   85  206 1    
   170   86  207 1    
   171   86  208 1    
   172   86  209 1    
   173   87   88 2    
   174   87   89 am   BACKBONE|DICT|INTERRES
   175   89   90 1    
   176   89  210 1    
   177   90   91 1    
   178   90   92 1    
   179   90  211 1    
   180   91  212 1    
   181   91  213 1    
   182   91  214 1    
   183   92   93 2    
   184   92   94 am   BACKBONE|DICT|INTERRES
   185   94   95 1    
   186   94  215 1    
   187   95   96 1    
   188   95   97 1    
   189   95  216 1    
   190   96  217 1    
   191   96  218 1    
   192   96  219 1    
   193   97   98 2    
   194   97   99 am   BACKBONE|DICT|INTERRES
   195   99  100 1    
   196   99  220 1    
   197  100  101 1    
   198  100  102 1    
   199  100  221 1    
   200  101  222 1    
   201  101  223 1    
   202  101  224 1    
   203  102  103 2    
   204  102  104 am   BACKBONE|DICT|INTERRES
   205  104  105 1    
   206  104  225 1    
   207  105  106 1    
   208  105  107 1    
   209  105  226 1    
   210  106  227 1    
   211  106  228 1    
   212  106  229 1    
   213  107  108 2    
   214  107  109 am   BACKBONE|DICT|INTERRES
   215  109  110 1    
   216  109  230 1    
   217  110  111 1    
   218  110  112 1    
   219  110  231 1    
   220  111  232 1    
   221  111  233 1    
   222  111  234 1    
   223  112  113 2    
   224  112  114 am   BACKBONE|DICT|INTERRES
   225  114  115 1    
   226  114  235 1    
   227  115  116 1    
   228  115  117 1    
   229  115  236 1    
   230  116  237 1    
   231  116  238 1    
   232  116  239 1    
   233  117  118 2    
   234  117  119 am   BACKBONE|DICT|INTERRES
   235  119  120 1    
   236  119  240 1    
   237  120  121 1    
   238  120  124 1    
   239  120  241 1    
   240  121  122 am   BACKBONE|DICT|INTERRES
   241  121  123 2    
   242  122  242 1    
   243  122  243 1    
   244  124  125 1    
   245  124  244 1    
   246  124  245 1    
   247  125  126 1    
   248  126  246 1    
   249  126  247 1    
@<TRIPOS>SUBSTRUCTURE
     1 UNK         1 GROUP             0       ****    0 ROOT    
