@<TRIPOS>MOLECULE
3R540
247   249    1
SMALL
USER_CHARGES


@<TRIPOS>ATOM
      1 CA         -3.8865   -9.5720  -47.8832 C.3       0 UNK        -0.1800 
      2 C          -2.6617  -10.4547  -47.6979 C.2       0 UNK         0.5000 
      3 O          -1.6060   -9.9635  -47.2997 O.2       0 UNK        -0.5000 
      4 N          -2.7960  -11.7605  -47.9628 N.am      1 UNK        -0.5000 
      5 CA         -1.7235  -12.7575  -47.8474 C.3       1 UNK         0.1400 
      6 C6         -2.1022  -14.1159  -48.4841 C.3       23 UNK        -0.0398 
      7 S7         -3.6835  -14.8146  -47.8952 S.3       23 UNK        -0.2404 
      8 C8         -3.9274  -16.1592  -49.0979 C.3       23 UNK        -0.0205 
      9 C9         -2.9419  -17.2985  -48.8865 C.ar      23 UNK        -0.0193 
     10 C10        -1.7434  -17.3403  -49.6041 C.ar      23 UNK        -0.1150 
     11 C11        -0.8445  -18.3951  -49.4266 C.ar      23 UNK        -0.0193 
     12 C12        -1.1559  -19.4209  -48.5304 C.ar      23 UNK        -0.1150 
     13 C13        -2.3571  -19.3957  -47.8168 C.ar      23 UNK        -0.0193 
     14 C14        -3.2403  -18.3265  -47.9889 C.ar      23 UNK        -0.1150 
     15 C15        -2.7175  -20.5403  -46.8879 C.3       23 UNK        -0.0205 
     16 S16        -1.8292  -20.4173  -45.3094 S.3       23 UNK        -0.2404 
     17 C17        -2.6123  -21.7842  -44.3926 C.3       23 UNK        -0.0398 
     18 CA         -1.9437  -23.1488  -44.6806 C.3       11 UNK         0.1400 
     19 N          -0.5352  -23.1827  -44.2655 N.am      11 UNK        -0.5000 
     20 C           0.3332  -24.1620  -44.5621 C.2       10 UNK         0.5000 
     21 O           0.0345  -25.1363  -45.2520 O.2       10 UNK        -0.5000 
     22 CA          1.7470  -24.0888  -43.9497 C.3       10 UNK         0.1400 
     23 CB          2.7461  -23.5580  -44.9880 C.3       10 UNK        -0.1800 
     24 N           1.8369  -23.2658  -42.7423 N.am      10 UNK        -0.5000 
     25 C           1.1469  -23.4479  -41.6063 C.2       9 UNK         0.5000 
     26 O           0.3974  -24.4052  -41.4104 O.2       9 UNK        -0.5000 
     27 CA          1.2625  -22.3366  -40.5397 C.3       9 UNK         0.1400 
     28 CB          2.2705  -22.7396  -39.4532 C.3       9 UNK        -0.1800 
     29 N           1.6377  -21.0204  -41.0782 N.am      9 UNK        -0.5000 
     30 C           0.9565  -20.3455  -42.0159 C.2       8 UNK         0.5000 
     31 O          -0.0902  -20.7627  -42.5159 O.2       8 UNK        -0.5000 
     32 CA          1.5682  -19.0247  -42.5133 C.3       8 UNK         0.1400 
     33 CB          3.0654  -19.1785  -42.8618 C.3       8 UNK        -0.1800 
     34 N           0.8290  -18.5767  -43.6917 N.am      8 UNK        -0.5000 
     35 C           0.8622  -17.3473  -44.2113 C.2       7 UNK         0.5000 
     36 O           1.4727  -16.4040  -43.7002 O.2       7 UNK        -0.5000 
     37 CA          0.0736  -17.1302  -45.5154 C.3       7 UNK         0.1400 
     38 CB         -1.3436  -16.6201  -45.2195 C.3       7 UNK        -0.1800 
     39 N           0.7683  -16.1579  -46.3543 N.am      7 UNK        -0.5000 
     40 C           1.8427  -16.4409  -47.1045 C.2       6 UNK         0.5000 
     41 O           2.2576  -17.5813  -47.3117 O.2       6 UNK        -0.5000 
     42 CA          2.6122  -15.2383  -47.6778 C.3       6 UNK         0.1400 
     43 CB          1.9798  -14.7456  -48.9885 C.3       6 UNK        -0.1800 
     44 N           2.6394  -14.1421  -46.7134 N.am      6 UNK        -0.5000 
     45 C           3.4779  -14.0553  -45.6729 C.2       5 UNK         0.5000 
     46 O           4.4302  -14.8179  -45.4987 O.2       5 UNK        -0.5000 
     47 CA          3.1812  -12.9317  -44.6557 C.3       5 UNK         0.1400 
     48 CB          4.4102  -12.5306  -43.8137 C.3       5 UNK        -0.1800 
     49 N           2.5502  -11.7574  -45.2688 N.am      5 UNK        -0.5000 
     50 C           3.0703  -10.9300  -46.1888 C.2       4 UNK         0.5000 
     51 O           4.2219  -11.0124  -46.6171 O.2       4 UNK        -0.5000 
     52 CA          2.1383   -9.8365  -46.7517 C.3       4 UNK         0.1400 
     53 CB          1.7064  -10.1971  -48.1817 C.3       4 UNK        -0.1800 
     54 N           0.9369   -9.6196  -45.9429 N.am      4 UNK        -0.5000 
     55 C           0.9109   -9.0158  -44.7469 C.2       3 UNK         0.5000 
     56 O           1.8971   -8.5078  -44.2126 O.2       3 UNK        -0.5000 
     57 CA         -0.4395   -9.0221  -44.0091 C.3       3 UNK         0.1400 
     58 CB         -1.3229   -7.8518  -44.4682 C.3       3 UNK        -0.1800 
     59 N          -1.1590  -10.2839  -44.1990 N.am      3 UNK        -0.5000 
     60 C          -0.8295  -11.4412  -43.6074 C.2       2 UNK         0.5000 
     61 O           0.1041  -11.5609  -42.8147 O.2       2 UNK        -0.5000 
     62 CA         -1.6602  -12.6799  -43.9888 C.3       2 UNK         0.1400 
     63 CB         -2.9260  -12.7764  -43.1250 C.3       2 UNK        -0.1800 
     64 N          -2.0381  -12.6839  -45.4021 N.am      2 UNK        -0.5000 
     65 C          -1.1897  -12.9301  -46.4093 C.2       1 UNK         0.5000 
     66 O          -0.0136  -13.2549  -46.2426 O.2       1 UNK        -0.5000 
     67 C          -2.7893  -24.3020  -44.0936 C.2       11 UNK         0.5000 
     68 O          -3.8637  -24.5822  -44.6246 O.2       11 UNK        -0.5000 
     69 N          -2.2971  -24.9705  -43.0393 N.am      12 UNK        -0.5000 
     70 CA         -2.8852  -26.1988  -42.5037 C.3       12 UNK         0.1400 
     71 CB         -2.3138  -26.4568  -41.1014 C.3       12 UNK        -0.1800 
     72 C          -2.6511  -27.4243  -43.4130 C.2       12 UNK         0.5000 
     73 O          -3.4257  -28.3791  -43.3383 O.2       12 UNK        -0.5000 
     74 N          -1.5943  -27.3866  -44.2375 N.am      13 UNK        -0.5000 
     75 CA         -1.2065  -28.4592  -45.1531 C.3       13 UNK         0.1400 
     76 CB          0.3043  -28.7083  -45.0168 C.3       13 UNK        -0.1800 
     77 C          -1.5643  -28.1270  -46.6118 C.2       13 UNK         0.5000 
     78 O          -1.9733  -29.0256  -47.3487 O.2       13 UNK        -0.5000 
     79 N          -1.3907  -26.8591  -47.0120 N.am      14 UNK        -0.5000 
     80 CA         -1.6566  -26.3623  -48.3626 C.3       14 UNK         0.1400 
     81 CB         -1.1245  -24.9257  -48.4882 C.3       14 UNK        -0.1800 
     82 C          -3.1508  -26.4129  -48.7332 C.2       14 UNK         0.5000 
     83 O          -4.0094  -26.1509  -47.8875 O.2       14 UNK        -0.5000 
     84 N          -3.4248  -26.7247  -50.0044 N.am      15 UNK        -0.5000 
     85 CA         -4.7620  -26.7126  -50.5942 C.3       15 UNK         0.1400 
     86 CB         -4.7291  -27.5453  -51.8865 C.3       15 UNK        -0.1800 
     87 C          -5.2296  -25.2794  -50.9034 C.2       15 UNK         0.5000 
     88 O          -4.4024  -24.3760  -51.0505 O.2       15 UNK        -0.5000 
     89 N          -6.5463  -25.1081  -51.0799 N.am      16 UNK        -0.5000 
     90 CA         -7.1674  -23.8443  -51.4909 C.3       16 UNK         0.1400 
     91 CB         -8.6957  -23.9922  -51.4612 C.3       16 UNK        -0.1800 
     92 C          -6.6956  -23.3647  -52.8780 C.2       16 UNK         0.5000 
     93 O          -6.5169  -22.1645  -53.0795 O.2       16 UNK        -0.5000 
     94 N          -6.4519  -24.3164  -53.7905 N.am      17 UNK        -0.5000 
     95 CA         -5.8926  -24.0689  -55.1201 C.3       17 UNK         0.1400 
     96 CB         -6.0119  -25.3473  -55.9631 C.3       17 UNK        -0.1800 
     97 C          -4.4301  -23.5864  -55.0748 C.2       17 UNK         0.5000 
     98 O          -4.0380  -22.7696  -55.9076 O.2       17 UNK        -0.5000 
     99 N          -3.6587  -24.0788  -54.0942 N.am      18 UNK        -0.5000 
    100 CA        -2.2857  -23.6461  -53.8371 C.3       18 UNK         0.1400 
    101 CB        -1.5605  -24.6740  -52.9540 C.3       18 UNK        -0.1800 
    102 C         -2.2595  -22.2450  -53.2071 C.2       18 UNK         0.5000 
    103 O         -1.5071  -21.3916  -53.6742 O.2       18 UNK        -0.5000 
    104 N         -3.1291  -22.0169  -52.2109 N.am      19 UNK        -0.5000 
    105 CA        -3.3389  -20.7238  -51.5533 C.3       19 UNK         0.1400 
    106 CB        -4.3824  -20.8818  -50.4379 C.3       19 UNK        -0.1800 
    107 C         -3.7488  -19.6106  -52.5367 C.2       19 UNK         0.5000 
    108 O         -3.2158  -18.5031  -52.4713 O.2       19 UNK        -0.5000 
    109 N         -4.6492  -19.9427  -53.4718 N.am      20 UNK        -0.5000 
    110 CA        -5.0799  -19.0642  -54.5592 C.3       20 UNK         0.1400 
    111 CB        -6.2729  -19.7070  -55.2828 C.3       20 UNK        -0.1800 
    112 C         -3.9615  -18.7236  -55.5652 C.2       20 UNK         0.5000 
    113 O         -4.0205  -17.6602  -56.1840 O.2       20 UNK        -0.5000 
    114 N         -2.9738  -19.6168  -55.7194 N.am      21 UNK        -0.5000 
    115 CA        -1.8247  -19.4222  -56.5999 C.3       21 UNK         0.1400 
    116 CB        -1.2359  -20.7813  -57.0111 C.3       21 UNK        -0.1800 
    117 C         -0.7575  -18.5179  -55.9600 C.2       21 UNK         0.5000 
    118 O         -0.2883  -17.5911  -56.6230 O.2       21 UNK        -0.5000 
    119 N         -0.3886  -18.7909  -54.6995 N.am      22 UNK        -0.5000 
    120 CA         0.5942  -17.9848  -53.9515 C.3       22 UNK         0.1400 
    121 C          0.0417  -16.6436  -53.3884 C.2       22 UNK         0.5000 
    122 N         -1.2560  -16.5002  -53.1522 N.am      22 UNK        -0.7600 
    123 O          0.8074  -15.7068  -53.1793 O.2       22 UNK        -0.5000 
    124 C124        1.3626  -18.8017  -52.8796 C.3       23 UNK        -0.0398 
    125 S125        0.2993  -19.5850  -51.6230 S.3       23 UNK        -0.2404 
    126 C126        0.4486  -18.4372  -50.2223 C.3       23 UNK        -0.0205 
    127 H127       -4.1396   -9.0812  -46.9435 H         1 UNK         0.0600 
    128 H128       -4.7530  -10.1452  -48.2135 H         1 UNK         0.0600 
    129 H129       -3.6827   -8.8020  -48.6270 H         1 UNK         0.0600 
    130 H130       -3.6896  -12.1195  -48.2692 H         1 UNK         0.3000 
    131 H131       -0.8831  -12.3692  -48.4259 H         1 UNK         0.0600 
    132 H132       -2.1691  -13.9924  -49.5659 H         1 UNK         0.0800 
    133 H133       -1.3139  -14.8517  -48.3184 H         1 UNK         0.0800 
    134 H134       -4.9467  -16.5358  -49.0012 H         1 UNK         0.0800 
    135 H135       -3.8462  -15.7688  -50.1136 H         1 UNK         0.0800 
    136 H136       -1.5142  -16.5554  -50.3101 H         1 UNK         0.1150 
    137 H137       -0.4706  -20.2467  -48.4011 H         1 UNK         0.1150 
    138 H138       -4.1693  -18.3009  -47.4370 H         1 UNK         0.1150 
    139 H139       -3.7929  -20.5501  -46.7039 H         1 UNK         0.0800 
    140 H140       -2.4776  -21.4890  -47.3701 H         1 UNK         0.0800 
    141 H141       -3.6740  -21.8046  -44.6457 H         1 UNK         0.0800 
    142 H142       -2.5637  -21.5553  -43.3268 H         1 UNK         0.0800 
    143 H143       -1.9556  -23.2972  -45.7606 H         1 UNK         0.0600 
    144 H144       -0.2321  -22.4085  -43.6833 H         1 UNK         0.3000 
    145 H145        2.0362  -25.1062  -43.6792 H         1 UNK         0.0600 
    146 H146        3.7662  -23.5836  -44.6045 H         1 UNK         0.0600 
    147 H147        2.7264  -24.1638  -45.8951 H         1 UNK         0.0600 
    148 H148        2.5193  -22.5301  -45.2748 H         1 UNK         0.0600 
    149 H149        2.4252  -22.4487  -42.8035 H         1 UNK         0.3000 
    150 H150        0.2798  -22.2338  -40.0751 H         1 UNK         0.0600 
    151 H151        3.2808  -22.8280  -39.8548 H         1 UNK         0.0600 
    152 H152        2.0068  -23.7022  -39.0129 H         1 UNK         0.0600 
    153 H153        2.2923  -22.0096  -38.6439 H         1 UNK         0.0600 
    154 H154        2.4898  -20.6188  -40.7146 H         1 UNK         0.3000 
    155 H155        1.4507  -18.2865  -41.7177 H         1 UNK         0.0600 
    156 H156        3.2218  -19.9436  -43.6234 H         1 UNK         0.0600 
    157 H157        3.6569  -19.4533  -41.9883 H         1 UNK         0.0600 
    158 H158        3.4858  -18.2467  -43.2403 H         1 UNK         0.0600 
    159 H159        0.2272  -19.2852  -44.0968 H         1 UNK         0.3000 
    160 H160       -0.0014  -18.0763  -46.0553 H         1 UNK         0.0600 
    161 H161       -1.3295  -15.6825  -44.6661 H         1 UNK         0.0600 
    162 H162       -1.9033  -17.3440  -44.6264 H         1 UNK         0.0600 
    163 H163       -1.9003  -16.4583  -46.1411 H         1 UNK         0.0600 
    164 H164        0.5389  -15.1841  -46.1938 H         1 UNK         0.3000 
    165 H165        3.6349  -15.5567  -47.8907 H         1 UNK         0.0600 
    166 H166        1.9569  -15.5406  -49.7343 H         1 UNK         0.0600 
    167 H167        0.9571  -14.4006  -48.8413 H         1 UNK         0.0600 
    168 H168        2.5510  -13.9197  -49.4128 H         1 UNK         0.0600 
    169 H169        1.8418  -13.5148  -46.7210 H         1 UNK         0.3000 
    170 H170        2.4379  -13.3434  -43.9711 H         1 UNK         0.0600 
    171 H171        4.7766  -13.3770  -43.2318 H         1 UNK         0.0600 
    172 H172        5.2345  -12.1826  -44.4364 H         1 UNK         0.0600 
    173 H173        4.1620  -11.7370  -43.1089 H         1 UNK         0.0600 
    174 H174        1.5858  -11.6051  -45.0089 H         1 UNK         0.3000 
    175 H175        2.7044   -8.9035  -46.7866 H         1 UNK         0.0600 
    176 H176        1.0641   -9.4263  -48.6079 H         1 UNK         0.0600 
    177 H177        2.5713  -10.2999  -48.8382 H         1 UNK         0.0600 
    178 H178        1.1614  -11.1408  -48.2083 H         1 UNK         0.0600 
    179 H179        0.0566   -9.9331  -46.3435 H         1 UNK         0.3000 
    180 H180       -0.2389   -8.8954  -42.9429 H         1 UNK         0.0600 
    181 H181       -1.5637   -7.9158  -45.5297 H         1 UNK         0.0600 
    182 H182       -0.8202   -6.8979  -44.3040 H         1 UNK         0.0600 
    183 H183       -2.2605   -7.8243  -43.9128 H         1 UNK         0.0600 
    184 H184       -1.9035  -10.2802  -44.8808 H         1 UNK         0.3000 
    185 H185       -1.0445  -13.5586  -43.7879 H         1 UNK         0.0600 
    186 H186       -2.6739  -12.7928  -42.0639 H         1 UNK         0.0600 
    187 H187       -3.5946  -11.9308  -43.2912 H         1 UNK         0.0600 
    188 H188       -3.4798  -13.6904  -43.3408 H         1 UNK         0.0600 
    189 H189       -2.9924  -12.4423  -45.6258 H         1 UNK         0.3000 
    190 H190       -1.4152  -24.6775  -42.6347 H         1 UNK         0.3000 
    191 H191       -3.9637  -26.0556  -42.4096 H         1 UNK         0.0600 
    192 H192       -2.4981  -25.6120  -40.4374 H         1 UNK         0.0600 
    193 H193       -2.7751  -27.3347  -40.6472 H         1 UNK         0.0600 
    194 H194       -1.2375  -26.6308  -41.1318 H         1 UNK         0.0600 
    195 H195       -1.0333  -26.5439  -44.2766 H         1 UNK         0.3000 
    196 H196       -1.7203  -29.3863  -44.8905 H         1 UNK         0.0600 
    197 H197        0.6291  -29.5110  -45.6801 H         1 UNK         0.0600 
    198 H198        0.5636  -29.0023  -43.9997 H         1 UNK         0.0600 
    199 H199        0.8859  -27.8200  -45.2665 H         1 UNK         0.0600 
    200 H200       -1.0053  -26.1879  -46.3538 H         1 UNK         0.3000 
    201 H201       -1.1011  -26.9944  -49.0586 H         1 UNK         0.0600 
    202 H202       -1.2356  -24.5553  -49.5081 H         1 UNK         0.0600 
    203 H203       -1.6640  -24.2408  -47.8351 H         1 UNK         0.0600 
    204 H204       -0.0658  -24.8695  -48.2340 H         1 UNK         0.0600 
    205 H205       -2.6605  -26.8947  -50.6406 H         1 UNK         0.3000 
    206 H206       -5.4652  -27.1693  -49.8945 H         1 UNK         0.0600 
    207 H207       -4.4114  -28.5689  -51.6863 H         1 UNK         0.0600 
    208 H208       -5.7160  -27.6007  -52.3473 H         1 UNK         0.0600 
    209 H209       -4.0455  -27.1218  -52.6238 H         1 UNK         0.0600 
    210 H210       -7.1671  -25.8941  -50.9504 H         1 UNK         0.3000 
    211 H211       -6.8851  -23.0817  -50.7626 H         1 UNK         0.0600 
    212 H212       -9.0404  -24.7645  -52.1500 H         1 UNK         0.0600 
    213 H213       -9.1832  -23.0583  -51.7444 H         1 UNK         0.0600 
    214 H214       -9.0477  -24.2506  -50.4624 H         1 UNK         0.0600 
    215 H215       -6.6353  -25.2775  -53.5440 H         1 UNK         0.3000 
    216 H216       -6.4856  -23.2864  -55.5983 H         1 UNK         0.0600 
    217 H217       -5.6205  -25.1890  -56.9690 H         1 UNK         0.0600 
    218 H218       -7.0523  -25.6564  -56.0658 H         1 UNK         0.0600 
    219 H219       -5.4566  -26.1756  -55.5212 H         1 UNK         0.0600 
    220 H220       -4.0738  -24.6974  -53.4140 H         1 UNK         0.3000 
    221 H221       -1.7567  -23.5948  -54.7915 H         1 UNK         0.0600 
    222 H222       -2.0114  -24.7583  -51.9662 H         1 UNK         0.0600 
    223 H223       -1.5680  -25.6629  -53.4124 H         1 UNK         0.0600 
    224 H224       -0.5173  -24.3901  -52.8101 H         1 UNK         0.0600 
    225 H225       -3.6871  -22.7949  -51.8699 H         1 UNK         0.3000 
    226 H226       -2.3972  -20.4297  -51.0906 H         1 UNK         0.0600 
    227 H227       -4.5533  -19.9336  -49.9285 H         1 UNK         0.0600 
    228 H228       -5.3422  -21.2173  -50.8280 H         1 UNK         0.0600 
    229 H229       -4.0530  -21.6021  -49.6889 H         1 UNK         0.0600 
    230 H230       -5.0923  -20.8553  -53.4223 H         1 UNK         0.3000 
    231 H231       -5.4167  -18.1254  -54.1148 H         1 UNK         0.0600 
    232 H232       -6.0054  -20.6706  -55.7178 H         1 UNK         0.0600 
    233 H233       -6.6320  -19.0688  -56.0911 H         1 UNK         0.0600 
    234 H234       -7.1081  -19.8674  -54.6008 H         1 UNK         0.0600 
    235 H235       -2.9783  -20.4575  -55.1568 H         1 UNK         0.3000 
    236 H236       -2.1699  -18.9326  -57.5132 H         1 UNK         0.0600 
    237 H237       -0.4278  -20.6500  -57.7316 H         1 UNK         0.0600 
    238 H238       -0.8268  -21.3275  -56.1621 H         1 UNK         0.0600 
    239 H239       -1.9912  -21.4117  -57.4807 H         1 UNK         0.0600 
    240 H240       -0.8072  -19.5761  -54.2087 H         1 UNK         0.3000 
    241 H241        1.3582  -17.6834  -54.6713 H         1 UNK         0.0600 
    242 H242       -1.8871  -17.2959  -53.1863 H         1 UNK         0.3800 
    243 H243       -1.5973  -15.6153  -52.8172 H         1 UNK         0.3800 
    244 H244        2.1209  -18.1867  -52.3920 H         1 UNK         0.0800 
    245 H245        1.9156  -19.6009  -53.3746 H         1 UNK         0.0800 
    246 H246        1.2739  -18.7523  -49.5828 H         1 UNK         0.0800 
    247 H247        0.6959  -17.4370  -50.5786 H         1 UNK         0.0800 
@<TRIPOS>BOND
     1    1    2 1    
     2    1  127 1    
     3    1  128 1    
     4    1  129 1    
     5    2    3 2    
     6    2    4 am   BACKBONE|DICT|INTERRES
     7    4    5 1    
     8    4  130 1    
     9    5    6 1    
    10    5   65 1    
    11    5  131 1    
    12    6    7 1    
    13    6  132 1    
    14    6  133 1    
    15    7    8 1    
    16    8    9 1    
    17    8  134 1    
    18    8  135 1    
    19    9   10 ar   
    20    9   14 ar   
    21   10   11 ar   
    22   10  136 1    
    23   11   12 ar   
    24   11  126 1    
    25   12   13 ar   
    26   12  137 1    
    27   13   14 ar   
    28   13   15 1    
    29   14  138 1    
    30   15   16 1    
    31   15  139 1    
    32   15  140 1    
    33   16   17 1    
    34   17   18 1    
    35   17  141 1    
    36   17  142 1    
    37   18   19 1    
    38   18   67 1    
    39   18  143 1    
    40   19   20 am   BACKBONE|DICT|INTERRES
    41   19  144 1    
    42   20   21 2    
    43   20   22 1    
    44   22   23 1    
    45   22   24 1    
    46   22  145 1    
    47   23  146 1    
    48   23  147 1    
    49   23  148 1    
    50   24   25 am   BACKBONE|DICT|INTERRES
    51   24  149 1    
    52   25   26 2    
    53   25   27 1    
    54   27   28 1    
    55   27   29 1    
    56   27  150 1    
    57   28  151 1    
    58   28  152 1    
    59   28  153 1    
    60   29   30 am   BACKBONE|DICT|INTERRES
    61   29  154 1    
    62   30   31 2    
    63   30   32 1    
    64   32   33 1    
    65   32   34 1    
    66   32  155 1    
    67   33  156 1    
    68   33  157 1    
    69   33  158 1    
    70   34   35 am   BACKBONE|DICT|INTERRES
    71   34  159 1    
    72   35   36 2    
    73   35   37 1    
    74   37   38 1    
    75   37   39 1    
    76   37  160 1    
    77   38  161 1    
    78   38  162 1    
    79   38  163 1    
    80   39   40 am   BACKBONE|DICT|INTERRES
    81   39  164 1    
    82   40   41 2    
    83   40   42 1    
    84   42   43 1    
    85   42   44 1    
    86   42  165 1    
    87   43  166 1    
    88   43  167 1    
    89   43  168 1    
    90   44   45 am   BACKBONE|DICT|INTERRES
    91   44  169 1    
    92   45   46 2    
    93   45   47 1    
    94   47   48 1    
    95   47   49 1    
    96   47  170 1    
    97   48  171 1    
    98   48  172 1    
    99   48  173 1    
   100   49   50 am   BACKBONE|DICT|INTERRES
   101   49  174 1    
   102   50   51 2    
   103   50   52 1    
   104   52   53 1    
   105   52   54 1    
   106   52  175 1    
   107   53  176 1    
   108   53  177 1    
   109   53  178 1    
   110   54   55 am   BACKBONE|DICT|INTERRES
   111   54  179 1    
   112   55   56 2    
   113   55   57 1    
   114   57   58 1    
   115   57   59 1    
   116   57  180 1    
   117   58  181 1    
   118   58  182 1    
   119   58  183 1    
   120   59   60 am   BACKBONE|DICT|INTERRES
   121   59  184 1    
   122   60   61 2    
   123   60   62 1    
   124   62   63 1    
   125   62   64 1    
   126   62  185 1    
   127   63  186 1    
   128   63  187 1    
   129   63  188 1    
   130   64   65 am   BACKBONE|DICT|INTERRES
   131   64  189 1    
   132   65   66 2    
   133   67   68 2    
   134   67   69 am   BACKBONE|DICT|INTERRES
   135   69   70 1    
   136   69  190 1    
   137   70   71 1    
   138   70   72 1    
   139   70  191 1    
   140   71  192 1    
   141   71  193 1    
   142   71  194 1    
   143   72   73 2    
   144   72   74 am   BACKBONE|DICT|INTERRES
   145   74   75 1    
   146   74  195 1    
   147   75   76 1    
   148   75   77 1    
   149   75  196 1    
   150   76  197 1    
   151   76  198 1    
   152   76  199 1    
   153   77   78 2    
   154   77   79 am   BACKBONE|DICT|INTERRES
   155   79   80 1    
   156   79  200 1    
   157   80   81 1    
   158   80   82 1    
   159   80  201 1    
   160   81  202 1    
   161   81  203 1    
   162   81  204 1    
   163   82   83 2    
   164   82   84 am   BACKBONE|DICT|INTERRES
   165   84   85 1    
   166   84  205 1    
   167   85   86 1    
   168   85   87 1    
   169   85  206 1    
   170   86  207 1    
   171   86  208 1    
   172   86  209 1    
   173   87   88 2    
   174   87   89 am   BACKBONE|DICT|INTERRES
   175   89   90 1    
   176   89  210 1    
   177   90   91 1    
   178   90   92 1    
   179   90  211 1    
   180   91  212 1    
   181   91  213 1    
   182   91  214 1    
   183   92   93 2    
   184   92   94 am   BACKBONE|DICT|INTERRES
   185   94   95 1    
   186   94  215 1    
   187   95   96 1    
   188   95   97 1    
   189   95  216 1    
   190   96  217 1    
   191   96  218 1    
   192   96  219 1    
   193   97   98 2    
   194   97   99 am   BACKBONE|DICT|INTERRES
   195   99  100 1    
   196   99  220 1    
   197  100  101 1    
   198  100  102 1    
   199  100  221 1    
   200  101  222 1    
   201  101  223 1    
   202  101  224 1    
   203  102  103 2    
   204  102  104 am   BACKBONE|DICT|INTERRES
   205  104  105 1    
   206  104  225 1    
   207  105  106 1    
   208  105  107 1    
   209  105  226 1    
   210  106  227 1    
   211  106  228 1    
   212  106  229 1    
   213  107  108 2    
   214  107  109 am   BACKBONE|DICT|INTERRES
   215  109  110 1    
   216  109  230 1    
   217  110  111 1    
   218  110  112 1    
   219  110  231 1    
   220  111  232 1    
   221  111  233 1    
   222  111  234 1    
   223  112  113 2    
   224  112  114 am   BACKBONE|DICT|INTERRES
   225  114  115 1    
   226  114  235 1    
   227  115  116 1    
   228  115  117 1    
   229  115  236 1    
   230  116  237 1    
   231  116  238 1    
   232  116  239 1    
   233  117  118 2    
   234  117  119 am   BACKBONE|DICT|INTERRES
   235  119  120 1    
   236  119  240 1    
   237  120  121 1    
   238  120  124 1    
   239  120  241 1    
   240  121  122 am   BACKBONE|DICT|INTERRES
   241  121  123 2    
   242  122  242 1    
   243  122  243 1    
   244  124  125 1    
   245  124  244 1    
   246  124  245 1    
   247  125  126 1    
   248  126  246 1    
   249  126  247 1    
@<TRIPOS>SUBSTRUCTURE
     1 UNK         1 GROUP             0       ****    0 ROOT    
