@<TRIPOS>MOLECULE
3R540
247   249    1
SMALL
USER_CHARGES


@<TRIPOS>ATOM
      1 CA          6.9834  -11.7185  -49.3449 C.3       0 UNK        -0.1800 
      2 C           6.1052  -12.7296  -48.6215 C.2       0 UNK         0.5000 
      3 O           6.5180  -13.8731  -48.4308 O.2       0 UNK        -0.5000 
      4 N           4.9014  -12.3095  -48.2106 N.am      1 UNK        -0.5000 
      5 CA          3.9120  -13.1376  -47.5040 C.3       1 UNK         0.1400 
      6 C6          2.4621  -12.7077  -47.8659 C.3       23 UNK        -0.0398 
      7 S7          1.3325  -14.1264  -48.0669 S.3       23 UNK        -0.2404 
      8 C8          1.6538  -14.5493  -49.8099 C.3       23 UNK        -0.0205 
      9 C9          0.8992  -15.7971  -50.2450 C.ar      23 UNK        -0.0193 
     10 C10        -0.4773  -15.7337  -50.4714 C.ar      23 UNK        -0.1150 
     11 C11        -1.1866  -16.8688  -50.8711 C.ar      23 UNK        -0.0193 
     12 C12        -0.5020  -18.0702  -51.0846 C.ar      23 UNK        -0.1150 
     13 C13         0.8805  -18.1440  -50.8792 C.ar      23 UNK        -0.0193 
     14 C14         1.5723  -17.0067  -50.4467 C.ar      23 UNK        -0.1150 
     15 C15         1.6384  -19.4356  -51.1625 C.3       23 UNK        -0.0205 
     16 S16         1.9268  -20.4315  -49.6632 S.3       23 UNK        -0.2404 
     17 C17         0.2754  -21.1515  -49.4017 C.3       23 UNK        -0.0398 
     18 CA          0.2554  -22.3017  -48.3618 C.3       11 UNK         0.1400 
     19 N           0.5103  -21.8389  -46.9934 N.am      11 UNK        -0.5000 
     20 C           0.5897  -22.6223  -45.9070 C.2       10 UNK         0.5000 
     21 O           0.5184  -23.8505  -45.9406 O.2       10 UNK        -0.5000 
     22 CA          0.7097  -21.9172  -44.5431 C.3       10 UNK         0.1400 
     23 CB          2.1476  -21.4448  -44.2811 C.3       10 UNK        -0.1800 
     24 N          -0.2208  -20.7951  -44.4090 N.am      10 UNK        -0.5000 
     25 C          -1.5561  -20.9217  -44.3904 C.2       9 UNK         0.5000 
     26 O          -2.1422  -22.0015  -44.4512 O.2       9 UNK        -0.5000 
     27 CA         -2.3806  -19.6240  -44.3401 C.3       9 UNK         0.1400 
     28 CB         -2.4805  -19.0943  -42.9022 C.3       9 UNK        -0.1800 
     29 N          -1.8366  -18.5827  -45.2078 N.am      9 UNK        -0.5000 
     30 C          -1.7418  -18.6788  -46.5417 C.2       8 UNK         0.5000 
     31 O          -2.1565  -19.6365  -47.1954 O.2       8 UNK        -0.5000 
     32 CA         -1.0069  -17.5323  -47.2547 C.3       8 UNK         0.1400 
     33 CB         -1.9260  -16.3082  -47.3824 C.3       8 UNK        -0.1800 
     34 N           0.2402  -17.1587  -46.5827 N.am      8 UNK        -0.5000 
     35 C           1.2753  -17.9896  -46.3859 C.2       7 UNK         0.5000 
     36 O           1.2857  -19.1599  -46.7540 O.2       7 UNK        -0.5000 
     37 CA          2.4786  -17.4558  -45.5907 C.3       7 UNK         0.1400 
     38 CB          3.5486  -16.8861  -46.5290 C.3       7 UNK        -0.1800 
     39 N           2.0801  -16.4644  -44.5900 N.am      7 UNK        -0.5000 
     40 C           1.3981  -16.7978  -43.4839 C.2       6 UNK         0.5000 
     41 O           1.0997  -17.9574  -43.1906 O.2       6 UNK        -0.5000 
     42 CA          0.9279  -15.6476  -42.5813 C.3       6 UNK         0.1400 
     43 CB          2.1061  -14.9888  -41.8542 C.3       6 UNK        -0.1800 
     44 N           0.1559  -14.6363  -43.3054 N.am      6 UNK        -0.5000 
     45 C          -1.0495  -14.8583  -43.8501 C.2       5 UNK         0.5000 
     46 O          -1.5862  -15.9672  -43.8557 O.2       5 UNK        -0.5000 
     47 CA         -1.7756  -13.6650  -44.5135 C.3       5 UNK         0.1400 
     48 CB         -3.3124  -13.7921  -44.4391 C.3       5 UNK        -0.1800 
     49 N          -1.3449  -12.3476  -44.0330 N.am      5 UNK        -0.5000 
     50 C          -1.4403  -11.8502  -42.7907 C.2       4 UNK         0.5000 
     51 O          -1.9435  -12.4441  -41.8351 O.2       4 UNK        -0.5000 
     52 CA         -0.8237  -10.4489  -42.5883 C.3       4 UNK         0.1400 
     53 CB         -1.7412   -9.5513  -41.7408 C.3       4 UNK        -0.1800 
     54 N           0.5123  -10.4681  -41.9800 N.am      4 UNK        -0.5000 
     55 C           1.5560  -11.2167  -42.3638 C.2       3 UNK         0.5000 
     56 O           1.4997  -12.0563  -43.2646 O.2       3 UNK        -0.5000 
     57 CA          2.8867  -10.9752  -41.6175 C.3       3 UNK         0.1400 
     58 CB          2.8108  -11.4323  -40.1511 C.3       3 UNK        -0.1800 
     59 N           4.0073  -11.6580  -42.2694 N.am      3 UNK        -0.5000 
     60 C           4.5218  -11.3010  -43.4532 C.2       2 UNK         0.5000 
     61 O           4.2141  -10.2603  -44.0403 O.2       2 UNK        -0.5000 
     62 CA          5.5590  -12.2394  -44.1032 C.3       2 UNK         0.1400 
     63 CB          5.8415  -13.5482  -43.3297 C.3       2 UNK        -0.1800 
     64 N           5.2028  -12.5015  -45.5001 N.am      2 UNK        -0.5000 
     65 C           4.1459  -13.1835  -45.9725 C.2       1 UNK         0.5000 
     66 O           3.3692  -13.8265  -45.2639 O.2       1 UNK        -0.5000 
     67 C          -1.0774  -23.0695  -48.4534 C.2       11 UNK         0.5000 
     68 O          -1.0991  -24.1902  -48.9650 O.2       11 UNK        -0.5000 
     69 N          -2.1555  -22.4645  -47.9338 N.am      12 UNK        -0.5000 
     70 CA         -3.4972  -23.0441  -47.9223 C.3       12 UNK         0.1400 
     71 CB         -4.5081  -22.0023  -47.4235 C.3       12 UNK        -0.1800 
     72 C          -3.5878  -24.3413  -47.1003 C.2       12 UNK         0.5000 
     73 O          -4.2117  -25.2993  -47.5554 O.2       12 UNK        -0.5000 
     74 N          -2.9356  -24.3684  -45.9294 N.am      13 UNK        -0.5000 
     75 CA         -2.8428  -25.5430  -45.0616 C.3       13 UNK         0.1400 
     76 CB         -2.2311  -25.1435  -43.7105 C.3       13 UNK        -0.1800 
     77 C          -2.0460  -26.6967  -45.6962 C.2       13 UNK         0.5000 
     78 O          -2.4521  -27.8516  -45.5639 O.2       13 UNK        -0.5000 
     79 N          -0.9427  -26.3678  -46.3836 N.am      14 UNK        -0.5000 
     80 CA         -0.0993  -27.3250  -47.0999 C.3       14 UNK         0.1400 
     81 CB          1.2123  -26.6454  -47.5224 C.3       14 UNK        -0.1800 
     82 C          -0.8089  -27.9462  -48.3160 C.2       14 UNK         0.5000 
     83 O          -0.7052  -29.1557  -48.5254 O.2       14 UNK        -0.5000 
     84 N          -1.5231  -27.1149  -49.0868 N.am      15 UNK        -0.5000 
     85 CA         -2.3001  -27.5428  -50.2508 C.3       15 UNK         0.1400 
     86 CB         -2.6322  -26.3150  -51.1101 C.3       15 UNK        -0.1800 
     87 C          -3.5987  -28.2796  -49.8771 C.2       15 UNK         0.5000 
     88 O          -4.0429  -29.1366  -50.6417 O.2       15 UNK        -0.5000 
     89 N          -4.1944  -27.9006  -48.7357 N.am      16 UNK        -0.5000 
     90 CA         -5.5378  -28.2618  -48.2685 C.3       16 UNK         0.1400 
     91 CB         -5.6354  -29.7686  -47.9520 C.3       16 UNK        -0.1800 
     92 C          -6.6304  -27.7617  -49.2399 C.2       16 UNK         0.5000 
     93 O          -7.6183  -28.4575  -49.4837 O.2       16 UNK        -0.5000 
     94 N          -6.4094  -26.5656  -49.7976 N.am      17 UNK        -0.5000 
     95 CA         -7.1890  -25.9330  -50.8562 C.3       17 UNK         0.1400 
     96 CB         -6.9560  -26.6733  -52.1901 C.3       17 UNK        -0.1800 
     97 C          -6.7627  -24.4598  -50.9650 C.2       17 UNK         0.5000 
     98 O          -5.8382  -24.0331  -50.2672 O.2       17 UNK        -0.5000 
     99 N          -7.4226  -23.7070  -51.8545 N.am      18 UNK        -0.5000 
    100 CA        -7.1096  -22.3138  -52.1814 C.3       18 UNK         0.1400 
    101 CB        -8.3211  -21.6770  -52.8850 C.3       18 UNK        -0.1800 
    102 C         -5.8193  -22.2015  -53.0209 C.2       18 UNK         0.5000 
    103 O         -5.8769  -21.9380  -54.2244 O.2       18 UNK        -0.5000 
    104 N         -4.6755  -22.4262  -52.3617 N.am      19 UNK        -0.5000 
    105 CA        -3.3203  -22.3320  -52.9062 C.3       19 UNK         0.1400 
    106 CB        -2.3202  -22.5693  -51.7704 C.3       19 UNK        -0.1800 
    107 C         -3.0482  -20.9626  -53.5469 C.2       19 UNK         0.5000 
    108 O         -3.4324  -19.9449  -52.9671 O.2       19 UNK        -0.5000 
    109 N         -2.4315  -20.9655  -54.7365 N.am      20 UNK        -0.5000 
    110 CA        -2.1221  -19.7891  -55.5645 C.3       20 UNK         0.1400 
    111 CB        -1.0207  -18.9403  -54.8949 C.3       20 UNK        -0.1800 
    112 C         -3.3632  -18.9499  -55.9583 C.2       20 UNK         0.5000 
    113 O         -3.2250  -17.7714  -56.2886 O.2       20 UNK        -0.5000 
    114 N         -4.5495  -19.5782  -55.9115 N.am      21 UNK        -0.5000 
    115 CA        -5.8841  -18.9966  -56.0808 C.3       21 UNK         0.1400 
    116 CB        -6.0717  -18.4238  -57.5018 C.3       21 UNK        -0.1800 
    117 C         -6.2652  -17.9956  -54.9666 C.2       21 UNK         0.5000 
    118 O         -7.1049  -17.1230  -55.1976 O.2       21 UNK        -0.5000 
    119 N         -5.6681  -18.1429  -53.7768 N.am      22 UNK        -0.5000 
    120 CA        -5.9182  -17.2952  -52.6009 C.3       22 UNK         0.1400 
    121 C         -5.9817  -18.0683  -51.2553 C.2       22 UNK         0.5000 
    122 N         -5.3721  -19.2385  -51.1203 N.am      22 UNK        -0.7600 
    123 O         -6.6176  -17.6028  -50.3139 O.2       22 UNK        -0.5000 
    124 C124       -4.9716  -16.0653  -52.5323 C.3       23 UNK        -0.0398 
    125 S125       -3.1895  -16.4318  -52.7356 S.3       23 UNK        -0.2404 
    126 C126       -2.6966  -16.7987  -51.0259 C.3       23 UNK        -0.0205 
    127 H127        6.4944  -10.7485  -49.4378 H         1 UNK         0.0600 
    128 H128        7.2199  -12.0768  -50.3468 H         1 UNK         0.0600 
    129 H129        7.9185  -11.5775  -48.8028 H         1 UNK         0.0600 
    130 H130        4.6275  -11.3524  -48.3860 H         1 UNK         0.3000 
    131 H131        4.0566  -14.1596  -47.8558 H         1 UNK         0.0600 
    132 H132        2.4459  -12.1457  -48.8010 H         1 UNK         0.0800 
    133 H133        2.0452  -12.0291  -47.1191 H         1 UNK         0.0800 
    134 H134        1.3609  -13.7121  -50.4451 H         1 UNK         0.0800 
    135 H135        2.7262  -14.6868  -49.9562 H         1 UNK         0.0800 
    136 H136       -1.0010  -14.8016  -50.3118 H         1 UNK         0.1150 
    137 H137       -1.0485  -18.9449  -51.4097 H         1 UNK         0.1150 
    138 H138        2.6392  -17.0621  -50.2821 H         1 UNK         0.1150 
    139 H139        1.1108  -20.0321  -51.9084 H         1 UNK         0.0800 
    140 H140        2.6050  -19.1927  -51.6060 H         1 UNK         0.0800 
    141 H141       -0.0631  -21.5153  -50.3716 H         1 UNK         0.0800 
    142 H142       -0.4112  -20.3546  -49.1133 H         1 UNK         0.0800 
    143 H143        1.0486  -23.0075  -48.6170 H         1 UNK         0.0600 
    144 H144        0.6445  -20.8347  -46.8807 H         1 UNK         0.3000 
    145 H145        0.4546  -22.6469  -43.7717 H         1 UNK         0.0600 
    146 H146        2.2328  -20.9566  -43.3100 H         1 UNK         0.0600 
    147 H147        2.8378  -22.2891  -44.2837 H         1 UNK         0.0600 
    148 H148        2.4913  -20.7431  -45.0399 H         1 UNK         0.0600 
    149 H149        0.1803  -19.8676  -44.3630 H         1 UNK         0.3000 
    150 H150       -3.3888  -19.8564  -44.6893 H         1 UNK         0.0600 
    151 H151       -2.8919  -19.8516  -42.2337 H         1 UNK         0.0600 
    152 H152       -3.1332  -18.2227  -42.8489 H         1 UNK         0.0600 
    153 H153       -1.5046  -18.8035  -42.5116 H         1 UNK         0.0600 
    154 H154       -1.5066  -17.7379  -44.7499 H         1 UNK         0.3000 
    155 H155       -0.7434  -17.8775  -48.2545 H         1 UNK         0.0600 
    156 H156       -1.4170  -15.4676  -47.8511 H         1 UNK         0.0600 
    157 H157       -2.7990  -16.5455  -47.9905 H         1 UNK         0.0600 
    158 H158       -2.2937  -15.9764  -46.4141 H         1 UNK         0.0600 
    159 H159        0.3175  -16.2107  -46.2476 H         1 UNK         0.3000 
    160 H160        2.9281  -18.3003  -45.0642 H         1 UNK         0.0600 
    161 H161        3.1400  -16.1102  -47.1701 H         1 UNK         0.0600 
    162 H162        3.9439  -17.6659  -47.1811 H         1 UNK         0.0600 
    163 H163        4.3871  -16.4662  -45.9732 H         1 UNK         0.0600 
    164 H164        2.3237  -15.4935  -44.7677 H         1 UNK         0.3000 
    165 H165        0.2738  -16.0805  -41.8213 H         1 UNK         0.0600 
    166 H166        2.7372  -14.4271  -42.5419 H         1 UNK         0.0600 
    167 H167        1.7435  -14.3033  -41.0905 H         1 UNK         0.0600 
    168 H168        2.7314  -15.7312  -41.3570 H         1 UNK         0.0600 
    169 H169        0.5634  -13.7054  -43.3635 H         1 UNK         0.3000 
    170 H170       -1.4953  -13.7014  -45.5671 H         1 UNK         0.0600 
    171 H171       -3.6608  -14.7031  -44.9261 H         1 UNK         0.0600 
    172 H172       -3.6658  -13.8224  -43.4082 H         1 UNK         0.0600 
    173 H173       -3.8016  -12.9551  -44.9371 H         1 UNK         0.0600 
    174 H174       -0.8495  -11.7911  -44.7157 H         1 UNK         0.3000 
    175 H175       -0.7223   -9.9785  -43.5683 H         1 UNK         0.0600 
    176 H176       -2.7473   -9.5139  -42.1607 H         1 UNK         0.0600 
    177 H177       -1.8267   -9.9153  -40.7161 H         1 UNK         0.0600 
    178 H178       -1.3685   -8.5276  -41.7031 H         1 UNK         0.0600 
    179 H179        0.6479   -9.8229  -41.2157 H         1 UNK         0.3000 
    180 H180        3.0831   -9.9010  -41.6314 H         1 UNK         0.0600 
    181 H181        1.9940  -10.9407  -39.6217 H         1 UNK         0.0600 
    182 H182        3.7298  -11.1870  -39.6184 H         1 UNK         0.0600 
    183 H183        2.6566  -12.5066  -40.0651 H         1 UNK         0.0600 
    184 H184        4.2904  -12.5400  -41.8705 H         1 UNK         0.3000 
    185 H185        6.4922  -11.6752  -44.1309 H         1 UNK         0.0600 
    186 H186        6.2271  -13.3402  -42.3310 H         1 UNK         0.0600 
    187 H187        4.9542  -14.1701  -43.2206 H         1 UNK         0.0600 
    188 H188        6.5959  -14.1445  -43.8430 H         1 UNK         0.0600 
    189 H189        5.7543  -12.0004  -46.1812 H         1 UNK         0.3000 
    190 H190       -2.0617  -21.5304  -47.5426 H         1 UNK         0.3000 
    191 H191       -3.7469  -23.2922  -48.9544 H         1 UNK         0.0600 
    192 H192       -4.2900  -21.6871  -46.4025 H         1 UNK         0.0600 
    193 H193       -5.5214  -22.4057  -47.4380 H         1 UNK         0.0600 
    194 H194       -4.5021  -21.1147  -48.0563 H         1 UNK         0.0600 
    195 H195       -2.4824  -23.5219  -45.5959 H         1 UNK         0.3000 
    196 H196       -3.8574  -25.9034  -44.8796 H         1 UNK         0.0600 
    197 H197       -2.1523  -26.0046  -43.0457 H         1 UNK         0.0600 
    198 H198       -2.8459  -24.3987  -43.2052 H         1 UNK         0.0600 
    199 H199       -1.2305  -24.7264  -43.8299 H         1 UNK         0.0600 
    200 H200       -0.6450  -25.3967  -46.4035 H         1 UNK         0.3000 
    201 H201        0.1487  -28.1353  -46.4111 H         1 UNK         0.0600 
    202 H202        1.7666  -26.2878  -46.6546 H         1 UNK         0.0600 
    203 H203        1.0322  -25.7925  -48.1776 H         1 UNK         0.0600 
    204 H204        1.8594  -27.3414  -48.0575 H         1 UNK         0.0600 
    205 H205       -1.5106  -26.1195  -48.8813 H         1 UNK         0.3000 
    206 H206       -1.6876  -28.2218  -50.8478 H         1 UNK         0.0600 
    207 H207       -1.7248  -25.8025  -51.4298 H         1 UNK         0.0600 
    208 H208       -3.1805  -26.5998  -52.0088 H         1 UNK         0.0600 
    209 H209       -3.2500  -25.6031  -50.5608 H         1 UNK         0.0600 
    210 H210       -3.7688  -27.1377  -48.2196 H         1 UNK         0.3000 
    211 H211       -5.6896  -27.7200  -47.3340 H         1 UNK         0.0600 
    212 H212       -5.5677  -30.3804  -48.8518 H         1 UNK         0.0600 
    213 H213       -6.5846  -30.0036  -47.4695 H         1 UNK         0.0600 
    214 H214       -4.8408  -30.0793  -47.2735 H         1 UNK         0.0600 
    215 H215       -5.6196  -26.0111  -49.4837 H         1 UNK         0.3000 
    216 H216       -8.2469  -25.9660  -50.5895 H         1 UNK         0.0600 
    217 H217       -5.9045  -26.6502  -52.4797 H         1 UNK         0.0600 
    218 H218       -7.5313  -26.2276  -53.0020 H         1 UNK         0.0600 
    219 H219       -7.2586  -27.7185  -52.1267 H         1 UNK         0.0600 
    220 H220       -8.1524  -24.1353  -52.4053 H         1 UNK         0.3000 
    221 H221       -6.9457  -21.7654  -51.2512 H         1 UNK         0.0600 
    222 H222       -9.2026  -21.6940  -52.2439 H         1 UNK         0.0600 
    223 H223       -8.5700  -22.1946  -53.8122 H         1 UNK         0.0600 
    224 H224       -8.1215  -20.6334  -53.1333 H         1 UNK         0.0600 
    225 H225       -4.7547  -22.7166  -51.3939 H         1 UNK         0.3000 
    226 H226       -3.2059  -23.1174  -53.6555 H         1 UNK         0.0600 
    227 H227       -2.5030  -23.5193  -51.2749 H         1 UNK         0.0600 
    228 H228       -1.2971  -22.5890  -52.1473 H         1 UNK         0.0600 
    229 H229       -2.3854  -21.7856  -51.0142 H         1 UNK         0.0600 
    230 H230       -2.1715  -21.8547  -55.1406 H         1 UNK         0.3000 
    231 H231       -1.7156  -20.1741  -56.5006 H         1 UNK         0.0600 
    232 H232       -1.3715  -18.4793  -53.9720 H         1 UNK         0.0600 
    233 H233       -0.6859  -18.1376  -55.5525 H         1 UNK         0.0600 
    234 H234       -0.1471  -19.5456  -54.6533 H         1 UNK         0.0600 
    235 H235       -4.5522  -20.5429  -55.6051 H         1 UNK         0.3000 
    236 H236       -6.5814  -19.8288  -55.9752 H         1 UNK         0.0600 
    237 H237       -7.1145  -18.1601  -57.6815 H         1 UNK         0.0600 
    238 H238       -5.4781  -17.5232  -57.6595 H         1 UNK         0.0600 
    239 H239       -5.7880  -19.1518  -58.2617 H         1 UNK         0.0600 
    240 H240       -4.9518  -18.8514  -53.6635 H         1 UNK         0.3000 
    241 H241       -6.9291  -16.8949  -52.7008 H         1 UNK         0.0600 
    242 H242       -5.4299  -19.7079  -50.2325 H         1 UNK         0.3800 
    243 H243       -4.7138  -19.5669  -51.8246 H         1 UNK         0.3800 
    244 H244       -5.1284  -15.4988  -51.6128 H         1 UNK         0.0800 
    245 H245       -5.2404  -15.3796  -53.3366 H         1 UNK         0.0800 
    246 H246       -3.1314  -17.7473  -50.7126 H         1 UNK         0.0800 
    247 H247       -3.1033  -16.0363  -50.3604 H         1 UNK         0.0800 
@<TRIPOS>BOND
     1    1    2 1    
     2    1  127 1    
     3    1  128 1    
     4    1  129 1    
     5    2    3 2    
     6    2    4 am   BACKBONE|DICT|INTERRES
     7    4    5 1    
     8    4  130 1    
     9    5    6 1    
    10    5   65 1    
    11    5  131 1    
    12    6    7 1    
    13    6  132 1    
    14    6  133 1    
    15    7    8 1    
    16    8    9 1    
    17    8  134 1    
    18    8  135 1    
    19    9   10 ar   
    20    9   14 ar   
    21   10   11 ar   
    22   10  136 1    
    23   11   12 ar   
    24   11  126 1    
    25   12   13 ar   
    26   12  137 1    
    27   13   14 ar   
    28   13   15 1    
    29   14  138 1    
    30   15   16 1    
    31   15  139 1    
    32   15  140 1    
    33   16   17 1    
    34   17   18 1    
    35   17  141 1    
    36   17  142 1    
    37   18   19 1    
    38   18   67 1    
    39   18  143 1    
    40   19   20 am   BACKBONE|DICT|INTERRES
    41   19  144 1    
    42   20   21 2    
    43   20   22 1    
    44   22   23 1    
    45   22   24 1    
    46   22  145 1    
    47   23  146 1    
    48   23  147 1    
    49   23  148 1    
    50   24   25 am   BACKBONE|DICT|INTERRES
    51   24  149 1    
    52   25   26 2    
    53   25   27 1    
    54   27   28 1    
    55   27   29 1    
    56   27  150 1    
    57   28  151 1    
    58   28  152 1    
    59   28  153 1    
    60   29   30 am   BACKBONE|DICT|INTERRES
    61   29  154 1    
    62   30   31 2    
    63   30   32 1    
    64   32   33 1    
    65   32   34 1    
    66   32  155 1    
    67   33  156 1    
    68   33  157 1    
    69   33  158 1    
    70   34   35 am   BACKBONE|DICT|INTERRES
    71   34  159 1    
    72   35   36 2    
    73   35   37 1    
    74   37   38 1    
    75   37   39 1    
    76   37  160 1    
    77   38  161 1    
    78   38  162 1    
    79   38  163 1    
    80   39   40 am   BACKBONE|DICT|INTERRES
    81   39  164 1    
    82   40   41 2    
    83   40   42 1    
    84   42   43 1    
    85   42   44 1    
    86   42  165 1    
    87   43  166 1    
    88   43  167 1    
    89   43  168 1    
    90   44   45 am   BACKBONE|DICT|INTERRES
    91   44  169 1    
    92   45   46 2    
    93   45   47 1    
    94   47   48 1    
    95   47   49 1    
    96   47  170 1    
    97   48  171 1    
    98   48  172 1    
    99   48  173 1    
   100   49   50 am   BACKBONE|DICT|INTERRES
   101   49  174 1    
   102   50   51 2    
   103   50   52 1    
   104   52   53 1    
   105   52   54 1    
   106   52  175 1    
   107   53  176 1    
   108   53  177 1    
   109   53  178 1    
   110   54   55 am   BACKBONE|DICT|INTERRES
   111   54  179 1    
   112   55   56 2    
   113   55   57 1    
   114   57   58 1    
   115   57   59 1    
   116   57  180 1    
   117   58  181 1    
   118   58  182 1    
   119   58  183 1    
   120   59   60 am   BACKBONE|DICT|INTERRES
   121   59  184 1    
   122   60   61 2    
   123   60   62 1    
   124   62   63 1    
   125   62   64 1    
   126   62  185 1    
   127   63  186 1    
   128   63  187 1    
   129   63  188 1    
   130   64   65 am   BACKBONE|DICT|INTERRES
   131   64  189 1    
   132   65   66 2    
   133   67   68 2    
   134   67   69 am   BACKBONE|DICT|INTERRES
   135   69   70 1    
   136   69  190 1    
   137   70   71 1    
   138   70   72 1    
   139   70  191 1    
   140   71  192 1    
   141   71  193 1    
   142   71  194 1    
   143   72   73 2    
   144   72   74 am   BACKBONE|DICT|INTERRES
   145   74   75 1    
   146   74  195 1    
   147   75   76 1    
   148   75   77 1    
   149   75  196 1    
   150   76  197 1    
   151   76  198 1    
   152   76  199 1    
   153   77   78 2    
   154   77   79 am   BACKBONE|DICT|INTERRES
   155   79   80 1    
   156   79  200 1    
   157   80   81 1    
   158   80   82 1    
   159   80  201 1    
   160   81  202 1    
   161   81  203 1    
   162   81  204 1    
   163   82   83 2    
   164   82   84 am   BACKBONE|DICT|INTERRES
   165   84   85 1    
   166   84  205 1    
   167   85   86 1    
   168   85   87 1    
   169   85  206 1    
   170   86  207 1    
   171   86  208 1    
   172   86  209 1    
   173   87   88 2    
   174   87   89 am   BACKBONE|DICT|INTERRES
   175   89   90 1    
   176   89  210 1    
   177   90   91 1    
   178   90   92 1    
   179   90  211 1    
   180   91  212 1    
   181   91  213 1    
   182   91  214 1    
   183   92   93 2    
   184   92   94 am   BACKBONE|DICT|INTERRES
   185   94   95 1    
   186   94  215 1    
   187   95   96 1    
   188   95   97 1    
   189   95  216 1    
   190   96  217 1    
   191   96  218 1    
   192   96  219 1    
   193   97   98 2    
   194   97   99 am   BACKBONE|DICT|INTERRES
   195   99  100 1    
   196   99  220 1    
   197  100  101 1    
   198  100  102 1    
   199  100  221 1    
   200  101  222 1    
   201  101  223 1    
   202  101  224 1    
   203  102  103 2    
   204  102  104 am   BACKBONE|DICT|INTERRES
   205  104  105 1    
   206  104  225 1    
   207  105  106 1    
   208  105  107 1    
   209  105  226 1    
   210  106  227 1    
   211  106  228 1    
   212  106  229 1    
   213  107  108 2    
   214  107  109 am   BACKBONE|DICT|INTERRES
   215  109  110 1    
   216  109  230 1    
   217  110  111 1    
   218  110  112 1    
   219  110  231 1    
   220  111  232 1    
   221  111  233 1    
   222  111  234 1    
   223  112  113 2    
   224  112  114 am   BACKBONE|DICT|INTERRES
   225  114  115 1    
   226  114  235 1    
   227  115  116 1    
   228  115  117 1    
   229  115  236 1    
   230  116  237 1    
   231  116  238 1    
   232  116  239 1    
   233  117  118 2    
   234  117  119 am   BACKBONE|DICT|INTERRES
   235  119  120 1    
   236  119  240 1    
   237  120  121 1    
   238  120  124 1    
   239  120  241 1    
   240  121  122 am   BACKBONE|DICT|INTERRES
   241  121  123 2    
   242  122  242 1    
   243  122  243 1    
   244  124  125 1    
   245  124  244 1    
   246  124  245 1    
   247  125  126 1    
   248  126  246 1    
   249  126  247 1    
@<TRIPOS>SUBSTRUCTURE
     1 UNK         1 GROUP             0       ****    0 ROOT    
