@<TRIPOS>MOLECULE
3R540
247   249    1
SMALL
USER_CHARGES


@<TRIPOS>ATOM
      1 CA          6.7000  -15.6835  -43.3003 C.3       0 UNK        -0.1800 
      2 C           5.2364  -15.6421  -43.7151 C.2       0 UNK         0.5000 
      3 O           4.3628  -15.9611  -42.9113 O.2       0 UNK        -0.5000 
      4 N           4.9660  -15.2387  -44.9626 N.am      1 UNK        -0.5000 
      5 CA          3.6257  -15.1871  -45.5654 C.3       1 UNK         0.1400 
      6 C6          3.6805  -15.1798  -47.1152 C.3       23 UNK        -0.0398 
      7 S7          4.6942  -16.5239  -47.8182 S.3       23 UNK        -0.2404 
      8 C8          4.2391  -16.4234  -49.5778 C.3       23 UNK        -0.0205 
      9 C9          2.9741  -17.2109  -49.8858 C.ar      23 UNK        -0.0193 
     10 C10         1.7340  -16.5720  -49.9652 C.ar      23 UNK        -0.1150 
     11 C11         0.5733  -17.2929  -50.2680 C.ar      23 UNK        -0.0193 
     12 C12         0.6648  -18.6755  -50.4779 C.ar      23 UNK        -0.1150 
     13 C13         1.9029  -19.3227  -50.4148 C.ar      23 UNK        -0.0193 
     14 C14         3.0511  -18.5854  -50.1174 C.ar      23 UNK        -0.1150 
     15 C15         2.0183  -20.8145  -50.6829 C.3       23 UNK        -0.0205 
     16 S16         1.9893  -21.7718  -49.1387 S.3       23 UNK        -0.2404 
     17 C17         0.1996  -21.8581  -48.8251 C.3       23 UNK        -0.0398 
     18 CA         -0.1286  -22.9074  -47.7419 C.3       11 UNK         0.1400 
     19 N           0.3429  -22.4864  -46.4249 N.am      11 UNK        -0.5000 
     20 C           0.3886  -23.2332  -45.3165 C.2       10 UNK         0.5000 
     21 O           0.0306  -24.4116  -45.2839 O.2       10 UNK        -0.5000 
     22 CA          0.8362  -22.5252  -44.0197 C.3       10 UNK         0.1400 
     23 CB          1.8714  -23.3490  -43.2292 C.3       10 UNK        -0.1800 
     24 N           1.2707  -21.1354  -44.2302 N.am      10 UNK        -0.5000 
     25 C           2.3944  -20.6799  -44.8077 C.2       9 UNK         0.5000 
     26 O           3.3242  -21.3983  -45.1725 O.2       9 UNK        -0.5000 
     27 CA          2.4700  -19.1602  -45.0744 C.3       9 UNK         0.1400 
     28 CB          2.1755  -18.8827  -46.5568 C.3       9 UNK        -0.1800 
     29 N           1.5444  -18.3676  -44.2609 N.am      9 UNK        -0.5000 
     30 C           1.6408  -18.2016  -42.9331 C.2       8 UNK         0.5000 
     31 O           2.5314  -18.6941  -42.2405 O.2       8 UNK        -0.5000 
     32 CA          0.5129  -17.3974  -42.2646 C.3       8 UNK         0.1400 
     33 CB          0.7471  -15.8862  -42.4122 C.3       8 UNK        -0.1800 
     34 N          -0.7933  -17.7501  -42.8234 N.am      8 UNK        -0.5000 
     35 C          -1.4561  -18.8811  -42.5381 C.2       7 UNK         0.5000 
     36 O          -1.0611  -19.7202  -41.7292 O.2       7 UNK        -0.5000 
     37 CA         -2.7637  -19.1357  -43.3114 C.3       7 UNK         0.1400 
     38 CB         -3.9541  -18.4729  -42.6031 C.3       7 UNK        -0.1800 
     39 N          -2.6970  -18.6567  -44.6916 N.am      7 UNK        -0.5000 
     40 C          -1.9427  -19.2107  -45.6500 C.2       6 UNK         0.5000 
     41 O          -1.3064  -20.2516  -45.4978 O.2       6 UNK        -0.5000 
     42 CA         -1.8739  -18.4813  -47.0032 C.3       6 UNK         0.1400 
     43 CB         -2.8172  -19.1419  -48.0091 C.3       6 UNK        -0.1800 
     44 N          -2.1791  -17.0525  -46.9058 N.am      6 UNK        -0.5000 
     45 C          -1.3858  -16.1743  -46.2808 C.2       5 UNK         0.5000 
     46 O          -0.3416  -16.4939  -45.7062 O.2       5 UNK        -0.5000 
     47 CA         -1.8548  -14.7155  -46.2570 C.3       5 UNK         0.1400 
     48 CB         -2.1107  -14.2510  -44.8144 C.3       5 UNK        -0.1800 
     49 N          -0.8167  -13.8818  -46.8431 N.am      5 UNK        -0.5000 
     50 C          -0.7973  -13.4514  -48.1082 C.2       4 UNK         0.5000 
     51 O          -1.6942  -13.6786  -48.9216 O.2       4 UNK        -0.5000 
     52 CA          0.4346  -12.6137  -48.5120 C.3       4 UNK         0.1400 
     53 CB          0.3363  -12.0347  -49.9381 C.3       4 UNK        -0.1800 
     54 N           0.7371  -11.5579  -47.5383 N.am      4 UNK        -0.5000 
     55 C          -0.0629  -10.5613  -47.1289 C.2       3 UNK         0.5000 
     56 O          -1.1851  -10.3508  -47.5921 O.2       3 UNK        -0.5000 
     57 CA          0.4820   -9.6648  -45.9918 C.3       3 UNK         0.1400 
     58 CB         -0.6020   -8.7591  -45.3789 C.3       3 UNK        -0.1800 
     59 N           1.0927  -10.4519  -44.9165 N.am      3 UNK        -0.5000 
     60 C           2.3412  -10.9338  -44.9197 C.2       2 UNK         0.5000 
     61 O           3.1420  -10.7178  -45.8318 O.2       2 UNK        -0.5000 
     62 CA          2.7629  -11.8550  -43.7536 C.3       2 UNK         0.1400 
     63 CB          1.6323  -12.1705  -42.7466 C.3       2 UNK        -0.1800 
     64 N           3.3593  -13.0961  -44.2593 N.am      2 UNK        -0.5000 
     65 C           2.7767  -13.9939  -45.0697 C.2       1 UNK         0.5000 
     66 O           1.6152  -13.8900  -45.4624 O.2       1 UNK        -0.5000 
     67 C          -1.6305  -23.2453  -47.7531 C.2       11 UNK         0.5000 
     68 O          -2.0424  -24.0720  -48.5658 O.2       11 UNK        -0.5000 
     69 N          -2.4161  -22.6347  -46.8541 N.am      12 UNK        -0.5000 
     70 CA         -3.8343  -22.9473  -46.6642 C.3       12 UNK         0.1400 
     71 CB         -4.4925  -21.8669  -45.7928 C.3       12 UNK        -0.1800 
     72 C          -4.0471  -24.3404  -46.0433 C.2       12 UNK         0.5000 
     73 O          -4.9862  -25.0381  -46.4253 O.2       12 UNK        -0.5000 
     74 N          -3.1592  -24.7252  -45.1156 N.am      13 UNK        -0.5000 
     75 CA         -3.1623  -26.0331  -44.4600 C.3       13 UNK         0.1400 
     76 CB         -2.3728  -25.9482  -43.1443 C.3       13 UNK        -0.1800 
     77 C          -2.5894  -27.1289  -45.3746 C.2       13 UNK         0.5000 
     78 O          -3.1281  -28.2355  -45.4118 O.2       13 UNK        -0.5000 
     79 N          -1.5215  -26.7929  -46.1116 N.am      14 UNK        -0.5000 
     80 CA         -0.8587  -27.6790  -47.0710 C.3       14 UNK         0.1400 
     81 CB          0.5342  -27.1099  -47.3828 C.3       14 UNK        -0.1800 
     82 C          -1.6506  -27.8872  -48.3786 C.2       14 UNK         0.5000 
     83 O          -1.3449  -28.8251  -49.1157 O.2       14 UNK        -0.5000 
     84 N          -2.6204  -27.0003  -48.6541 N.am      15 UNK        -0.5000 
     85 CA         -3.3936  -26.8772  -49.8970 C.3       15 UNK         0.1400 
     86 CB         -4.2825  -28.1162  -50.1312 C.3       15 UNK        -0.1800 
     87 C          -2.4933  -26.5283  -51.1031 C.2       15 UNK         0.5000 
     88 O          -2.6880  -27.0426  -52.2056 O.2       15 UNK        -0.5000 
     89 N          -1.5102  -25.6569  -50.8493 N.am      16 UNK        -0.5000 
     90 CA         -0.4689  -25.2329  -51.7849 C.3       16 UNK         0.1400 
     91 CB          0.8870  -25.3263  -51.0648 C.3       16 UNK        -0.1800 
     92 C          -0.7003  -23.8052  -52.3155 C.2       16 UNK         0.5000 
     93 O           0.0868  -23.3371  -53.1382 O.2       16 UNK        -0.5000 
     94 N          -1.7523  -23.1258  -51.8326 N.am      17 UNK        -0.5000 
     95 CA         -2.0921  -21.7456  -52.1926 C.3       17 UNK         0.1400 
     96 CB         -3.1730  -21.2297  -51.2286 C.3       17 UNK        -0.1800 
     97 C          -2.5497  -21.5801  -53.6549 C.2       17 UNK         0.5000 
     98 O          -2.3653  -20.5034  -54.2219 O.2       17 UNK        -0.5000 
     99 N          -3.1441  -22.6426  -54.2250 N.am      18 UNK        -0.5000 
    100 CA        -3.6918  -22.7323  -55.5883 C.3       18 UNK         0.1400 
    101 CB        -2.5582  -22.6713  -56.6332 C.3       18 UNK        -0.1800 
    102 C         -4.8193  -21.7110  -55.8678 C.2       18 UNK         0.5000 
    103 O         -5.0179  -21.2957  -57.0110 O.2       18 UNK        -0.5000 
    104 N         -5.5348  -21.3284  -54.8066 N.am      19 UNK        -0.5000 
    105 CA        -6.5765  -20.3127  -54.7474 C.3       19 UNK         0.1400 
    106 CB        -5.9597  -18.9114  -54.9400 C.3       19 UNK        -0.1800 
    107 C         -7.2504  -20.4280  -53.3718 C.2       19 UNK         0.5000 
    108 O         -6.7763  -21.1843  -52.5164 O.2       19 UNK        -0.5000 
    109 N         -8.3220  -19.6546  -53.1616 N.am      20 UNK        -0.5000 
    110 CA        -9.0473  -19.5358  -51.8945 C.3       20 UNK         0.1400 
    111 CB       -10.4172  -18.8899  -52.1683 C.3       20 UNK        -0.1800 
    112 C         -8.2259  -18.7529  -50.8481 C.2       20 UNK         0.5000 
    113 O         -8.5063  -17.5817  -50.5862 O.2       20 UNK        -0.5000 
    114 N         -7.1803  -19.4045  -50.3204 N.am      21 UNK        -0.5000 
    115 CA        -6.2136  -18.9063  -49.3342 C.3       21 UNK         0.1400 
    116 CB        -6.8850  -18.7521  -47.9536 C.3       21 UNK        -0.1800 
    117 C         -5.4702  -17.6289  -49.7892 C.2       21 UNK         0.5000 
    118 O         -5.1571  -16.7690  -48.9640 O.2       21 UNK        -0.5000 
    119 N         -5.2172  -17.5389  -51.1022 N.am      22 UNK        -0.5000 
    120 CA        -4.6762  -16.3697  -51.8201 C.3       22 UNK         0.1400 
    121 C         -5.6613  -15.1624  -51.9248 C.2       22 UNK         0.5000 
    122 N         -6.9343  -15.2920  -51.5679 N.am      22 UNK        -0.7600 
    123 O         -5.2772  -14.0881  -52.3789 O.2       22 UNK        -0.5000 
    124 C124       -3.2627  -15.9287  -51.3422 C.3       23 UNK        -0.0398 
    125 S125       -1.9982  -17.2381  -51.4714 S.3       23 UNK        -0.2404 
    126 C126       -0.7543  -16.5420  -50.3330 C.3       23 UNK        -0.0205 
    127 H127        7.3602  -15.3691  -44.1090 H         1 UNK         0.0600 
    128 H128        6.8676  -15.0248  -42.4482 H         1 UNK         0.0600 
    129 H129        6.9779  -16.6965  -43.0093 H         1 UNK         0.0600 
    130 H130        5.7281  -14.9986  -45.5811 H         1 UNK         0.3000 
    131 H131        3.0904  -16.0879  -45.2595 H         1 UNK         0.0600 
    132 H132        4.0766  -14.2312  -47.4825 H         1 UNK         0.0800 
    133 H133        2.6712  -15.2722  -47.5196 H         1 UNK         0.0800 
    134 H134        5.0632  -16.8197  -50.1729 H         1 UNK         0.0800 
    135 H135        4.1281  -15.3798  -49.8764 H         1 UNK         0.0800 
    136 H136        1.6736  -15.5066  -49.7955 H         1 UNK         0.1150 
    137 H137       -0.2226  -19.2499  -50.6992 H         1 UNK         0.1150 
    138 H138        4.0086  -19.0842  -50.0618 H         1 UNK         0.1150 
    139 H139        1.2288  -21.1518  -51.3558 H         1 UNK         0.0800 
    140 H140        2.9571  -21.0186  -51.1998 H         1 UNK         0.0800 
    141 H141       -0.1641  -20.8700  -48.5399 H         1 UNK         0.0800 
    142 H142       -0.2884  -22.1093  -49.7659 H         1 UNK         0.0800 
    143 H143        0.3957  -23.8309  -47.9903 H         1 UNK         0.0600 
    144 H144        0.6012  -21.5156  -46.3332 H         1 UNK         0.3000 
    145 H145       -0.0598  -22.4543  -43.4014 H         1 UNK         0.0600 
    146 H146        2.1822  -22.8282  -42.3235 H         1 UNK         0.0600 
    147 H147        1.4516  -24.3083  -42.9244 H         1 UNK         0.0600 
    148 H148        2.7623  -23.5616  -43.8201 H         1 UNK         0.0600 
    149 H149        0.5647  -20.4431  -44.0181 H         1 UNK         0.3000 
    150 H150        3.4855  -18.8254  -44.8527 H         1 UNK         0.0600 
    151 H151        2.1223  -17.8152  -46.7684 H         1 UNK         0.0600 
    152 H152        1.2338  -19.3296  -46.8714 H         1 UNK         0.0600 
    153 H153        2.9578  -19.3008  -47.1913 H         1 UNK         0.0600 
    154 H154        0.8053  -17.8783  -44.7557 H         1 UNK         0.3000 
    155 H155        0.5141  -17.6354  -41.1986 H         1 UNK         0.0600 
    156 H156       -0.0285  -15.3128  -41.9047 H         1 UNK         0.0600 
    157 H157        0.7601  -15.5803  -43.4574 H         1 UNK         0.0600 
    158 H158        1.7044  -15.5959  -41.9776 H         1 UNK         0.0600 
    159 H159       -1.1558  -17.1378  -43.5395 H         1 UNK         0.3000 
    160 H160       -2.9336  -20.2141  -43.3275 H         1 UNK         0.0600 
    161 H161       -3.8519  -17.3874  -42.5707 H         1 UNK         0.0600 
    162 H162       -4.0415  -18.8256  -41.5746 H         1 UNK         0.0600 
    163 H163       -4.8920  -18.7077  -43.1068 H         1 UNK         0.0600 
    164 H164       -3.2132  -17.8181  -44.9105 H         1 UNK         0.3000 
    165 H165       -0.8571  -18.5810  -47.3847 H         1 UNK         0.0600 
    166 H166       -3.8500  -19.0628  -47.6772 H         1 UNK         0.0600 
    167 H167       -2.7351  -18.6814  -48.9923 H         1 UNK         0.0600 
    168 H168       -2.5886  -20.1995  -48.1279 H         1 UNK         0.0600 
    169 H169       -3.0251  -16.7333  -47.3599 H         1 UNK         0.3000 
    170 H170       -2.7866  -14.6203  -46.8187 H         1 UNK         0.0600 
    171 H171       -2.8627  -14.8732  -44.3278 H         1 UNK         0.0600 
    172 H172       -1.2044  -14.2920  -44.2091 H         1 UNK         0.0600 
    173 H173       -2.4747  -13.2237  -44.7942 H         1 UNK         0.0600 
    174 H174        0.0155  -13.7486  -46.2691 H         1 UNK         0.3000 
    175 H175        1.2845  -13.2969  -48.4942 H         1 UNK         0.0600 
    176 H176        1.2366  -11.4793  -50.2006 H         1 UNK         0.0600 
    177 H177        0.2198  -12.8305  -50.6748 H         1 UNK         0.0600 
    178 H178       -0.5158  -11.3629  -50.0454 H         1 UNK         0.0600 
    179 H179        1.6340  -11.6350  -47.0742 H         1 UNK         0.3000 
    180 H180        1.2404   -9.0161  -46.4348 H         1 UNK         0.0600 
    181 H181       -0.1871   -8.1201  -44.5992 H         1 UNK         0.0600 
    182 H182       -1.0389   -8.1032  -46.1330 H         1 UNK         0.0600 
    183 H183       -1.4121   -9.3424  -44.9394 H         1 UNK         0.0600 
    184 H184        0.4818  -10.7157  -44.1573 H         1 UNK         0.3000 
    185 H185        3.5508  -11.3265  -43.2155 H         1 UNK         0.0600 
    186 H186        1.9940  -12.8225  -41.9514 H         1 UNK         0.0600 
    187 H187        1.2629  -11.2625  -42.2686 H         1 UNK         0.0600 
    188 H188        0.7849  -12.6705  -43.2173 H         1 UNK         0.0600 
    189 H189        4.3282  -13.2482  -44.0198 H         1 UNK         0.3000 
    190 H190       -2.0033  -21.9425  -46.2364 H         1 UNK         0.3000 
    191 H191       -4.3219  -22.9395  -47.6417 H         1 UNK         0.0600 
    192 H192       -5.5458  -22.0920  -45.6205 H         1 UNK         0.0600 
    193 H193       -4.4498  -20.8900  -46.2708 H         1 UNK         0.0600 
    194 H194       -4.0107  -21.7878  -44.8182 H         1 UNK         0.0600 
    195 H195       -2.3913  -24.1094  -44.8927 H         1 UNK         0.3000 
    196 H196       -4.1930  -26.3017  -44.2178 H         1 UNK         0.0600 
    197 H197       -2.3866  -26.9048  -42.6205 H         1 UNK         0.0600 
    198 H198       -2.8040  -25.2049  -42.4735 H         1 UNK         0.0600 
    199 H199       -1.3286  -25.6825  -43.3118 H         1 UNK         0.0600 
    200 H200       -1.0934  -25.8843  -45.9600 H         1 UNK         0.3000 
    201 H201       -0.7308  -28.6577  -46.6039 H         1 UNK         0.0600 
    202 H202        1.1204  -26.9748  -46.4735 H         1 UNK         0.0600 
    203 H203        0.4688  -26.1461  -47.8862 H         1 UNK         0.0600 
    204 H204        1.0946  -27.7811  -48.0347 H         1 UNK         0.0600 
    205 H205       -2.7541  -26.2478  -47.9924 H         1 UNK         0.3000 
    206 H206       -4.0556  -26.0216  -49.7561 H         1 UNK         0.0600 
    207 H207       -4.8967  -28.3302  -49.2565 H         1 UNK         0.0600 
    208 H208       -4.9590  -27.9561  -50.9714 H         1 UNK         0.0600 
    209 H209       -3.6931  -29.0059  -50.3537 H         1 UNK         0.0600 
    210 H210       -1.4889  -25.2366  -49.9239 H         1 UNK         0.3000 
    211 H211       -0.4437  -25.9000  -52.6487 H         1 UNK         0.0600 
    212 H212        0.9402  -24.6462  -50.2149 H         1 UNK         0.0600 
    213 H213        1.7080  -25.0743  -51.7371 H         1 UNK         0.0600 
    214 H214        1.0684  -26.3365  -50.6970 H         1 UNK         0.0600 
    215 H215       -2.3454  -23.5823  -51.1545 H         1 UNK         0.3000 
    216 H216       -1.1982  -21.1330  -52.0601 H         1 UNK         0.0600 
    217 H217       -3.3960  -20.1787  -51.4181 H         1 UNK         0.0600 
    218 H218       -2.8478  -21.3118  -50.1926 H         1 UNK         0.0600 
    219 H219       -4.1051  -21.7869  -51.3309 H         1 UNK         0.0600 
    220 H220       -3.2422  -23.4750  -53.6615 H         1 UNK         0.3000 
    221 H221       -4.1550  -23.7168  -55.6652 H         1 UNK         0.0600 
    222 H222       -2.0903  -21.6870  -56.6656 H         1 UNK         0.0600 
    223 H223       -1.7816  -23.4044  -56.4150 H         1 UNK         0.0600 
    224 H224       -2.9347  -22.8872  -57.6337 H         1 UNK         0.0600 
    225 H225       -5.3483  -21.7547  -53.9068 H         1 UNK         0.3000 
    226 H226       -7.3206  -20.5100  -55.5213 H         1 UNK         0.0600 
    227 H227       -6.7085  -18.1246  -54.8433 H         1 UNK         0.0600 
    228 H228       -5.1776  -18.7169  -54.2053 H         1 UNK         0.0600 
    229 H229       -5.5153  -18.8050  -55.9295 H         1 UNK         0.0600 
    230 H230       -8.6359  -19.0487  -53.9060 H         1 UNK         0.3000 
    231 H231       -9.2257  -20.5368  -51.4956 H         1 UNK         0.0600 
    232 H232      -10.9904  -18.7852  -51.2462 H         1 UNK         0.0600 
    233 H233      -11.0104  -19.4991  -52.8505 H         1 UNK         0.0600 
    234 H234      -10.3166  -17.8965  -52.6075 H         1 UNK         0.0600 
    235 H235       -6.9893  -20.3286  -50.6955 H         1 UNK         0.3000 
    236 H236       -5.4550  -19.6849  -49.2496 H         1 UNK         0.0600 
    237 H237       -7.6429  -17.9681  -47.9603 H         1 UNK         0.0600 
    238 H238       -7.3653  -19.6802  -47.6440 H         1 UNK         0.0600 
    239 H239       -6.1571  -18.4946  -47.1837 H         1 UNK         0.0600 
    240 H240       -5.5171  -18.3033  -51.6872 H         1 UNK         0.3000 
    241 H241       -4.5637  -16.7043  -52.8515 H         1 UNK         0.0600 
    242 H242       -7.5481  -14.4986  -51.6605 H         1 UNK         0.3800 
    243 H243       -7.3027  -16.1584  -51.1891 H         1 UNK         0.3800 
    244 H244       -3.3047  -15.5651  -50.3148 H         1 UNK         0.0800 
    245 H245       -2.9038  -15.0879  -51.9380 H         1 UNK         0.0800 
    246 H246       -0.5687  -15.5110  -50.6380 H         1 UNK         0.0800 
    247 H247       -1.1766  -16.4970  -49.3316 H         1 UNK         0.0800 
@<TRIPOS>BOND
     1    1    2 1    
     2    1  127 1    
     3    1  128 1    
     4    1  129 1    
     5    2    3 2    
     6    2    4 am   BACKBONE|DICT|INTERRES
     7    4    5 1    
     8    4  130 1    
     9    5    6 1    
    10    5   65 1    
    11    5  131 1    
    12    6    7 1    
    13    6  132 1    
    14    6  133 1    
    15    7    8 1    
    16    8    9 1    
    17    8  134 1    
    18    8  135 1    
    19    9   10 ar   
    20    9   14 ar   
    21   10   11 ar   
    22   10  136 1    
    23   11   12 ar   
    24   11  126 1    
    25   12   13 ar   
    26   12  137 1    
    27   13   14 ar   
    28   13   15 1    
    29   14  138 1    
    30   15   16 1    
    31   15  139 1    
    32   15  140 1    
    33   16   17 1    
    34   17   18 1    
    35   17  141 1    
    36   17  142 1    
    37   18   19 1    
    38   18   67 1    
    39   18  143 1    
    40   19   20 am   BACKBONE|DICT|INTERRES
    41   19  144 1    
    42   20   21 2    
    43   20   22 1    
    44   22   23 1    
    45   22   24 1    
    46   22  145 1    
    47   23  146 1    
    48   23  147 1    
    49   23  148 1    
    50   24   25 am   BACKBONE|DICT|INTERRES
    51   24  149 1    
    52   25   26 2    
    53   25   27 1    
    54   27   28 1    
    55   27   29 1    
    56   27  150 1    
    57   28  151 1    
    58   28  152 1    
    59   28  153 1    
    60   29   30 am   BACKBONE|DICT|INTERRES
    61   29  154 1    
    62   30   31 2    
    63   30   32 1    
    64   32   33 1    
    65   32   34 1    
    66   32  155 1    
    67   33  156 1    
    68   33  157 1    
    69   33  158 1    
    70   34   35 am   BACKBONE|DICT|INTERRES
    71   34  159 1    
    72   35   36 2    
    73   35   37 1    
    74   37   38 1    
    75   37   39 1    
    76   37  160 1    
    77   38  161 1    
    78   38  162 1    
    79   38  163 1    
    80   39   40 am   BACKBONE|DICT|INTERRES
    81   39  164 1    
    82   40   41 2    
    83   40   42 1    
    84   42   43 1    
    85   42   44 1    
    86   42  165 1    
    87   43  166 1    
    88   43  167 1    
    89   43  168 1    
    90   44   45 am   BACKBONE|DICT|INTERRES
    91   44  169 1    
    92   45   46 2    
    93   45   47 1    
    94   47   48 1    
    95   47   49 1    
    96   47  170 1    
    97   48  171 1    
    98   48  172 1    
    99   48  173 1    
   100   49   50 am   BACKBONE|DICT|INTERRES
   101   49  174 1    
   102   50   51 2    
   103   50   52 1    
   104   52   53 1    
   105   52   54 1    
   106   52  175 1    
   107   53  176 1    
   108   53  177 1    
   109   53  178 1    
   110   54   55 am   BACKBONE|DICT|INTERRES
   111   54  179 1    
   112   55   56 2    
   113   55   57 1    
   114   57   58 1    
   115   57   59 1    
   116   57  180 1    
   117   58  181 1    
   118   58  182 1    
   119   58  183 1    
   120   59   60 am   BACKBONE|DICT|INTERRES
   121   59  184 1    
   122   60   61 2    
   123   60   62 1    
   124   62   63 1    
   125   62   64 1    
   126   62  185 1    
   127   63  186 1    
   128   63  187 1    
   129   63  188 1    
   130   64   65 am   BACKBONE|DICT|INTERRES
   131   64  189 1    
   132   65   66 2    
   133   67   68 2    
   134   67   69 am   BACKBONE|DICT|INTERRES
   135   69   70 1    
   136   69  190 1    
   137   70   71 1    
   138   70   72 1    
   139   70  191 1    
   140   71  192 1    
   141   71  193 1    
   142   71  194 1    
   143   72   73 2    
   144   72   74 am   BACKBONE|DICT|INTERRES
   145   74   75 1    
   146   74  195 1    
   147   75   76 1    
   148   75   77 1    
   149   75  196 1    
   150   76  197 1    
   151   76  198 1    
   152   76  199 1    
   153   77   78 2    
   154   77   79 am   BACKBONE|DICT|INTERRES
   155   79   80 1    
   156   79  200 1    
   157   80   81 1    
   158   80   82 1    
   159   80  201 1    
   160   81  202 1    
   161   81  203 1    
   162   81  204 1    
   163   82   83 2    
   164   82   84 am   BACKBONE|DICT|INTERRES
   165   84   85 1    
   166   84  205 1    
   167   85   86 1    
   168   85   87 1    
   169   85  206 1    
   170   86  207 1    
   171   86  208 1    
   172   86  209 1    
   173   87   88 2    
   174   87   89 am   BACKBONE|DICT|INTERRES
   175   89   90 1    
   176   89  210 1    
   177   90   91 1    
   178   90   92 1    
   179   90  211 1    
   180   91  212 1    
   181   91  213 1    
   182   91  214 1    
   183   92   93 2    
   184   92   94 am   BACKBONE|DICT|INTERRES
   185   94   95 1    
   186   94  215 1    
   187   95   96 1    
   188   95   97 1    
   189   95  216 1    
   190   96  217 1    
   191   96  218 1    
   192   96  219 1    
   193   97   98 2    
   194   97   99 am   BACKBONE|DICT|INTERRES
   195   99  100 1    
   196   99  220 1    
   197  100  101 1    
   198  100  102 1    
   199  100  221 1    
   200  101  222 1    
   201  101  223 1    
   202  101  224 1    
   203  102  103 2    
   204  102  104 am   BACKBONE|DICT|INTERRES
   205  104  105 1    
   206  104  225 1    
   207  105  106 1    
   208  105  107 1    
   209  105  226 1    
   210  106  227 1    
   211  106  228 1    
   212  106  229 1    
   213  107  108 2    
   214  107  109 am   BACKBONE|DICT|INTERRES
   215  109  110 1    
   216  109  230 1    
   217  110  111 1    
   218  110  112 1    
   219  110  231 1    
   220  111  232 1    
   221  111  233 1    
   222  111  234 1    
   223  112  113 2    
   224  112  114 am   BACKBONE|DICT|INTERRES
   225  114  115 1    
   226  114  235 1    
   227  115  116 1    
   228  115  117 1    
   229  115  236 1    
   230  116  237 1    
   231  116  238 1    
   232  116  239 1    
   233  117  118 2    
   234  117  119 am   BACKBONE|DICT|INTERRES
   235  119  120 1    
   236  119  240 1    
   237  120  121 1    
   238  120  124 1    
   239  120  241 1    
   240  121  122 am   BACKBONE|DICT|INTERRES
   241  121  123 2    
   242  122  242 1    
   243  122  243 1    
   244  124  125 1    
   245  124  244 1    
   246  124  245 1    
   247  125  126 1    
   248  126  246 1    
   249  126  247 1    
@<TRIPOS>SUBSTRUCTURE
     1 UNK         1 GROUP             0       ****    0 ROOT    
