@<TRIPOS>MOLECULE
3R540
247   249    1
SMALL
USER_CHARGES


@<TRIPOS>ATOM
      1 CA          5.3322  -12.1402  -53.3097 C.3       0 UNK        -0.1800 
      2 C           5.2875  -12.1266  -51.7881 C.2       0 UNK         0.5000 
      3 O           6.3187  -11.9276  -51.1451 O.2       0 UNK        -0.5000 
      4 N           4.1008  -12.3328  -51.2121 N.am      1 UNK        -0.5000 
      5 CA          3.8447  -12.3609  -49.7736 C.3       1 UNK         0.1400 
      6 C6          4.3311  -13.6670  -49.0842 C.3       23 UNK        -0.0398 
      7 S7          3.7719  -15.2115  -49.8868 S.3       23 UNK        -0.2404 
      8 C8          2.4145  -15.7071  -48.7874 C.3       23 UNK        -0.0205 
      9 C9          1.4243  -16.5983  -49.5142 C.ar      23 UNK        -0.0193 
     10 C10         0.4692  -16.0243  -50.3578 C.ar      23 UNK        -0.1150 
     11 C11        -0.4873  -16.8121  -51.0035 C.ar      23 UNK        -0.0193 
     12 C12        -0.4711  -18.1982  -50.7920 C.ar      23 UNK        -0.1150 
     13 C13         0.4873  -18.7867  -49.9617 C.ar      23 UNK        -0.0193 
     14 C14         1.4380  -17.9827  -49.3281 C.ar      23 UNK        -0.1150 
     15 C15         0.4953  -20.2930  -49.7633 C.3       23 UNK        -0.0205 
     16 S16        -0.1989  -20.7714  -48.1529 S.3       23 UNK        -0.2404 
     17 C17        -0.5510  -22.5222  -48.5132 C.3       23 UNK        -0.0398 
     18 CA         -1.0856  -23.3559  -47.3278 C.3       11 UNK         0.1400 
     19 N          -0.0828  -23.5090  -46.2687 N.am      11 UNK        -0.5000 
     20 C          -0.1426  -24.3855  -45.2555 C.2       10 UNK         0.5000 
     21 O          -1.0639  -25.1870  -45.1044 O.2       10 UNK        -0.5000 
     22 CA          0.9832  -24.3233  -44.2053 C.3       10 UNK         0.1400 
     23 CB          2.0474  -25.3900  -44.5034 C.3       10 UNK        -0.1800 
     24 N           1.6332  -23.0122  -44.1011 N.am      10 UNK        -0.5000 
     25 C           1.0211  -21.8732  -43.7474 C.2       9 UNK         0.5000 
     26 O          -0.1829  -21.8009  -43.4915 O.2       9 UNK        -0.5000 
     27 CA          1.9125  -20.6163  -43.7317 C.3       9 UNK         0.1400 
     28 CB          2.2035  -20.1447  -45.1665 C.3       9 UNK        -0.1800 
     29 N           1.3249  -19.5044  -42.9881 N.am      9 UNK        -0.5000 
     30 C           1.1490  -19.4542  -41.6619 C.2       8 UNK         0.5000 
     31 O           1.5091  -20.3431  -40.8883 O.2       8 UNK        -0.5000 
     32 CA          0.4729  -18.1884  -41.1007 C.3       8 UNK         0.1400 
     33 CB          1.5162  -17.0980  -40.8114 C.3       8 UNK        -0.1800 
     34 N          -0.5457  -17.6527  -42.0045 N.am      8 UNK        -0.5000 
     35 C          -1.7889  -18.1406  -42.1139 C.2       7 UNK         0.5000 
     36 O          -2.2293  -19.0472  -41.4065 O.2       7 UNK        -0.5000 
     37 CA         -2.7047  -17.5051  -43.1798 C.3       7 UNK         0.1400 
     38 CB         -3.5309  -16.3636  -42.5683 C.3       7 UNK        -0.1800 
     39 N          -1.9804  -16.9978  -44.3447 N.am      7 UNK        -0.5000 
     40 C          -1.3319  -17.7604  -45.2360 C.2       6 UNK         0.5000 
     41 O          -1.3067  -18.9879  -45.1958 O.2       6 UNK        -0.5000 
     42 CA         -0.5448  -17.0151  -46.3304 C.3       6 UNK         0.1400 
     43 CB         -1.4876  -16.5573  -47.4547 C.3       6 UNK        -0.1800 
     44 N           0.1894  -15.8609  -45.8023 N.am      6 UNK        -0.5000 
     45 C           1.1509  -15.9288  -44.8697 C.2       5 UNK         0.5000 
     46 O           1.5650  -16.9828  -44.3932 O.2       5 UNK        -0.5000 
     47 CA          1.6988  -14.5983  -44.3282 C.3       5 UNK         0.1400 
     48 CB          2.8437  -14.0668  -45.2032 C.3       5 UNK        -0.1800 
     49 N           0.6429  -13.5933  -44.2166 N.am      5 UNK        -0.5000 
     50 C          -0.2970  -13.5970  -43.2597 C.2       4 UNK         0.5000 
     51 O          -0.3213  -14.4051  -42.3315 O.2       4 UNK        -0.5000 
     52 CA         -1.4186  -12.5472  -43.3831 C.3       4 UNK         0.1400 
     53 CB         -0.9933  -11.2233  -42.7311 C.3       4 UNK        -0.1800 
     54 N          -1.8069  -12.2978  -44.7727 N.am      4 UNK        -0.5000 
     55 C          -2.3996  -13.1999  -45.5684 C.2       3 UNK         0.5000 
     56 O          -2.7542  -14.3125  -45.1828 O.2       3 UNK        -0.5000 
     57 CA         -2.5742  -12.8172  -47.0533 C.3       3 UNK         0.1400 
     58 CB         -3.9602  -12.2012  -47.2926 C.3       3 UNK        -0.1800 
     59 N          -1.5422  -11.8976  -47.5464 N.am      3 UNK        -0.5000 
     60 C          -0.2320  -12.1753  -47.5854 C.2       2 UNK         0.5000 
     61 O           0.2420  -13.2514  -47.2177 O.2       2 UNK        -0.5000 
     62 CA          0.6949  -11.0221  -48.0087 C.3       2 UNK         0.1400 
     63 CB          0.8354  -10.0145  -46.8551 C.3       2 UNK        -0.1800 
     64 N           2.0357  -11.4751  -48.3831 N.am      2 UNK        -0.5000 
     65 C           2.3509  -12.0596  -49.5450 C.2       1 UNK         0.5000 
     66 O           1.5286  -12.3179  -50.4292 O.2       1 UNK        -0.5000 
     67 C          -2.4702  -22.8744  -46.8304 C.2       11 UNK         0.5000 
     68 O          -3.4380  -22.9301  -47.5896 O.2       11 UNK        -0.5000 
     69 N          -2.5700  -22.4594  -45.5595 N.am      12 UNK        -0.5000 
     70 CA         -3.8329  -22.2305  -44.8592 C.3       12 UNK         0.1400 
     71 CB         -3.5366  -21.5405  -43.5213 C.3       12 UNK        -0.1800 
     72 C          -4.6456  -23.5226  -44.6272 C.2       12 UNK         0.5000 
     73 O          -5.8547  -23.4349  -44.4092 O.2       12 UNK        -0.5000 
     74 N          -3.9847  -24.6883  -44.6728 N.am      13 UNK        -0.5000 
     75 CA         -4.5827  -26.0045  -44.4590 C.3       13 UNK         0.1400 
     76 CB         -4.4504  -26.3856  -42.9720 C.3       13 UNK        -0.1800 
     77 C          -3.9722  -27.0573  -45.4047 C.2       13 UNK         0.5000 
     78 O          -3.8872  -28.2310  -45.0376 O.2       13 UNK        -0.5000 
     79 N          -3.5603  -26.6361  -46.6070 N.am      14 UNK        -0.5000 
     80 CA         -2.9745  -27.4898  -47.6368 C.3       14 UNK         0.1400 
     81 CB         -1.4696  -27.6839  -47.3719 C.3       14 UNK        -0.1800 
     82 C          -3.2065  -26.8569  -49.0137 C.2       14 UNK         0.5000 
     83 O          -3.4085  -25.6463  -49.1064 O.2       14 UNK        -0.5000 
     84 N          -3.1335  -27.6830  -50.0636 N.am      15 UNK        -0.5000 
     85 CA         -3.3026  -27.2796  -51.4640 C.3       15 UNK         0.1400 
     86 CB         -3.7297  -28.5114  -52.2789 C.3       15 UNK        -0.1800 
     87 C          -2.0486  -26.6241  -52.0820 C.2       15 UNK         0.5000 
     88 O          -2.0904  -26.2356  -53.2509 O.2       15 UNK        -0.5000 
     89 N          -0.9577  -26.5251  -51.3072 N.am      16 UNK        -0.5000 
     90 CA          0.3218  -25.9152  -51.6746 C.3       16 UNK         0.1400 
     91 CB          1.2475  -25.9320  -50.4481 C.3       16 UNK        -0.1800 
     92 C           0.1539  -24.4795  -52.2045 C.2       16 UNK         0.5000 
     93 O          -0.5023  -23.6683  -51.5504 O.2       16 UNK        -0.5000 
     94 N           0.7074  -24.2141  -53.3962 N.am      17 UNK        -0.5000 
     95 CA          0.6132  -22.9532  -54.1471 C.3       17 UNK         0.1400 
     96 CB          1.4162  -21.8424  -53.4384 C.3       17 UNK        -0.1800 
     97 C          -0.8397  -22.5294  -54.4727 C.2       17 UNK         0.5000 
     98 O          -1.1204  -21.3353  -54.5746 O.2       17 UNK        -0.5000 
     99 N          -1.7285  -23.5243  -54.6273 N.am      18 UNK        -0.5000 
    100 CA        -3.1795  -23.4112  -54.8194 C.3       18 UNK         0.1400 
    101 CB        -3.5275  -22.6325  -56.1064 C.3       18 UNK        -0.1800 
    102 C         -3.9241  -22.8907  -53.5694 C.2       18 UNK         0.5000 
    103 O         -5.0119  -22.3263  -53.7011 O.2       18 UNK        -0.5000 
    104 N         -3.3383  -23.1313  -52.3859 N.am      19 UNK        -0.5000 
    105 CA        -3.7874  -22.7408  -51.0465 C.3       19 UNK         0.1400 
    106 CB        -5.2078  -23.2693  -50.7506 C.3       19 UNK        -0.1800 
    107 C         -3.6699  -21.2244  -50.7851 C.2       19 UNK         0.5000 
    108 O         -3.3660  -20.4434  -51.6866 O.2       19 UNK        -0.5000 
    109 N         -3.9345  -20.8261  -49.5350 N.am      20 UNK        -0.5000 
    110 CA        -3.9057  -19.4399  -49.0529 C.3       20 UNK         0.1400 
    111 CB        -3.9046  -19.4538  -47.5164 C.3       20 UNK        -0.1800 
    112 C         -5.0500  -18.5430  -49.5761 C.2       20 UNK         0.5000 
    113 O         -5.1070  -17.3696  -49.2059 O.2       20 UNK        -0.5000 
    114 N         -5.9434  -19.0903  -50.4139 N.am      21 UNK        -0.5000 
    115 CA        -7.1213  -18.4366  -50.9971 C.3       21 UNK         0.1400 
    116 CB        -7.8564  -19.4556  -51.8814 C.3       21 UNK        -0.1800 
    117 C         -6.8287  -17.1448  -51.7908 C.2       21 UNK         0.5000 
    118 O         -7.7171  -16.3019  -51.9221 O.2       21 UNK        -0.5000 
    119 N         -5.5916  -17.0007  -52.2791 N.am      22 UNK        -0.5000 
    120 CA        -5.0321  -15.7627  -52.8425 C.3       22 UNK         0.1400 
    121 C         -4.8292  -14.6016  -51.8214 C.2       22 UNK         0.5000 
    122 N         -4.8820  -14.8299  -50.5142 N.am      22 UNK        -0.7600 
    123 O         -4.6292  -13.4608  -52.2290 O.2       22 UNK        -0.5000 
    124 C124       -3.7416  -16.0329  -53.6669 C.3       23 UNK        -0.0398 
    125 S125       -2.5731  -17.2078  -52.8936 S.3       23 UNK        -0.2404 
    126 C126       -1.5247  -16.1085  -51.8819 C.3       23 UNK        -0.0205 
    127 H127        6.0109  -12.9189  -53.6578 H         1 UNK         0.0600 
    128 H128        5.6907  -11.1812  -53.6838 H         1 UNK         0.0600 
    129 H129        4.3491  -12.3284  -53.7420 H         1 UNK         0.0600 
    130 H130        3.2674  -12.4700  -51.7712 H         1 UNK         0.3000 
    131 H131        4.3947  -11.5272  -49.3311 H         1 UNK         0.0600 
    132 H132        5.4215  -13.6832  -49.0929 H         1 UNK         0.0800 
    133 H133        4.0583  -13.6746  -48.0287 H         1 UNK         0.0800 
    134 H134        2.8183  -16.2084  -47.9064 H         1 UNK         0.0800 
    135 H135        1.8885  -14.8244  -48.4262 H         1 UNK         0.0800 
    136 H136        0.4623  -14.9514  -50.4956 H         1 UNK         0.1150 
    137 H137       -1.2029  -18.8356  -51.2659 H         1 UNK         0.1150 
    138 H138        2.1742  -18.4340  -48.6779 H         1 UNK         0.1150 
    139 H139       -0.0831  -20.7713  -50.5555 H         1 UNK         0.0800 
    140 H140        1.5136  -20.6748  -49.8495 H         1 UNK         0.0800 
    141 H141       -1.2637  -22.5523  -49.3341 H         1 UNK         0.0800 
    142 H142        0.3587  -22.9828  -48.9006 H         1 UNK         0.0800 
    143 H143       -1.2637  -24.3586  -47.7206 H         1 UNK         0.0600 
    144 H144        0.6872  -22.8570  -46.2925 H         1 UNK         0.3000 
    145 H145        0.5340  -24.5482  -43.2358 H         1 UNK         0.0600 
    146 H146        2.8036  -25.4243  -43.7191 H         1 UNK         0.0600 
    147 H147        1.5991  -26.3829  -44.5635 H         1 UNK         0.0600 
    148 H148        2.5527  -25.2006  -45.4513 H         1 UNK         0.0600 
    149 H149        2.6221  -22.9899  -44.3048 H         1 UNK         0.3000 
    150 H150        2.8579  -20.8782  -43.2526 H         1 UNK         0.0600 
    151 H151        2.6520  -20.9362  -45.7677 H         1 UNK         0.0600 
    152 H152        2.8983  -19.3047  -45.1713 H         1 UNK         0.0600 
    153 H153        1.2927  -19.8238  -45.6724 H         1 UNK         0.0600 
    154 H154        1.0380  -18.7043  -43.5413 H         1 UNK         0.3000 
    155 H155       -0.0022  -18.4555  -40.1543 H         1 UNK         0.0600 
    156 H156        2.2621  -17.4522  -40.0990 H         1 UNK         0.0600 
    157 H157        1.0506  -16.2105  -40.3821 H         1 UNK         0.0600 
    158 H158        2.0449  -16.7939  -41.7148 H         1 UNK         0.0600 
    159 H159       -0.2697  -16.8875  -42.6043 H         1 UNK         0.3000 
    160 H160       -3.3964  -18.2752  -43.5261 H         1 UNK         0.0600 
    161 H161       -2.8950  -15.5466  -42.2257 H         1 UNK         0.0600 
    162 H162       -4.1082  -16.7134  -41.7116 H         1 UNK         0.0600 
    163 H163       -4.2371  -15.9564  -43.2923 H         1 UNK         0.0600 
    164 H164       -2.0157  -15.9949  -44.5013 H         1 UNK         0.3000 
    165 H165        0.1900  -17.7030  -46.7523 H         1 UNK         0.0600 
    166 H166       -2.4208  -16.1449  -47.0718 H         1 UNK         0.0600 
    167 H167       -1.0270  -15.7966  -48.0824 H         1 UNK         0.0600 
    168 H168       -1.7455  -17.3977  -48.0978 H         1 UNK         0.0600 
    169 H169       -0.0478  -14.9509  -46.1823 H         1 UNK         0.3000 
    170 H170        2.1037  -14.7869  -43.3315 H         1 UNK         0.0600 
    171 H171        3.6505  -14.7974  -45.2731 H         1 UNK         0.0600 
    172 H172        2.5134  -13.8489  -46.2168 H         1 UNK         0.0600 
    173 H173        3.2668  -13.1533  -44.7854 H         1 UNK         0.0600 
    174 H174        0.5546  -12.9471  -44.9878 H         1 UNK         0.3000 
    175 H175       -2.2915  -12.9285  -42.8488 H         1 UNK         0.0600 
    176 H176       -0.1364  -10.7794  -43.2396 H         1 UNK         0.0600 
    177 H177       -1.8064  -10.4972  -42.7464 H         1 UNK         0.0600 
    178 H178       -0.7139  -11.3748  -41.6876 H         1 UNK         0.0600 
    179 H179       -1.5603  -11.4007  -45.1626 H         1 UNK         0.3000 
    180 H180       -2.5056  -13.7351  -47.6397 H         1 UNK         0.0600 
    181 H181       -4.0843  -11.2646  -46.7475 H         1 UNK         0.0600 
    182 H182       -4.7497  -12.8790  -46.9650 H         1 UNK         0.0600 
    183 H183       -4.1254  -11.9990  -48.3510 H         1 UNK         0.0600 
    184 H184       -1.8602  -10.9882  -47.8494 H         1 UNK         0.3000 
    185 H185        0.2449  -10.5160  -48.8656 H         1 UNK         0.0600 
    186 H186        1.2709  -10.4754  -45.9673 H         1 UNK         0.0600 
    187 H187        1.4698   -9.1751  -47.1409 H         1 UNK         0.0600 
    188 H188       -0.1318   -9.5998  -46.5687 H         1 UNK         0.0600 
    189 H189        2.7617  -11.3137  -47.7009 H         1 UNK         0.3000 
    190 H190       -1.7277  -22.3762  -45.0019 H         1 UNK         0.3000 
    191 H191       -4.4442  -21.5599  -45.4638 H         1 UNK         0.0600 
    192 H192       -2.9636  -22.1857  -42.8541 H         1 UNK         0.0600 
    193 H193       -4.4575  -21.2653  -43.0061 H         1 UNK         0.0600 
    194 H194       -2.9601  -20.6289  -43.6724 H         1 UNK         0.0600 
    195 H195       -2.9850  -24.6906  -44.8572 H         1 UNK         0.3000 
    196 H196       -5.6451  -25.9681  -44.7078 H         1 UNK         0.0600 
    197 H197       -4.9355  -27.3398  -42.7629 H         1 UNK         0.0600 
    198 H198       -4.9193  -25.6397  -42.3300 H         1 UNK         0.0600 
    199 H199       -3.4044  -26.4731  -42.6758 H         1 UNK         0.0600 
    200 H200       -3.7076  -25.6743  -46.8884 H         1 UNK         0.3000 
    201 H201       -3.4742  -28.4608  -47.6242 H         1 UNK         0.0600 
    202 H202       -1.2925  -28.1160  -46.3869 H         1 UNK         0.0600 
    203 H203       -0.9264  -26.7401  -47.4210 H         1 UNK         0.0600 
    204 H204       -1.0237  -28.3577  -48.1041 H         1 UNK         0.0600 
    205 H205       -2.9485  -28.6634  -49.9039 H         1 UNK         0.3000 
    206 H206       -4.1060  -26.5422  -51.5211 H         1 UNK         0.0600 
    207 H207       -4.6473  -28.9473  -51.8833 H         1 UNK         0.0600 
    208 H208       -3.9223  -28.2479  -53.3198 H         1 UNK         0.0600 
    209 H209       -2.9600  -29.2841  -52.2731 H         1 UNK         0.0600 
    210 H210       -1.0337  -26.8615  -50.3605 H         1 UNK         0.3000 
    211 H211        0.7684  -26.5335  -52.4556 H         1 UNK         0.0600 
    212 H212        2.2136  -25.4820  -50.6806 H         1 UNK         0.0600 
    213 H213        1.4374  -26.9509  -50.1102 H         1 UNK         0.0600 
    214 H214        0.8189  -25.3768  -49.6128 H         1 UNK         0.0600 
    215 H215        1.2100  -24.9554  -53.8649 H         1 UNK         0.3000 
    216 H216        1.0911  -23.1369  -55.1103 H         1 UNK         0.0600 
    217 H217        1.4723  -20.9435  -54.0535 H         1 UNK         0.0600 
    218 H218        2.4390  -22.1608  -53.2377 H         1 UNK         0.0600 
    219 H219        0.9611  -21.5601  -52.4903 H         1 UNK         0.0600 
    220 H220       -1.4016  -24.4719  -54.4803 H         1 UNK         0.3000 
    221 H221       -3.5326  -24.4335  -54.9614 H         1 UNK         0.0600 
    222 H222       -4.5885  -22.7238  -56.3409 H         1 UNK         0.0600 
    223 H223       -2.9731  -23.0156  -56.9630 H         1 UNK         0.0600 
    224 H224       -3.3088  -21.5688  -56.0105 H         1 UNK         0.0600 
    225 H225       -2.4070  -23.5310  -52.4044 H         1 UNK         0.3000 
    226 H226       -3.1071  -23.2426  -50.3604 H         1 UNK         0.0600 
    227 H227       -5.2974  -24.3240  -51.0103 H         1 UNK         0.0600 
    228 H228       -5.4419  -23.1846  -49.6890 H         1 UNK         0.0600 
    229 H229       -5.9744  -22.7200  -51.2974 H         1 UNK         0.0600 
    230 H230       -4.1038  -21.5402  -48.8321 H         1 UNK         0.3000 
    231 H231       -2.9713  -18.9889  -49.3904 H         1 UNK         0.0600 
    232 H232       -3.8657  -18.4440  -47.1066 H         1 UNK         0.0600 
    233 H233       -3.0369  -19.9849  -47.1280 H         1 UNK         0.0600 
    234 H234       -4.8022  -19.9305  -47.1229 H         1 UNK         0.0600 
    235 H235       -5.7952  -20.0525  -50.6781 H         1 UNK         0.3000 
    236 H236       -7.7793  -18.1612  -50.1708 H         1 UNK         0.0600 
    237 H237       -7.2251  -19.8041  -52.7002 H         1 UNK         0.0600 
    238 H238       -8.1694  -20.3265  -51.3051 H         1 UNK         0.0600 
    239 H239       -8.7543  -19.0189  -52.3208 H         1 UNK         0.0600 
    240 H240       -4.9246  -17.7444  -52.1248 H         1 UNK         0.3000 
    241 H241       -5.7754  -15.3824  -53.5459 H         1 UNK         0.0600 
    242 H242       -4.7654  -14.0586  -49.8792 H         1 UNK         0.3800 
    243 H243       -5.0259  -15.7659  -50.1419 H         1 UNK         0.3800 
    244 H244       -4.0294  -16.4702  -54.6236 H         1 UNK         0.0800 
    245 H245       -3.2211  -15.1082  -53.9233 H         1 UNK         0.0800 
    246 H246       -1.0150  -15.4101  -52.5471 H         1 UNK         0.0800 
    247 H247       -2.1612  -15.5125  -51.2285 H         1 UNK         0.0800 
@<TRIPOS>BOND
     1    1    2 1    
     2    1  127 1    
     3    1  128 1    
     4    1  129 1    
     5    2    3 2    
     6    2    4 am   BACKBONE|DICT|INTERRES
     7    4    5 1    
     8    4  130 1    
     9    5    6 1    
    10    5   65 1    
    11    5  131 1    
    12    6    7 1    
    13    6  132 1    
    14    6  133 1    
    15    7    8 1    
    16    8    9 1    
    17    8  134 1    
    18    8  135 1    
    19    9   10 ar   
    20    9   14 ar   
    21   10   11 ar   
    22   10  136 1    
    23   11   12 ar   
    24   11  126 1    
    25   12   13 ar   
    26   12  137 1    
    27   13   14 ar   
    28   13   15 1    
    29   14  138 1    
    30   15   16 1    
    31   15  139 1    
    32   15  140 1    
    33   16   17 1    
    34   17   18 1    
    35   17  141 1    
    36   17  142 1    
    37   18   19 1    
    38   18   67 1    
    39   18  143 1    
    40   19   20 am   BACKBONE|DICT|INTERRES
    41   19  144 1    
    42   20   21 2    
    43   20   22 1    
    44   22   23 1    
    45   22   24 1    
    46   22  145 1    
    47   23  146 1    
    48   23  147 1    
    49   23  148 1    
    50   24   25 am   BACKBONE|DICT|INTERRES
    51   24  149 1    
    52   25   26 2    
    53   25   27 1    
    54   27   28 1    
    55   27   29 1    
    56   27  150 1    
    57   28  151 1    
    58   28  152 1    
    59   28  153 1    
    60   29   30 am   BACKBONE|DICT|INTERRES
    61   29  154 1    
    62   30   31 2    
    63   30   32 1    
    64   32   33 1    
    65   32   34 1    
    66   32  155 1    
    67   33  156 1    
    68   33  157 1    
    69   33  158 1    
    70   34   35 am   BACKBONE|DICT|INTERRES
    71   34  159 1    
    72   35   36 2    
    73   35   37 1    
    74   37   38 1    
    75   37   39 1    
    76   37  160 1    
    77   38  161 1    
    78   38  162 1    
    79   38  163 1    
    80   39   40 am   BACKBONE|DICT|INTERRES
    81   39  164 1    
    82   40   41 2    
    83   40   42 1    
    84   42   43 1    
    85   42   44 1    
    86   42  165 1    
    87   43  166 1    
    88   43  167 1    
    89   43  168 1    
    90   44   45 am   BACKBONE|DICT|INTERRES
    91   44  169 1    
    92   45   46 2    
    93   45   47 1    
    94   47   48 1    
    95   47   49 1    
    96   47  170 1    
    97   48  171 1    
    98   48  172 1    
    99   48  173 1    
   100   49   50 am   BACKBONE|DICT|INTERRES
   101   49  174 1    
   102   50   51 2    
   103   50   52 1    
   104   52   53 1    
   105   52   54 1    
   106   52  175 1    
   107   53  176 1    
   108   53  177 1    
   109   53  178 1    
   110   54   55 am   BACKBONE|DICT|INTERRES
   111   54  179 1    
   112   55   56 2    
   113   55   57 1    
   114   57   58 1    
   115   57   59 1    
   116   57  180 1    
   117   58  181 1    
   118   58  182 1    
   119   58  183 1    
   120   59   60 am   BACKBONE|DICT|INTERRES
   121   59  184 1    
   122   60   61 2    
   123   60   62 1    
   124   62   63 1    
   125   62   64 1    
   126   62  185 1    
   127   63  186 1    
   128   63  187 1    
   129   63  188 1    
   130   64   65 am   BACKBONE|DICT|INTERRES
   131   64  189 1    
   132   65   66 2    
   133   67   68 2    
   134   67   69 am   BACKBONE|DICT|INTERRES
   135   69   70 1    
   136   69  190 1    
   137   70   71 1    
   138   70   72 1    
   139   70  191 1    
   140   71  192 1    
   141   71  193 1    
   142   71  194 1    
   143   72   73 2    
   144   72   74 am   BACKBONE|DICT|INTERRES
   145   74   75 1    
   146   74  195 1    
   147   75   76 1    
   148   75   77 1    
   149   75  196 1    
   150   76  197 1    
   151   76  198 1    
   152   76  199 1    
   153   77   78 2    
   154   77   79 am   BACKBONE|DICT|INTERRES
   155   79   80 1    
   156   79  200 1    
   157   80   81 1    
   158   80   82 1    
   159   80  201 1    
   160   81  202 1    
   161   81  203 1    
   162   81  204 1    
   163   82   83 2    
   164   82   84 am   BACKBONE|DICT|INTERRES
   165   84   85 1    
   166   84  205 1    
   167   85   86 1    
   168   85   87 1    
   169   85  206 1    
   170   86  207 1    
   171   86  208 1    
   172   86  209 1    
   173   87   88 2    
   174   87   89 am   BACKBONE|DICT|INTERRES
   175   89   90 1    
   176   89  210 1    
   177   90   91 1    
   178   90   92 1    
   179   90  211 1    
   180   91  212 1    
   181   91  213 1    
   182   91  214 1    
   183   92   93 2    
   184   92   94 am   BACKBONE|DICT|INTERRES
   185   94   95 1    
   186   94  215 1    
   187   95   96 1    
   188   95   97 1    
   189   95  216 1    
   190   96  217 1    
   191   96  218 1    
   192   96  219 1    
   193   97   98 2    
   194   97   99 am   BACKBONE|DICT|INTERRES
   195   99  100 1    
   196   99  220 1    
   197  100  101 1    
   198  100  102 1    
   199  100  221 1    
   200  101  222 1    
   201  101  223 1    
   202  101  224 1    
   203  102  103 2    
   204  102  104 am   BACKBONE|DICT|INTERRES
   205  104  105 1    
   206  104  225 1    
   207  105  106 1    
   208  105  107 1    
   209  105  226 1    
   210  106  227 1    
   211  106  228 1    
   212  106  229 1    
   213  107  108 2    
   214  107  109 am   BACKBONE|DICT|INTERRES
   215  109  110 1    
   216  109  230 1    
   217  110  111 1    
   218  110  112 1    
   219  110  231 1    
   220  111  232 1    
   221  111  233 1    
   222  111  234 1    
   223  112  113 2    
   224  112  114 am   BACKBONE|DICT|INTERRES
   225  114  115 1    
   226  114  235 1    
   227  115  116 1    
   228  115  117 1    
   229  115  236 1    
   230  116  237 1    
   231  116  238 1    
   232  116  239 1    
   233  117  118 2    
   234  117  119 am   BACKBONE|DICT|INTERRES
   235  119  120 1    
   236  119  240 1    
   237  120  121 1    
   238  120  124 1    
   239  120  241 1    
   240  121  122 am   BACKBONE|DICT|INTERRES
   241  121  123 2    
   242  122  242 1    
   243  122  243 1    
   244  124  125 1    
   245  124  244 1    
   246  124  245 1    
   247  125  126 1    
   248  126  246 1    
   249  126  247 1    
@<TRIPOS>SUBSTRUCTURE
     1 UNK         1 GROUP             0       ****    0 ROOT    
