@<TRIPOS>MOLECULE
3R540
247   249    1
SMALL
USER_CHARGES


@<TRIPOS>ATOM
      1 CA         -4.4988  -14.8255  -49.5943 C.3       0 UNK        -0.1800 
      2 C          -3.3989  -13.8544  -49.1895 C.2       0 UNK         0.5000 
      3 O          -3.6896  -12.7240  -48.7978 O.2       0 UNK        -0.5000 
      4 N          -2.1364  -14.2886  -49.2760 N.am      1 UNK        -0.5000 
      5 CA         -0.9141  -13.5299  -48.9716 C.3       1 UNK         0.1400 
      6 C6          0.3100  -14.0938  -49.7447 C.3       23 UNK        -0.0398 
      7 S7          0.4982  -15.9065  -49.6264 S.3       23 UNK        -0.2404 
      8 C8          1.8367  -16.1845  -50.8243 C.3       23 UNK        -0.0205 
      9 C9          1.9639  -17.6639  -51.1425 C.ar      23 UNK        -0.0193 
     10 C10         1.4159  -18.1829  -52.3178 C.ar      23 UNK        -0.1150 
     11 C11         1.4894  -19.5512  -52.5908 C.ar      23 UNK        -0.0193 
     12 C12         2.1101  -20.4042  -51.6724 C.ar      23 UNK        -0.1150 
     13 C13         2.6600  -19.8975  -50.4890 C.ar      23 UNK        -0.0193 
     14 C14         2.6009  -18.5212  -50.2434 C.ar      23 UNK        -0.1150 
     15 C15         3.3050  -20.8468  -49.4820 C.3       23 UNK        -0.0205 
     16 S16         2.8887  -20.4777  -47.7405 S.3       23 UNK        -0.2404 
     17 C17         1.0732  -20.6621  -47.7276 C.3       23 UNK        -0.0398 
     18 CA          0.6228  -22.0104  -47.1201 C.3       11 UNK         0.1400 
     19 N           1.0000  -22.1423  -45.7152 N.am      11 UNK        -0.5000 
     20 C           1.0360  -23.2971  -45.0389 C.2       10 UNK         0.5000 
     21 O           0.7421  -24.3845  -45.5402 O.2       10 UNK        -0.5000 
     22 CA          1.4863  -23.2208  -43.5645 C.3       10 UNK         0.1400 
     23 CB          1.9336  -24.5830  -42.9938 C.3       10 UNK        -0.1800 
     24 N           2.5073  -22.1953  -43.3264 N.am      10 UNK        -0.5000 
     25 C           3.7434  -22.1334  -43.8459 C.2       9 UNK         0.5000 
     26 O           4.2164  -22.9798  -44.6054 O.2       9 UNK        -0.5000 
     27 CA          4.6114  -20.9270  -43.4360 C.3       9 UNK         0.1400 
     28 CB          4.7757  -19.9334  -44.5959 C.3       9 UNK        -0.1800 
     29 N           4.0943  -20.2229  -42.2578 N.am      9 UNK        -0.5000 
     30 C           4.3257  -20.6211  -40.9995 C.2       8 UNK         0.5000 
     31 O           4.9765  -21.6250  -40.7067 O.2       8 UNK        -0.5000 
     32 CA          3.7364  -19.7524  -39.8809 C.3       8 UNK         0.1400 
     33 CB          4.5526  -18.4614  -39.7053 C.3       8 UNK        -0.1800 
     34 N           2.3311  -19.4190  -40.1160 N.am      8 UNK        -0.5000 
     35 C           1.3109  -20.1929  -39.7210 C.2       7 UNK         0.5000 
     36 O           1.4519  -21.3285  -39.2657 O.2       7 UNK        -0.5000 
     37 CA         -0.0979  -19.5812  -39.7946 C.3       7 UNK         0.1400 
     38 CB         -0.2208  -18.3720  -38.8522 C.3       7 UNK        -0.1800 
     39 N          -0.4764  -19.1795  -41.1448 N.am      7 UNK        -0.5000 
     40 C          -0.9118  -20.0143  -42.0966 C.2       6 UNK         0.5000 
     41 O          -0.9970  -21.2331  -41.9535 O.2       6 UNK        -0.5000 
     42 CA         -1.3321  -19.3749  -43.4330 C.3       6 UNK         0.1400 
     43 CB         -2.7728  -18.8467  -43.3511 C.3       6 UNK        -0.1800 
     44 N          -0.4344  -18.2889  -43.8255 N.am      6 UNK        -0.5000 
     45 C           0.8176  -18.4821  -44.2597 C.2       5 UNK         0.5000 
     46 O           1.3115  -19.5964  -44.4238 O.2       5 UNK        -0.5000 
     47 CA          1.6730  -17.2290  -44.5166 C.3       5 UNK         0.1400 
     48 CB          1.5197  -16.7387  -45.9625 C.3       5 UNK        -0.1800 
     49 N           1.3594  -16.1403  -43.5913 N.am      5 UNK        -0.5000 
     50 C           1.6842  -16.1535  -42.2906 C.2       4 UNK         0.5000 
     51 O           2.2934  -17.0764  -41.7500 O.2       4 UNK        -0.5000 
     52 CA          1.2053  -14.9640  -41.4383 C.3       4 UNK         0.1400 
     53 CB          2.1832  -13.7859  -41.5561 C.3       4 UNK        -0.1800 
     54 N          -0.1423  -14.5133  -41.7888 N.am      4 UNK        -0.5000 
     55 C          -1.2473  -15.2674  -41.7029 C.2       3 UNK         0.5000 
     56 O          -1.2486  -16.4241  -41.2864 O.2       3 UNK        -0.5000 
     57 CA         -2.5663  -14.6467  -42.1986 C.3       3 UNK         0.1400 
     58 CB         -3.3662  -14.0765  -41.0182 C.3       3 UNK        -0.1800 
     59 N          -2.3851  -13.6007  -43.2091 N.am      3 UNK        -0.5000 
     60 C          -1.8684  -13.7963  -44.4297 C.2       2 UNK         0.5000 
     61 O          -1.4596  -14.8907  -44.8223 O.2       2 UNK        -0.5000 
     62 CA         -1.7931  -12.5419  -45.3210 C.3       2 UNK         0.1400 
     63 CB         -0.6668  -11.5948  -44.8575 C.3       2 UNK        -0.1800 
     64 N          -1.6924  -12.8358  -46.7543 N.am      2 UNK        -0.5000 
     65 C          -0.6683  -13.3489  -47.4510 C.2       1 UNK         0.5000 
     66 O           0.4236  -13.6361  -46.9586 O.2       1 UNK        -0.5000 
     67 C          -0.8967  -22.1921  -47.2820 C.2       11 UNK         0.5000 
     68 O          -1.6699  -21.3849  -46.7589 O.2       11 UNK        -0.5000 
     69 N          -1.2941  -23.2196  -48.0456 N.am      12 UNK        -0.5000 
     70 CA         -2.6878  -23.5195  -48.3862 C.3       12 UNK         0.1400 
     71 CB         -2.7467  -24.8340  -49.1786 C.3       12 UNK        -0.1800 
     72 C          -3.3686  -22.3887  -49.1772 C.2       12 UNK         0.5000 
     73 O          -4.5576  -22.1464  -48.9863 O.2       12 UNK        -0.5000 
     74 N          -2.5851  -21.6923  -50.0118 N.am      13 UNK        -0.5000 
     75 CA         -2.9891  -20.5186  -50.7857 C.3       13 UNK         0.1400 
     76 CB         -1.7897  -20.0662  -51.6280 C.3       13 UNK        -0.1800 
     77 C          -3.4853  -19.3631  -49.9031 C.2       13 UNK         0.5000 
     78 O          -4.5376  -18.7853  -50.1746 O.2       13 UNK        -0.5000 
     79 N          -2.7303  -19.0815  -48.8347 N.am      14 UNK        -0.5000 
     80 CA         -3.0491  -18.0592  -47.8450 C.3       14 UNK         0.1400 
     81 CB         -1.8139  -17.8079  -46.9754 C.3       14 UNK        -0.1800 
     82 C          -4.2605  -18.4444  -46.9824 C.2       14 UNK         0.5000 
     83 O          -5.0942  -17.5869  -46.6926 O.2       14 UNK        -0.5000 
     84 N          -4.3395  -19.7285  -46.6061 N.am      15 UNK        -0.5000 
     85 CA         -5.4287  -20.2914  -45.8102 C.3       15 UNK         0.1400 
     86 CB         -5.0318  -21.6960  -45.3312 C.3       15 UNK        -0.1800 
     87 C          -6.7701  -20.3219  -46.5680 C.2       15 UNK         0.5000 
     88 O          -7.7967  -19.9493  -45.9986 O.2       15 UNK        -0.5000 
     89 N          -6.7388  -20.7569  -47.8348 N.am      16 UNK        -0.5000 
     90 CA         -7.9110  -20.8519  -48.7069 C.3       16 UNK         0.1400 
     91 CB         -7.6196  -21.8633  -49.8275 C.3       16 UNK        -0.1800 
     92 C          -8.3284  -19.5036  -49.3211 C.2       16 UNK         0.5000 
     93 O          -9.4840  -19.3682  -49.7247 O.2       16 UNK        -0.5000 
     94 N          -7.3815  -18.5569  -49.4111 N.am      17 UNK        -0.5000 
     95 CA         -7.4573  -17.2933  -50.1524 C.3       17 UNK         0.1400 
     96 CB         -8.5119  -16.3431  -49.5489 C.3       17 UNK        -0.1800 
     97 C          -7.6417  -17.5550  -51.6618 C.2       17 UNK         0.5000 
     98 O          -8.5857  -17.0583  -52.2795 O.2       17 UNK        -0.5000 
     99 N          -6.7425  -18.3784  -52.2092 N.am      18 UNK        -0.5000 
    100 CA        -6.7489  -18.8749  -53.5825 C.3       18 UNK         0.1400 
    101 CB        -7.5412  -20.1953  -53.6278 C.3       18 UNK        -0.1800 
    102 C         -5.3003  -19.0719  -54.0574 C.2       18 UNK         0.5000 
    103 O         -4.3691  -18.8449  -53.2850 O.2       18 UNK        -0.5000 
    104 N         -5.1214  -19.4979  -55.3151 N.am      19 UNK        -0.5000 
    105 CA        -3.8073  -19.8337  -55.8729 C.3       19 UNK         0.1400 
    106 CB        -3.9038  -19.9485  -57.4017 C.3       19 UNK        -0.1800 
    107 C         -3.2276  -21.1250  -55.2667 C.2       19 UNK         0.5000 
    108 O         -2.0392  -21.1622  -54.9492 O.2       19 UNK        -0.5000 
    109 N         -4.0857  -22.1462  -55.1075 N.am      20 UNK        -0.5000 
    110 CA        -3.8059  -23.4684  -54.5347 C.3       20 UNK         0.1400 
    111 CB        -3.7741  -23.3732  -52.9939 C.3       20 UNK        -0.1800 
    112 C         -2.5445  -24.1184  -55.1466 C.2       20 UNK         0.5000 
    113 O         -2.5505  -24.4452  -56.3349 O.2       20 UNK        -0.5000 
    114 N         -1.4777  -24.2468  -54.3452 N.am      21 UNK        -0.5000 
    115 CA        -0.1662  -24.7779  -54.7247 C.3       21 UNK         0.1400 
    116 CB         0.7215  -24.8280  -53.4709 C.3       21 UNK        -0.1800 
    117 C          0.5432  -23.9941  -55.8488 C.2       21 UNK         0.5000 
    118 O          1.3666  -24.5767  -56.5559 O.2       21 UNK        -0.5000 
    119 N          0.2090  -22.7071  -56.0044 N.am      22 UNK        -0.5000 
    120 CA         0.6865  -21.8437  -57.0950 C.3       22 UNK         0.1400 
    121 C         -0.1674  -21.9600  -58.3940 C.2       22 UNK         0.5000 
    122 N         -1.2465  -22.7351  -58.4314 N.am      22 UNK        -0.7600 
    123 O          0.1636  -21.3404  -59.4012 O.2       22 UNK        -0.5000 
    124 C124        0.8180  -20.3644  -56.6464 C.3       23 UNK        -0.0398 
    125 S125        1.9872  -20.1168  -55.2626 S.3       23 UNK        -0.2404 
    126 C126        0.8431  -20.1051  -53.8504 C.3       23 UNK        -0.0205 
    127 H127       -4.1015  -15.6839  -50.1371 H         1 UNK         0.0600 
    128 H128       -5.0219  -15.1889  -48.7094 H         1 UNK         0.0600 
    129 H129       -5.2229  -14.3275  -50.2390 H         1 UNK         0.0600 
    130 H130       -1.9610  -15.2359  -49.5805 H         1 UNK         0.3000 
    131 H131       -1.0654  -12.5167  -49.3501 H         1 UNK         0.0600 
    132 H132        1.2380  -13.6117  -49.4323 H         1 UNK         0.0800 
    133 H133        0.1959  -13.8452  -50.8007 H         1 UNK         0.0800 
    134 H134        2.7755  -15.8065  -50.4170 H         1 UNK         0.0800 
    135 H135        1.6406  -15.6186  -51.7363 H         1 UNK         0.0800 
    136 H136        0.9150  -17.5246  -53.0137 H         1 UNK         0.1150 
    137 H137        2.1526  -21.4650  -51.8762 H         1 UNK         0.1150 
    138 H138        3.0197  -18.1162  -49.3330 H         1 UNK         0.1150 
    139 H139        3.0217  -21.8792  -49.6923 H         1 UNK         0.0800 
    140 H140        4.3878  -20.7932  -49.6005 H         1 UNK         0.0800 
    141 H141        0.6934  -20.5511  -48.7441 H         1 UNK         0.0800 
    142 H142        0.6552  -19.8290  -47.1608 H         1 UNK         0.0800 
    143 H143        1.1266  -22.8041  -47.6764 H         1 UNK         0.0600 
    144 H144        1.2289  -21.2776  -45.2297 H         1 UNK         0.3000 
    145 H145        0.6074  -22.9125  -43.0014 H         1 UNK         0.0600 
    146 H146        2.2349  -24.4923  -41.9501 H         1 UNK         0.0600 
    147 H147        1.1207  -25.3089  -43.0334 H         1 UNK         0.0600 
    148 H148        2.7721  -25.0017  -43.5507 H         1 UNK         0.0600 
    149 H149        2.2159  -21.4177  -42.7519 H         1 UNK         0.3000 
    150 H150        5.6053  -21.3154  -43.2028 H         1 UNK         0.0600 
    151 H151        5.2433  -20.4157  -45.4552 H         1 UNK         0.0600 
    152 H152        5.4083  -19.0924  -44.3119 H         1 UNK         0.0600 
    153 H153        3.8201  -19.5374  -44.9324 H         1 UNK         0.0600 
    154 H154        3.5438  -19.3904  -42.4167 H         1 UNK         0.3000 
    155 H155        3.8169  -20.3139  -38.9472 H         1 UNK         0.0600 
    156 H156        5.5903  -18.6892  -39.4587 H         1 UNK         0.0600 
    157 H157        4.1531  -17.8497  -38.8963 H         1 UNK         0.0600 
    158 H158        4.5595  -17.8549  -40.6111 H         1 UNK         0.0600 
    159 H159        2.1469  -18.5180  -40.5503 H         1 UNK         0.3000 
    160 H160       -0.8053  -20.3383  -39.4491 H         1 UNK         0.0600 
    161 H161        0.4157  -17.5443  -39.1674 H         1 UNK         0.0600 
    162 H162        0.0637  -18.6378  -37.8334 H         1 UNK         0.0600 
    163 H163       -1.2469  -18.0052  -38.8180 H         1 UNK         0.0600 
    164 H164       -0.5125  -18.1801  -41.3248 H         1 UNK         0.3000 
    165 H165       -1.2976  -20.1471  -44.2052 H         1 UNK         0.0600 
    166 H166       -3.4733  -19.6613  -43.1645 H         1 UNK         0.0600 
    167 H167       -3.0731  -18.3651  -44.2799 H         1 UNK         0.0600 
    168 H168       -2.8955  -18.1207  -42.5475 H         1 UNK         0.0600 
    169 H169       -0.7655  -17.3433  -43.6982 H         1 UNK         0.3000 
    170 H170        2.7174  -17.5095  -44.3695 H         1 UNK         0.0600 
    171 H171        2.2328  -15.9455  -46.1864 H         1 UNK         0.0600 
    172 H172        1.6960  -17.5441  -46.6767 H         1 UNK         0.0600 
    173 H173        0.5219  -16.3423  -46.1475 H         1 UNK         0.0600 
    174 H174        0.8118  -15.3738  -43.9593 H         1 UNK         0.3000 
    175 H175        1.1870  -15.2910  -40.3966 H         1 UNK         0.0600 
    176 H176        3.1952  -14.0905  -41.2858 H         1 UNK         0.0600 
    177 H177        2.2189  -13.3911  -42.5723 H         1 UNK         0.0600 
    178 H178        1.9014  -12.9712  -40.8888 H         1 UNK         0.0600 
    179 H179       -0.2317  -13.5735  -42.1447 H         1 UNK         0.3000 
    180 H180       -3.1515  -15.4497  -42.6516 H         1 UNK         0.0600 
    181 H181       -3.5393  -14.8403  -40.2587 H         1 UNK         0.0600 
    182 H182       -2.8419  -13.2493  -40.5383 H         1 UNK         0.0600 
    183 H183       -4.3428  -13.7149  -41.3407 H         1 UNK         0.0600 
    184 H184       -2.6967  -12.6748  -42.9526 H         1 UNK         0.3000 
    185 H185       -2.7404  -12.0131  -45.2053 H         1 UNK         0.0600 
    186 H186       -0.8506  -11.2321  -43.8457 H         1 UNK         0.0600 
    187 H187        0.3058  -12.0877  -44.8503 H         1 UNK         0.0600 
    188 H188       -0.5951  -10.7203  -45.5042 H         1 UNK         0.0600 
    189 H189       -2.5403  -12.6627  -47.2881 H         1 UNK         0.3000 
    190 H190       -0.5989  -23.8556  -48.4092 H         1 UNK         0.3000 
    191 H191       -3.2394  -23.6534  -47.4538 H         1 UNK         0.0600 
    192 H192       -2.3408  -25.6629  -48.5984 H         1 UNK         0.0600 
    193 H193       -2.1855  -24.7696  -50.1117 H         1 UNK         0.0600 
    194 H194       -3.7763  -25.0905  -49.4325 H         1 UNK         0.0600 
    195 H195       -1.6219  -21.9769  -50.0987 H         1 UNK         0.3000 
    196 H196       -3.8053  -20.8063  -51.4505 H         1 UNK         0.0600 
    197 H197       -2.0266  -19.1833  -52.2216 H         1 UNK         0.0600 
    198 H198       -1.4852  -20.8493  -52.3197 H         1 UNK         0.0600 
    199 H199       -0.9307  -19.8152  -51.0049 H         1 UNK         0.0600 
    200 H200       -1.9141  -19.6457  -48.6563 H         1 UNK         0.3000 
    201 H201       -3.2884  -17.1344  -48.3703 H         1 UNK         0.0600 
    202 H202       -2.0051  -17.0205  -46.2471 H         1 UNK         0.0600 
    203 H203       -1.5191  -18.7015  -46.4263 H         1 UNK         0.0600 
    204 H204       -0.9660  -17.4946  -47.5822 H         1 UNK         0.0600 
    205 H205       -3.5884  -20.3575  -46.8651 H         1 UNK         0.3000 
    206 H206       -5.5588  -19.6597  -44.9289 H         1 UNK         0.0600 
    207 H207       -4.1007  -21.6723  -44.7644 H         1 UNK         0.0600 
    208 H208       -5.7996  -22.1173  -44.6813 H         1 UNK         0.0600 
    209 H209       -4.8964  -22.3829  -46.1667 H         1 UNK         0.0600 
    210 H210       -5.8622  -21.1023  -48.2210 H         1 UNK         0.3000 
    211 H211       -8.7540  -21.2268  -48.1226 H         1 UNK         0.0600 
    212 H212       -8.4901  -21.9983  -50.4707 H         1 UNK         0.0600 
    213 H213       -7.3605  -22.8408  -49.4205 H         1 UNK         0.0600 
    214 H214       -6.7937  -21.5338  -50.4597 H         1 UNK         0.0600 
    215 H215       -6.4521  -18.8019  -49.0933 H         1 UNK         0.3000 
    216 H216       -6.4848  -16.8150  -50.0392 H         1 UNK         0.0600 
    217 H217       -8.4748  -15.3671  -50.0339 H         1 UNK         0.0600 
    218 H218       -8.3335  -16.1844  -48.4853 H         1 UNK         0.0600 
    219 H219       -9.5259  -16.7256  -49.6661 H         1 UNK         0.0600 
    220 H220       -5.9362  -18.6606  -51.6564 H         1 UNK         0.3000 
    221 H221       -7.2178  -18.1404  -54.2401 H         1 UNK         0.0600 
    222 H222       -7.0617  -20.9700  -53.0278 H         1 UNK         0.0600 
    223 H223       -8.5540  -20.0606  -53.2472 H         1 UNK         0.0600 
    224 H224       -7.6297  -20.5735  -54.6465 H         1 UNK         0.0600 
    225 H225       -5.9239  -19.6463  -55.9096 H         1 UNK         0.3000 
    226 H226       -3.1157  -19.0207  -55.6405 H         1 UNK         0.0600 
    227 H227       -2.9308  -20.1823  -57.8362 H         1 UNK         0.0600 
    228 H228       -4.5960  -20.7339  -57.7073 H         1 UNK         0.0600 
    229 H229       -4.2403  -19.0119  -57.8466 H         1 UNK         0.0600 
    230 H230       -5.0317  -22.0102  -55.4315 H         1 UNK         0.3000 
    231 H231       -4.6438  -24.1108  -54.8088 H         1 UNK         0.0600 
    232 H232       -4.7044  -22.9557  -52.6080 H         1 UNK         0.0600 
    233 H233       -2.9603  -22.7400  -52.6449 H         1 UNK         0.0600 
    234 H234       -3.6521  -24.3568  -52.5384 H         1 UNK         0.0600 
    235 H235       -1.5640  -23.9185  -53.3954 H         1 UNK         0.3000 
    236 H236       -0.3154  -25.7982  -55.0833 H         1 UNK         0.0600 
    237 H237        0.2766  -25.4514  -52.6951 H         1 UNK         0.0600 
    238 H238        1.7009  -25.2494  -53.7017 H         1 UNK         0.0600 
    239 H239        0.8830  -23.8332  -53.0533 H         1 UNK         0.0600 
    240 H240       -0.5156  -22.3059  -55.4168 H         1 UNK         0.3000 
    241 H241        1.6870  -22.1756  -57.3781 H         1 UNK         0.0600 
    242 H242       -1.7725  -22.8004  -59.2881 H         1 UNK         0.3800 
    243 H243       -1.5387  -23.2783  -57.6265 H         1 UNK         0.3800 
    244 H244        1.1843  -19.7544  -57.4738 H         1 UNK         0.0800 
    245 H245       -0.1579  -19.9515  -56.3888 H         1 UNK         0.0800 
    246 H246        0.4866  -21.1199  -53.6722 H         1 UNK         0.0800 
    247 H247       -0.0368  -19.5082  -54.0944 H         1 UNK         0.0800 
@<TRIPOS>BOND
     1    1    2 1    
     2    1  127 1    
     3    1  128 1    
     4    1  129 1    
     5    2    3 2    
     6    2    4 am   BACKBONE|DICT|INTERRES
     7    4    5 1    
     8    4  130 1    
     9    5    6 1    
    10    5   65 1    
    11    5  131 1    
    12    6    7 1    
    13    6  132 1    
    14    6  133 1    
    15    7    8 1    
    16    8    9 1    
    17    8  134 1    
    18    8  135 1    
    19    9   10 ar   
    20    9   14 ar   
    21   10   11 ar   
    22   10  136 1    
    23   11   12 ar   
    24   11  126 1    
    25   12   13 ar   
    26   12  137 1    
    27   13   14 ar   
    28   13   15 1    
    29   14  138 1    
    30   15   16 1    
    31   15  139 1    
    32   15  140 1    
    33   16   17 1    
    34   17   18 1    
    35   17  141 1    
    36   17  142 1    
    37   18   19 1    
    38   18   67 1    
    39   18  143 1    
    40   19   20 am   BACKBONE|DICT|INTERRES
    41   19  144 1    
    42   20   21 2    
    43   20   22 1    
    44   22   23 1    
    45   22   24 1    
    46   22  145 1    
    47   23  146 1    
    48   23  147 1    
    49   23  148 1    
    50   24   25 am   BACKBONE|DICT|INTERRES
    51   24  149 1    
    52   25   26 2    
    53   25   27 1    
    54   27   28 1    
    55   27   29 1    
    56   27  150 1    
    57   28  151 1    
    58   28  152 1    
    59   28  153 1    
    60   29   30 am   BACKBONE|DICT|INTERRES
    61   29  154 1    
    62   30   31 2    
    63   30   32 1    
    64   32   33 1    
    65   32   34 1    
    66   32  155 1    
    67   33  156 1    
    68   33  157 1    
    69   33  158 1    
    70   34   35 am   BACKBONE|DICT|INTERRES
    71   34  159 1    
    72   35   36 2    
    73   35   37 1    
    74   37   38 1    
    75   37   39 1    
    76   37  160 1    
    77   38  161 1    
    78   38  162 1    
    79   38  163 1    
    80   39   40 am   BACKBONE|DICT|INTERRES
    81   39  164 1    
    82   40   41 2    
    83   40   42 1    
    84   42   43 1    
    85   42   44 1    
    86   42  165 1    
    87   43  166 1    
    88   43  167 1    
    89   43  168 1    
    90   44   45 am   BACKBONE|DICT|INTERRES
    91   44  169 1    
    92   45   46 2    
    93   45   47 1    
    94   47   48 1    
    95   47   49 1    
    96   47  170 1    
    97   48  171 1    
    98   48  172 1    
    99   48  173 1    
   100   49   50 am   BACKBONE|DICT|INTERRES
   101   49  174 1    
   102   50   51 2    
   103   50   52 1    
   104   52   53 1    
   105   52   54 1    
   106   52  175 1    
   107   53  176 1    
   108   53  177 1    
   109   53  178 1    
   110   54   55 am   BACKBONE|DICT|INTERRES
   111   54  179 1    
   112   55   56 2    
   113   55   57 1    
   114   57   58 1    
   115   57   59 1    
   116   57  180 1    
   117   58  181 1    
   118   58  182 1    
   119   58  183 1    
   120   59   60 am   BACKBONE|DICT|INTERRES
   121   59  184 1    
   122   60   61 2    
   123   60   62 1    
   124   62   63 1    
   125   62   64 1    
   126   62  185 1    
   127   63  186 1    
   128   63  187 1    
   129   63  188 1    
   130   64   65 am   BACKBONE|DICT|INTERRES
   131   64  189 1    
   132   65   66 2    
   133   67   68 2    
   134   67   69 am   BACKBONE|DICT|INTERRES
   135   69   70 1    
   136   69  190 1    
   137   70   71 1    
   138   70   72 1    
   139   70  191 1    
   140   71  192 1    
   141   71  193 1    
   142   71  194 1    
   143   72   73 2    
   144   72   74 am   BACKBONE|DICT|INTERRES
   145   74   75 1    
   146   74  195 1    
   147   75   76 1    
   148   75   77 1    
   149   75  196 1    
   150   76  197 1    
   151   76  198 1    
   152   76  199 1    
   153   77   78 2    
   154   77   79 am   BACKBONE|DICT|INTERRES
   155   79   80 1    
   156   79  200 1    
   157   80   81 1    
   158   80   82 1    
   159   80  201 1    
   160   81  202 1    
   161   81  203 1    
   162   81  204 1    
   163   82   83 2    
   164   82   84 am   BACKBONE|DICT|INTERRES
   165   84   85 1    
   166   84  205 1    
   167   85   86 1    
   168   85   87 1    
   169   85  206 1    
   170   86  207 1    
   171   86  208 1    
   172   86  209 1    
   173   87   88 2    
   174   87   89 am   BACKBONE|DICT|INTERRES
   175   89   90 1    
   176   89  210 1    
   177   90   91 1    
   178   90   92 1    
   179   90  211 1    
   180   91  212 1    
   181   91  213 1    
   182   91  214 1    
   183   92   93 2    
   184   92   94 am   BACKBONE|DICT|INTERRES
   185   94   95 1    
   186   94  215 1    
   187   95   96 1    
   188   95   97 1    
   189   95  216 1    
   190   96  217 1    
   191   96  218 1    
   192   96  219 1    
   193   97   98 2    
   194   97   99 am   BACKBONE|DICT|INTERRES
   195   99  100 1    
   196   99  220 1    
   197  100  101 1    
   198  100  102 1    
   199  100  221 1    
   200  101  222 1    
   201  101  223 1    
   202  101  224 1    
   203  102  103 2    
   204  102  104 am   BACKBONE|DICT|INTERRES
   205  104  105 1    
   206  104  225 1    
   207  105  106 1    
   208  105  107 1    
   209  105  226 1    
   210  106  227 1    
   211  106  228 1    
   212  106  229 1    
   213  107  108 2    
   214  107  109 am   BACKBONE|DICT|INTERRES
   215  109  110 1    
   216  109  230 1    
   217  110  111 1    
   218  110  112 1    
   219  110  231 1    
   220  111  232 1    
   221  111  233 1    
   222  111  234 1    
   223  112  113 2    
   224  112  114 am   BACKBONE|DICT|INTERRES
   225  114  115 1    
   226  114  235 1    
   227  115  116 1    
   228  115  117 1    
   229  115  236 1    
   230  116  237 1    
   231  116  238 1    
   232  116  239 1    
   233  117  118 2    
   234  117  119 am   BACKBONE|DICT|INTERRES
   235  119  120 1    
   236  119  240 1    
   237  120  121 1    
   238  120  124 1    
   239  120  241 1    
   240  121  122 am   BACKBONE|DICT|INTERRES
   241  121  123 2    
   242  122  242 1    
   243  122  243 1    
   244  124  125 1    
   245  124  244 1    
   246  124  245 1    
   247  125  126 1    
   248  126  246 1    
   249  126  247 1    
@<TRIPOS>SUBSTRUCTURE
     1 UNK         1 GROUP             0       ****    0 ROOT    
