@<TRIPOS>MOLECULE
3R540
247   249    1
SMALL
USER_CHARGES


@<TRIPOS>ATOM
      1 CA          5.8224  -15.1508  -50.1121 C.3       0 UNK        -0.1800 
      2 C           4.6832  -15.7287  -49.2864 C.2       0 UNK         0.5000 
      3 O           4.6039  -15.4721  -48.0849 O.2       0 UNK        -0.5000 
      4 N           3.7840  -16.4914  -49.9219 N.am      1 UNK        -0.5000 
      5 CA          2.6284  -17.1324  -49.2805 C.3       1 UNK         0.1400 
      6 C6          1.9220  -18.1366  -50.2236 C.3       23 UNK        -0.0398 
      7 S7          1.1835  -17.3679  -51.7111 S.3       23 UNK        -0.2404 
      8 C8         -0.5016  -18.0558  -51.7059 C.3       23 UNK        -0.0205 
      9 C9         -1.3215  -17.6437  -50.4895 C.ar      23 UNK        -0.0193 
     10 C10        -1.8531  -16.3546  -50.3970 C.ar      23 UNK        -0.1150 
     11 C11        -2.6721  -15.9950  -49.3189 C.ar      23 UNK        -0.0193 
     12 C12        -2.9273  -16.9346  -48.3144 C.ar      23 UNK        -0.1150 
     13 C13        -2.3773  -18.2171  -48.3780 C.ar      23 UNK        -0.0193 
     14 C14        -1.5889  -18.5685  -49.4761 C.ar      23 UNK        -0.1150 
     15 C15        -2.6649  -19.2357  -47.2824 C.3       23 UNK        -0.0205 
     16 S16        -1.6773  -18.9656  -45.7705 S.3       23 UNK        -0.2404 
     17 C17         0.0178  -19.3741  -46.3218 C.3       23 UNK        -0.0398 
     18 CA          0.5967  -20.7347  -45.8469 C.3       11 UNK         0.1400 
     19 N           1.0244  -20.7222  -44.4405 N.am      11 UNK        -0.5000 
     20 C           2.1347  -21.3307  -43.9921 C.2       10 UNK         0.5000 
     21 O           2.9071  -21.9543  -44.7204 O.2       10 UNK        -0.5000 
     22 CA          2.4382  -21.2520  -42.4844 C.3       10 UNK         0.1400 
     23 CB          3.2769  -20.0051  -42.1669 C.3       10 UNK        -0.1800 
     24 N           1.2334  -21.2476  -41.6576 N.am      10 UNK        -0.5000 
     25 C           0.4682  -22.3222  -41.4169 C.2       9 UNK         0.5000 
     26 O           0.7246  -23.4448  -41.8506 O.2       9 UNK        -0.5000 
     27 CA         -0.8097  -22.1116  -40.5731 C.3       9 UNK         0.1400 
     28 CB         -0.5339  -22.4261  -39.0953 C.3       9 UNK        -0.1800 
     29 N          -1.3624  -20.7589  -40.6764 N.am      9 UNK        -0.5000 
     30 C          -1.7801  -20.1943  -41.8165 C.2       8 UNK         0.5000 
     31 O          -1.8766  -20.8154  -42.8743 O.2       8 UNK        -0.5000 
     32 CA         -2.0873  -18.6819  -41.8056 C.3       8 UNK         0.1400 
     33 CB         -3.6044  -18.4440  -41.8099 C.3       8 UNK        -0.1800 
     34 N          -1.4830  -17.8687  -40.7382 N.am      8 UNK        -0.5000 
     35 C          -0.1974  -17.8430  -40.3559 C.2       7 UNK         0.5000 
     36 O           0.6496  -18.6535  -40.7277 O.2       7 UNK        -0.5000 
     37 CA          0.2144  -16.6601  -39.4690 C.3       7 UNK         0.1400 
     38 CB          1.5613  -16.8817  -38.7578 C.3       7 UNK        -0.1800 
     39 N           0.3230  -15.5118  -40.3574 N.am      7 UNK        -0.5000 
     40 C          -0.2328  -14.3095  -40.1658 C.2       6 UNK         0.5000 
     41 O          -0.7950  -13.9744  -39.1226 O.2       6 UNK        -0.5000 
     42 CA         -0.1855  -13.3225  -41.3542 C.3       6 UNK         0.1400 
     43 CB          1.0068  -12.3652  -41.2117 C.3       6 UNK        -0.1800 
     44 N          -0.1060  -13.9890  -42.6573 N.am      6 UNK        -0.5000 
     45 C          -1.0368  -14.8180  -43.1539 C.2       5 UNK         0.5000 
     46 O          -2.1397  -14.9855  -42.6323 O.2       5 UNK        -0.5000 
     47 CA         -0.6772  -15.6333  -44.4130 C.3       5 UNK         0.1400 
     48 CB         -1.4578  -15.1114  -45.6268 C.3       5 UNK        -0.1800 
     49 N           0.7490  -15.6922  -44.7495 N.am      5 UNK        -0.5000 
     50 C           1.7422  -16.1367  -43.9656 C.2       4 UNK         0.5000 
     51 O           1.5724  -16.5511  -42.8213 O.2       4 UNK        -0.5000 
     52 CA          3.1746  -16.0432  -44.5271 C.3       4 UNK         0.1400 
     53 CB          3.5793  -17.3577  -45.2112 C.3       4 UNK        -0.1800 
     54 N           3.3576  -14.9307  -45.4628 N.am      4 UNK        -0.5000 
     55 C           3.2172  -13.6318  -45.1542 C.2       3 UNK         0.5000 
     56 O           2.9631  -13.2199  -44.0218 O.2       3 UNK        -0.5000 
     57 CA          3.3182  -12.6354  -46.3215 C.3       3 UNK         0.1400 
     58 CB          4.7829  -12.3338  -46.6750 C.3       3 UNK        -0.1800 
     59 N           2.6134  -13.1517  -47.4958 N.am      3 UNK        -0.5000 
     60 C           1.2856  -13.0662  -47.6635 C.2       2 UNK         0.5000 
     61 O           0.5496  -12.4175  -46.9205 O.2       2 UNK        -0.5000 
     62 CA          0.6619  -13.8448  -48.8378 C.3       2 UNK         0.1400 
     63 CB          0.3540  -12.9115  -50.0175 C.3       2 UNK        -0.1800 
     64 N           1.4925  -14.9517  -49.3072 N.am      2 UNK        -0.5000 
     65 C           1.6481  -16.1135  -48.6571 C.2       1 UNK         0.5000 
     66 O           1.1090  -16.3692  -47.5828 O.2       1 UNK        -0.5000 
     67 C          -0.3150  -21.9370  -46.1779 C.2       11 UNK         0.5000 
     68 O          -0.6729  -22.1109  -47.3430 O.2       11 UNK        -0.5000 
     69 N          -0.6599  -22.7609  -45.1757 N.am      12 UNK        -0.5000 
     70 CA         -1.5765  -23.9022  -45.2743 C.3       12 UNK         0.1400 
     71 CB         -1.7264  -24.5530  -43.8926 C.3       12 UNK        -0.1800 
     72 C          -1.1871  -24.9600  -46.3274 C.2       12 UNK         0.5000 
     73 O          -2.0696  -25.6160  -46.8808 O.2       12 UNK        -0.5000 
     74 N           0.1165  -25.0816  -46.6139 N.am      13 UNK        -0.5000 
     75 CA          0.6582  -25.9309  -47.6759 C.3       13 UNK         0.1400 
     76 CB          2.1841  -26.0152  -47.5211 C.3       13 UNK        -0.1800 
     77 C           0.2842  -25.4416  -49.0900 C.2       13 UNK         0.5000 
     78 O           0.0935  -26.2673  -49.9829 O.2       13 UNK        -0.5000 
     79 N           0.1711  -24.1174  -49.2651 N.am      14 UNK        -0.5000 
     80 CA         -0.2684  -23.4814  -50.5063 C.3       14 UNK         0.1400 
     81 CB          0.3870  -22.0980  -50.6378 C.3       14 UNK        -0.1800 
     82 C          -1.8000  -23.3668  -50.5716 C.2       14 UNK         0.5000 
     83 O          -2.3584  -23.4242  -51.6655 O.2       14 UNK        -0.5000 
     84 N          -2.4629  -23.2361  -49.4111 N.am      15 UNK        -0.5000 
     85 CA         -3.9234  -23.1432  -49.2719 C.3       15 UNK         0.1400 
     86 CB         -4.2914  -22.9564  -47.7932 C.3       15 UNK        -0.1800 
     87 C          -4.6949  -24.3452  -49.8556 C.2       15 UNK         0.5000 
     88 O          -5.8695  -24.2030  -50.1999 O.2       15 UNK        -0.5000 
     89 N          -4.0163  -25.4921  -49.9942 N.am      16 UNK        -0.5000 
     90 CA         -4.4521  -26.6752  -50.7320 C.3       16 UNK         0.1400 
     91 CB         -3.5364  -27.8506  -50.3471 C.3       16 UNK        -0.1800 
     92 C          -4.4751  -26.4163  -52.2564 C.2       16 UNK         0.5000 
     93 O          -3.6426  -26.9469  -52.9937 O.2       16 UNK        -0.5000 
     94 N          -5.4217  -25.5731  -52.6881 N.am      17 UNK        -0.5000 
     95 CA         -5.7697  -25.1599  -54.0537 C.3       17 UNK         0.1400 
     96 CB         -6.1660  -26.3714  -54.9184 C.3       17 UNK        -0.1800 
     97 C          -4.7301  -24.2839  -54.7817 C.2       17 UNK         0.5000 
     98 O          -5.1346  -23.3933  -55.5301 O.2       17 UNK        -0.5000 
     99 N          -3.4311  -24.5274  -54.5635 N.am      18 UNK        -0.5000 
    100 CA        -2.3060  -23.8767  -55.2478 C.3       18 UNK         0.1400 
    101 CB        -0.9897  -24.5025  -54.7623 C.3       18 UNK        -0.1800 
    102 C         -2.2659  -22.3411  -55.1068 C.2       18 UNK         0.5000 
    103 O         -1.8554  -21.6546  -56.0431 O.2       18 UNK        -0.5000 
    104 N         -2.7223  -21.8333  -53.9556 N.am      19 UNK        -0.5000 
    105 CA        -2.8752  -20.4119  -53.6466 C.3       19 UNK         0.1400 
    106 CB        -3.2015  -20.2664  -52.1514 C.3       19 UNK        -0.1800 
    107 C         -3.9628  -19.6978  -54.4698 C.2       19 UNK         0.5000 
    108 O         -3.9542  -18.4672  -54.5164 O.2       19 UNK        -0.5000 
    109 N         -4.9069  -20.4597  -55.0462 N.am      20 UNK        -0.5000 
    110 CA        -6.0836  -19.9942  -55.7921 C.3       20 UNK         0.1400 
    111 CB        -5.6560  -19.3586  -57.1312 C.3       20 UNK        -0.1800 
    112 C         -7.0047  -19.0765  -54.9553 C.2       20 UNK         0.5000 
    113 O         -7.5832  -18.1295  -55.4901 O.2       20 UNK        -0.5000 
    114 N         -7.0988  -19.3738  -53.6483 N.am      21 UNK        -0.5000 
    115 CA        -7.7853  -18.5989  -52.6066 C.3       21 UNK         0.1400 
    116 CB        -9.3123  -18.5973  -52.8321 C.3       21 UNK        -0.1800 
    117 C         -7.1888  -17.1836  -52.4354 C.2       21 UNK         0.5000 
    118 O         -7.9304  -16.2066  -52.3166 O.2       21 UNK        -0.5000 
    119 N         -5.8503  -17.1134  -52.4283 N.am      22 UNK        -0.5000 
    120 CA        -5.0425  -15.8842  -52.4155 C.3       22 UNK         0.1400 
    121 C         -5.1269  -15.1226  -53.7718 C.2       22 UNK         0.5000 
    122 N         -4.8218  -15.7901  -54.8769 N.am      22 UNK        -0.7600 
    123 O         -5.4731  -13.9458  -53.8399 O.2       22 UNK        -0.5000 
    124 C124       -5.2913  -15.0029  -51.1573 C.3       23 UNK        -0.0398 
    125 S125       -3.8822  -13.9041  -50.7753 S.3       23 UNK        -0.2404 
    126 C126       -3.2689  -14.5940  -49.2016 C.3       23 UNK        -0.0205 
    127 H127        5.8103  -14.0624  -50.0560 H         1 UNK         0.0600 
    128 H128        5.7501  -15.4396  -51.1609 H         1 UNK         0.0600 
    129 H129        6.7791  -15.5025  -49.7263 H         1 UNK         0.0600 
    130 H130        3.8816  -16.6577  -50.9138 H         1 UNK         0.3000 
    131 H131        3.0285  -17.7161  -48.4493 H         1 UNK         0.0600 
    132 H132        2.6389  -18.8872  -50.5588 H         1 UNK         0.0800 
    133 H133        1.1668  -18.6938  -49.6703 H         1 UNK         0.0800 
    134 H134       -0.4342  -19.1417  -51.7761 H         1 UNK         0.0800 
    135 H135       -1.0169  -17.7257  -52.6091 H         1 UNK         0.0800 
    136 H136       -1.6383  -15.6370  -51.1758 H         1 UNK         0.1150 
    137 H137       -3.5465  -16.6669  -47.4700 H         1 UNK         0.1150 
    138 H138       -1.1897  -19.5693  -49.5434 H         1 UNK         0.1150 
    139 H139       -3.7228  -19.1912  -47.0204 H         1 UNK         0.0800 
    140 H140       -2.4893  -20.2440  -47.6544 H         1 UNK         0.0800 
    141 H141        0.6702  -18.5671  -45.9883 H         1 UNK         0.0800 
    142 H142        0.0561  -19.3298  -47.4091 H         1 UNK         0.0800 
    143 H143        1.4855  -20.8887  -46.4625 H         1 UNK         0.0600 
    144 H144        0.4075  -20.2635  -43.7843 H         1 UNK         0.3000 
    145 H145        3.0313  -22.1302  -42.2201 H         1 UNK         0.0600 
    146 H146        3.5505  -19.9724  -41.1122 H         1 UNK         0.0600 
    147 H147        4.2021  -19.9966  -42.7445 H         1 UNK         0.0600 
    148 H148        2.7353  -19.0872  -42.3973 H         1 UNK         0.0600 
    149 H149        0.9620  -20.3466  -41.2652 H         1 UNK         0.3000 
    150 H150       -1.5649  -22.8104  -40.9377 H         1 UNK         0.0600 
    151 H151       -0.1438  -23.4380  -38.9775 H         1 UNK         0.0600 
    152 H152       -1.4449  -22.3589  -38.5003 H         1 UNK         0.0600 
    153 H153        0.1988  -21.7396  -38.6689 H         1 UNK         0.0600 
    154 H154       -1.2848  -20.1727  -39.8586 H         1 UNK         0.3000 
    155 H155       -1.6890  -18.2927  -42.7426 H         1 UNK         0.0600 
    156 H156       -4.0618  -18.7581  -40.8710 H         1 UNK         0.0600 
    157 H157       -3.8377  -17.3901  -41.9642 H         1 UNK         0.0600 
    158 H158       -4.0870  -19.0005  -42.6148 H         1 UNK         0.0600 
    159 H159       -2.0814  -17.1405  -40.3751 H         1 UNK         0.3000 
    160 H160       -0.5632  -16.5087  -38.7175 H         1 UNK         0.0600 
    161 H161        2.3766  -17.0189  -39.4697 H         1 UNK         0.0600 
    162 H162        1.5253  -17.7668  -38.1218 H         1 UNK         0.0600 
    163 H163        1.8132  -16.0322  -38.1229 H         1 UNK         0.0600 
    164 H164        0.7456  -15.7186  -41.2599 H         1 UNK         0.3000 
    165 H165       -1.1055  -12.7349  -41.3333 H         1 UNK         0.0600 
    166 H166        1.0139  -11.6216  -42.0089 H         1 UNK         0.0600 
    167 H167        0.9655  -11.8264  -40.2641 H         1 UNK         0.0600 
    168 H168        1.9568  -12.9004  -41.2456 H         1 UNK         0.0600 
    169 H169        0.7721  -13.9048  -43.1527 H         1 UNK         0.3000 
    170 H170       -0.9934  -16.6567  -44.2194 H         1 UNK         0.0600 
    171 H171       -2.5333  -15.1783  -45.4589 H         1 UNK         0.0600 
    172 H172       -1.2227  -14.0689  -45.8383 H         1 UNK         0.0600 
    173 H173       -1.2327  -15.6956  -46.5175 H         1 UNK         0.0600 
    174 H174        0.9842  -15.4635  -45.7082 H         1 UNK         0.3000 
    175 H175        3.8468  -15.8781  -43.6826 H         1 UNK         0.0600 
    176 H176        2.9381  -17.5835  -46.0615 H         1 UNK         0.0600 
    177 H177        4.6080  -17.3164  -45.5695 H         1 UNK         0.0600 
    178 H178        3.5086  -18.1973  -44.5204 H         1 UNK         0.0600 
    179 H179        3.6190  -15.1763  -46.4129 H         1 UNK         0.3000 
    180 H180        2.8542  -11.6981  -46.0066 H         1 UNK         0.0600 
    181 H181        5.3307  -13.2311  -46.9617 H         1 UNK         0.0600 
    182 H182        5.3029  -11.8946  -45.8229 H         1 UNK         0.0600 
    183 H183        4.8506  -11.6228  -47.4985 H         1 UNK         0.0600 
    184 H184        3.1475  -13.7381  -48.1223 H         1 UNK         0.3000 
    185 H185       -0.2788  -14.2634  -48.4785 H         1 UNK         0.0600 
    186 H186       -0.2930  -12.0901  -49.7069 H         1 UNK         0.0600 
    187 H187        1.2627  -12.4764  -50.4350 H         1 UNK         0.0600 
    188 H188       -0.1632  -13.4449  -50.8155 H         1 UNK         0.0600 
    189 H189        1.9736  -14.8250  -50.1856 H         1 UNK         0.3000 
    190 H190       -0.3374  -22.5289  -44.2472 H         1 UNK         0.3000 
    191 H191       -2.5488  -23.4994  -45.5570 H         1 UNK         0.0600 
    192 H192       -0.7805  -24.9631  -43.5378 H         1 UNK         0.0600 
    193 H193       -2.4483  -25.3702  -43.9212 H         1 UNK         0.0600 
    194 H194       -2.0816  -23.8332  -43.1551 H         1 UNK         0.0600 
    195 H195        0.7739  -24.5088  -46.1052 H         1 UNK         0.3000 
    196 H196        0.2456  -26.9345  -47.5523 H         1 UNK         0.0600 
    197 H197        2.6191  -26.6591  -48.2866 H         1 UNK         0.0600 
    198 H198        2.4599  -26.4322  -46.5523 H         1 UNK         0.0600 
    199 H199        2.6532  -25.0346  -47.6110 H         1 UNK         0.0600 
    200 H200        0.2698  -23.5058  -48.4633 H         1 UNK         0.3000 
    201 H201        0.0544  -24.0846  -51.3573 H         1 UNK         0.0600 
    202 H202        1.4733  -22.1806  -50.6714 H         1 UNK         0.0600 
    203 H203        0.1292  -21.4458  -49.8043 H         1 UNK         0.0600 
    204 H204        0.0710  -21.6030  -51.5569 H         1 UNK         0.0600 
    205 H205       -1.9168  -23.1279  -48.5641 H         1 UNK         0.3000 
    206 H206       -4.2408  -22.2530  -49.8177 H         1 UNK         0.0600 
    207 H207       -5.3458  -22.6982  -47.6880 H         1 UNK         0.0600 
    208 H208       -4.1267  -23.8711  -47.2243 H         1 UNK         0.0600 
    209 H209       -3.7146  -22.1589  -47.3279 H         1 UNK         0.0600 
    210 H210       -3.0578  -25.4984  -49.6766 H         1 UNK         0.3000 
    211 H211       -5.4688  -26.9253  -50.4222 H         1 UNK         0.0600 
    212 H212       -2.4944  -27.6500  -50.6010 H         1 UNK         0.0600 
    213 H213       -3.8327  -28.7635  -50.8653 H         1 UNK         0.0600 
    214 H214       -3.5853  -28.0538  -49.2771 H         1 UNK         0.0600 
    215 H215       -5.9642  -25.1182  -51.9595 H         1 UNK         0.3000 
    216 H216       -6.6604  -24.5395  -53.9428 H         1 UNK         0.0600 
    217 H217       -6.5326  -26.0493  -55.8939 H         1 UNK         0.0600 
    218 H218       -6.9616  -26.9490  -54.4477 H         1 UNK         0.0600 
    219 H219       -5.3232  -27.0405  -55.0940 H         1 UNK         0.0600 
    220 H220       -3.2046  -25.2890  -53.9317 H         1 UNK         0.3000 
    221 H221       -2.4104  -24.0963  -56.3121 H         1 UNK         0.0600 
    222 H222       -0.8449  -24.3557  -53.6923 H         1 UNK         0.0600 
    223 H223       -0.9672  -25.5747  -54.9582 H         1 UNK         0.0600 
    224 H224       -0.1335  -24.0605  -55.2735 H         1 UNK         0.0600 
    225 H225       -2.9304  -22.4873  -53.2050 H         1 UNK         0.3000 
    226 H226       -1.9264  -19.9125  -53.8507 H         1 UNK         0.0600 
    227 H227       -2.3872  -20.6380  -51.5320 H         1 UNK         0.0600 
    228 H228       -3.3615  -19.2226  -51.8786 H         1 UNK         0.0600 
    229 H229       -4.1037  -20.8164  -51.8819 H         1 UNK         0.0600 
    230 H230       -4.8146  -21.4685  -54.9813 H         1 UNK         0.3000 
    231 H231       -6.6703  -20.8846  -56.0225 H         1 UNK         0.0600 
    232 H232       -6.5231  -19.1384  -57.7549 H         1 UNK         0.0600 
    233 H233       -5.0127  -20.0320  -57.6978 H         1 UNK         0.0600 
    234 H234       -5.1146  -18.4240  -56.9821 H         1 UNK         0.0600 
    235 H235       -6.5896  -20.1831  -53.3236 H         1 UNK         0.3000 
    236 H236       -7.5979  -19.1192  -51.6661 H         1 UNK         0.0600 
    237 H237       -9.6966  -19.6120  -52.9352 H         1 UNK         0.0600 
    238 H238       -9.8300  -18.1394  -51.9885 H         1 UNK         0.0600 
    239 H239       -9.5922  -18.0400  -53.7264 H         1 UNK         0.0600 
    240 H240       -5.3321  -17.9613  -52.6032 H         1 UNK         0.3000 
    241 H241       -4.0129  -16.2384  -52.3530 H         1 UNK         0.0600 
    242 H242       -4.8771  -15.3289  -55.7703 H         1 UNK         0.3800 
    243 H243       -4.5287  -16.7644  -54.8252 H         1 UNK         0.3800 
    244 H244       -6.1904  -14.3965  -51.2749 H         1 UNK         0.0800 
    245 H245       -5.4766  -15.6404  -50.2919 H         1 UNK         0.0800 
    246 H246       -2.5111  -13.9206  -48.8032 H         1 UNK         0.0800 
    247 H247       -4.0875  -14.5862  -48.4801 H         1 UNK         0.0800 
@<TRIPOS>BOND
     1    1    2 1    
     2    1  127 1    
     3    1  128 1    
     4    1  129 1    
     5    2    3 2    
     6    2    4 am   BACKBONE|DICT|INTERRES
     7    4    5 1    
     8    4  130 1    
     9    5    6 1    
    10    5   65 1    
    11    5  131 1    
    12    6    7 1    
    13    6  132 1    
    14    6  133 1    
    15    7    8 1    
    16    8    9 1    
    17    8  134 1    
    18    8  135 1    
    19    9   10 ar   
    20    9   14 ar   
    21   10   11 ar   
    22   10  136 1    
    23   11   12 ar   
    24   11  126 1    
    25   12   13 ar   
    26   12  137 1    
    27   13   14 ar   
    28   13   15 1    
    29   14  138 1    
    30   15   16 1    
    31   15  139 1    
    32   15  140 1    
    33   16   17 1    
    34   17   18 1    
    35   17  141 1    
    36   17  142 1    
    37   18   19 1    
    38   18   67 1    
    39   18  143 1    
    40   19   20 am   BACKBONE|DICT|INTERRES
    41   19  144 1    
    42   20   21 2    
    43   20   22 1    
    44   22   23 1    
    45   22   24 1    
    46   22  145 1    
    47   23  146 1    
    48   23  147 1    
    49   23  148 1    
    50   24   25 am   BACKBONE|DICT|INTERRES
    51   24  149 1    
    52   25   26 2    
    53   25   27 1    
    54   27   28 1    
    55   27   29 1    
    56   27  150 1    
    57   28  151 1    
    58   28  152 1    
    59   28  153 1    
    60   29   30 am   BACKBONE|DICT|INTERRES
    61   29  154 1    
    62   30   31 2    
    63   30   32 1    
    64   32   33 1    
    65   32   34 1    
    66   32  155 1    
    67   33  156 1    
    68   33  157 1    
    69   33  158 1    
    70   34   35 am   BACKBONE|DICT|INTERRES
    71   34  159 1    
    72   35   36 2    
    73   35   37 1    
    74   37   38 1    
    75   37   39 1    
    76   37  160 1    
    77   38  161 1    
    78   38  162 1    
    79   38  163 1    
    80   39   40 am   BACKBONE|DICT|INTERRES
    81   39  164 1    
    82   40   41 2    
    83   40   42 1    
    84   42   43 1    
    85   42   44 1    
    86   42  165 1    
    87   43  166 1    
    88   43  167 1    
    89   43  168 1    
    90   44   45 am   BACKBONE|DICT|INTERRES
    91   44  169 1    
    92   45   46 2    
    93   45   47 1    
    94   47   48 1    
    95   47   49 1    
    96   47  170 1    
    97   48  171 1    
    98   48  172 1    
    99   48  173 1    
   100   49   50 am   BACKBONE|DICT|INTERRES
   101   49  174 1    
   102   50   51 2    
   103   50   52 1    
   104   52   53 1    
   105   52   54 1    
   106   52  175 1    
   107   53  176 1    
   108   53  177 1    
   109   53  178 1    
   110   54   55 am   BACKBONE|DICT|INTERRES
   111   54  179 1    
   112   55   56 2    
   113   55   57 1    
   114   57   58 1    
   115   57   59 1    
   116   57  180 1    
   117   58  181 1    
   118   58  182 1    
   119   58  183 1    
   120   59   60 am   BACKBONE|DICT|INTERRES
   121   59  184 1    
   122   60   61 2    
   123   60   62 1    
   124   62   63 1    
   125   62   64 1    
   126   62  185 1    
   127   63  186 1    
   128   63  187 1    
   129   63  188 1    
   130   64   65 am   BACKBONE|DICT|INTERRES
   131   64  189 1    
   132   65   66 2    
   133   67   68 2    
   134   67   69 am   BACKBONE|DICT|INTERRES
   135   69   70 1    
   136   69  190 1    
   137   70   71 1    
   138   70   72 1    
   139   70  191 1    
   140   71  192 1    
   141   71  193 1    
   142   71  194 1    
   143   72   73 2    
   144   72   74 am   BACKBONE|DICT|INTERRES
   145   74   75 1    
   146   74  195 1    
   147   75   76 1    
   148   75   77 1    
   149   75  196 1    
   150   76  197 1    
   151   76  198 1    
   152   76  199 1    
   153   77   78 2    
   154   77   79 am   BACKBONE|DICT|INTERRES
   155   79   80 1    
   156   79  200 1    
   157   80   81 1    
   158   80   82 1    
   159   80  201 1    
   160   81  202 1    
   161   81  203 1    
   162   81  204 1    
   163   82   83 2    
   164   82   84 am   BACKBONE|DICT|INTERRES
   165   84   85 1    
   166   84  205 1    
   167   85   86 1    
   168   85   87 1    
   169   85  206 1    
   170   86  207 1    
   171   86  208 1    
   172   86  209 1    
   173   87   88 2    
   174   87   89 am   BACKBONE|DICT|INTERRES
   175   89   90 1    
   176   89  210 1    
   177   90   91 1    
   178   90   92 1    
   179   90  211 1    
   180   91  212 1    
   181   91  213 1    
   182   91  214 1    
   183   92   93 2    
   184   92   94 am   BACKBONE|DICT|INTERRES
   185   94   95 1    
   186   94  215 1    
   187   95   96 1    
   188   95   97 1    
   189   95  216 1    
   190   96  217 1    
   191   96  218 1    
   192   96  219 1    
   193   97   98 2    
   194   97   99 am   BACKBONE|DICT|INTERRES
   195   99  100 1    
   196   99  220 1    
   197  100  101 1    
   198  100  102 1    
   199  100  221 1    
   200  101  222 1    
   201  101  223 1    
   202  101  224 1    
   203  102  103 2    
   204  102  104 am   BACKBONE|DICT|INTERRES
   205  104  105 1    
   206  104  225 1    
   207  105  106 1    
   208  105  107 1    
   209  105  226 1    
   210  106  227 1    
   211  106  228 1    
   212  106  229 1    
   213  107  108 2    
   214  107  109 am   BACKBONE|DICT|INTERRES
   215  109  110 1    
   216  109  230 1    
   217  110  111 1    
   218  110  112 1    
   219  110  231 1    
   220  111  232 1    
   221  111  233 1    
   222  111  234 1    
   223  112  113 2    
   224  112  114 am   BACKBONE|DICT|INTERRES
   225  114  115 1    
   226  114  235 1    
   227  115  116 1    
   228  115  117 1    
   229  115  236 1    
   230  116  237 1    
   231  116  238 1    
   232  116  239 1    
   233  117  118 2    
   234  117  119 am   BACKBONE|DICT|INTERRES
   235  119  120 1    
   236  119  240 1    
   237  120  121 1    
   238  120  124 1    
   239  120  241 1    
   240  121  122 am   BACKBONE|DICT|INTERRES
   241  121  123 2    
   242  122  242 1    
   243  122  243 1    
   244  124  125 1    
   245  124  244 1    
   246  124  245 1    
   247  125  126 1    
   248  126  246 1    
   249  126  247 1    
@<TRIPOS>SUBSTRUCTURE
     1 UNK         1 GROUP             0       ****    0 ROOT    
