@<TRIPOS>MOLECULE
3R540
247   249    1
SMALL
USER_CHARGES


@<TRIPOS>ATOM
      1 CA         -5.1870  -16.2929  -48.1859 C.3       0 UNK        -0.1800 
      2 C          -3.9687  -17.1462  -47.8451 C.2       0 UNK         0.5000 
      3 O          -3.9201  -18.3030  -48.2522 O.2       0 UNK        -0.5000 
      4 N          -2.9771  -16.6313  -47.1076 N.am      1 UNK        -0.5000 
      5 CA         -2.9150  -15.3039  -46.4967 C.3       1 UNK         0.1400 
      6 C6         -1.7549  -14.4549  -47.0799 C.3       23 UNK        -0.0398 
      7 S7         -2.2356  -13.5905  -48.6112 S.3       23 UNK        -0.2404 
      8 C8         -1.0281  -14.2150  -49.8280 C.3       23 UNK        -0.0205 
      9 C9         -1.3818  -15.5923  -50.3741 C.ar      23 UNK        -0.0193 
     10 C10        -2.6550  -15.8401  -50.8981 C.ar      23 UNK        -0.1150 
     11 C11        -2.9871  -17.0997  -51.4029 C.ar      23 UNK        -0.0193 
     12 C12        -2.0192  -18.1050  -51.4249 C.ar      23 UNK        -0.1150 
     13 C13        -0.7356  -17.8649  -50.9272 C.ar      23 UNK        -0.0193 
     14 C14        -0.4241  -16.6110  -50.3928 C.ar      23 UNK        -0.1150 
     15 C15         0.3130  -18.9638  -50.9837 C.3       23 UNK        -0.0205 
     16 S16         0.6083  -19.7411  -49.3637 S.3       23 UNK        -0.2404 
     17 C17        -1.0791  -19.9720  -48.7116 C.3       23 UNK        -0.0398 
     18 CA         -1.2449  -21.2076  -47.8010 C.3       11 UNK         0.1400 
     19 N          -0.3198  -21.2160  -46.6624 N.am      11 UNK        -0.5000 
     20 C          -0.1971  -22.2288  -45.7916 C.2       10 UNK         0.5000 
     21 O          -0.7907  -23.2988  -45.9176 O.2       10 UNK        -0.5000 
     22 CA          0.6637  -21.9948  -44.5331 C.3       10 UNK         0.1400 
     23 CB          2.0656  -22.5969  -44.7025 C.3       10 UNK        -0.1800 
     24 N           0.7656  -20.5842  -44.1486 N.am      10 UNK        -0.5000 
     25 C          -0.2741  -19.8220  -43.7782 C.2       9 UNK         0.5000 
     26 O          -1.4252  -20.2482  -43.6859 O.2       9 UNK        -0.5000 
     27 CA          0.0019  -18.3295  -43.5298 C.3       9 UNK         0.1400 
     28 CB          0.4119  -18.0751  -42.0738 C.3       9 UNK        -0.1800 
     29 N           1.0234  -17.8060  -44.4375 N.am      9 UNK        -0.5000 
     30 C           0.8069  -17.5575  -45.7370 C.2       8 UNK         0.5000 
     31 O          -0.2946  -17.6652  -46.2778 O.2       8 UNK        -0.5000 
     32 CA          2.0364  -17.1773  -46.5840 C.3       8 UNK         0.1400 
     33 CB          2.2866  -15.6631  -46.5625 C.3       8 UNK        -0.1800 
     34 N           3.2534  -17.8703  -46.1555 N.am      8 UNK        -0.5000 
     35 C           3.4686  -19.1818  -46.3306 C.2       7 UNK         0.5000 
     36 O           2.6621  -19.9386  -46.8639 O.2       7 UNK        -0.5000 
     37 CA          4.7866  -19.7622  -45.7868 C.3       7 UNK         0.1400 
     38 CB          5.8985  -19.6521  -46.8407 C.3       7 UNK        -0.1800 
     39 N           5.2401  -19.1431  -44.5413 N.am      7 UNK        -0.5000 
     40 C           4.5538  -19.1214  -43.3911 C.2       6 UNK         0.5000 
     41 O           3.4252  -19.6005  -43.2636 O.2       6 UNK        -0.5000 
     42 CA          5.2258  -18.4436  -42.1775 C.3       6 UNK         0.1400 
     43 CB          6.6140  -17.8332  -42.4787 C.3       6 UNK        -0.1800 
     44 N           4.3624  -17.4367  -41.5537 N.am      6 UNK        -0.5000 
     45 C           3.8069  -16.3731  -42.1494 C.2       5 UNK         0.5000 
     46 O           3.9050  -16.1192  -43.3541 O.2       5 UNK        -0.5000 
     47 CA          3.0204  -15.4289  -41.2298 C.3       5 UNK         0.1400 
     48 CB          3.9617  -14.6398  -40.3021 C.3       5 UNK        -0.1800 
     49 N           2.2563  -14.4937  -42.0469 N.am      5 UNK        -0.5000 
     50 C           1.0670  -13.9747  -41.7295 C.2       4 UNK         0.5000 
     51 O           0.4846  -14.2294  -40.6728 O.2       4 UNK        -0.5000 
     52 CA          0.4404  -12.9977  -42.7493 C.3       4 UNK         0.1400 
     53 CB          0.8665  -13.2766  -44.2040 C.3       4 UNK        -0.1800 
     54 N          -1.0192  -13.0279  -42.6725 N.am      4 UNK        -0.5000 
     55 C          -1.7629  -12.2674  -41.8558 C.2       3 UNK         0.5000 
     56 O          -1.2924  -11.3943  -41.1244 O.2       3 UNK        -0.5000 
     57 CA         -3.2908  -12.4896  -41.8598 C.3       3 UNK         0.1400 
     58 CB         -4.0019  -11.3175  -42.5552 C.3       3 UNK        -0.1800 
     59 N          -3.7044  -13.7334  -42.5101 N.am      3 UNK        -0.5000 
     60 C          -3.5838  -14.9597  -41.9836 C.2       2 UNK         0.5000 
     61 O          -3.1691  -15.1781  -40.8455 O.2       2 UNK        -0.5000 
     62 CA         -3.9900  -16.1450  -42.8857 C.3       2 UNK         0.1400 
     63 CB         -5.4252  -16.5819  -42.5528 C.3       2 UNK        -0.1800 
     64 N          -3.8974  -15.8759  -44.3278 N.am      2 UNK        -0.5000 
     65 C          -2.7807  -15.5190  -44.9795 C.2       1 UNK         0.5000 
     66 O          -1.6965  -15.3594  -44.4203 O.2       1 UNK        -0.5000 
     67 C          -2.7202  -21.3123  -47.3564 C.2       11 UNK         0.5000 
     68 O          -3.5104  -21.9643  -48.0402 O.2       11 UNK        -0.5000 
     69 N          -3.0616  -20.7010  -46.2115 N.am      12 UNK        -0.5000 
     70 CA         -4.4053  -20.7446  -45.6376 C.3       12 UNK         0.1400 
     71 CB         -4.5935  -19.5873  -44.6485 C.3       12 UNK        -0.1800 
     72 C          -4.6912  -22.0983  -44.9685 C.2       12 UNK         0.5000 
     73 O          -5.8170  -22.5872  -45.0562 O.2       12 UNK        -0.5000 
     74 N          -3.6598  -22.7160  -44.3723 N.am      13 UNK        -0.5000 
     75 CA         -3.7049  -24.0902  -43.8602 C.3       13 UNK         0.1400 
     76 CB         -2.4460  -24.3767  -43.0280 C.3       13 UNK        -0.1800 
     77 C          -3.8746  -25.1269  -44.9907 C.2       13 UNK         0.5000 
     78 O          -4.5608  -26.1309  -44.8012 O.2       13 UNK        -0.5000 
     79 N          -3.3034  -24.8255  -46.1651 N.am      14 UNK        -0.5000 
     80 CA         -3.4967  -25.5434  -47.4267 C.3       14 UNK         0.1400 
     81 CB         -2.2844  -25.2798  -48.3375 C.3       14 UNK        -0.1800 
     82 C          -4.8183  -25.1847  -48.1455 C.2       14 UNK         0.5000 
     83 O          -5.0211  -25.6295  -49.2749 O.2       14 UNK        -0.5000 
     84 N          -5.6867  -24.3829  -47.5088 N.am      15 UNK        -0.5000 
     85 CA         -7.0160  -23.9637  -47.9673 C.3       15 UNK         0.1400 
     86 CB         -7.9804  -25.1681  -47.9888 C.3       15 UNK        -0.1800 
     87 C          -6.9956  -23.1852  -49.2998 C.2       15 UNK         0.5000 
     88 O          -7.9084  -23.3362  -50.1135 O.2       15 UNK        -0.5000 
     89 N          -5.9437  -22.3764  -49.4996 N.am      16 UNK        -0.5000 
     90 CA         -5.6587  -21.5544  -50.6808 C.3       16 UNK         0.1400 
     91 CB         -6.7638  -20.5028  -50.9181 C.3       16 UNK        -0.1800 
     92 C          -5.3280  -22.3650  -51.9527 C.2       16 UNK         0.5000 
     93 O          -5.2865  -21.7889  -53.0402 O.2       16 UNK        -0.5000 
     94 N          -5.0477  -23.6696  -51.8135 N.am      17 UNK        -0.5000 
     95 CA         -4.6250  -24.5422  -52.9144 C.3       17 UNK         0.1400 
     96 CB         -4.9099  -26.0036  -52.5357 C.3       17 UNK        -0.1800 
     97 C          -3.1393  -24.3621  -53.2902 C.2       17 UNK         0.5000 
     98 O          -2.7080  -24.8929  -54.3142 O.2       17 UNK        -0.5000 
     99 N          -2.3839  -23.6410  -52.4501 N.am      18 UNK        -0.5000 
    100 CA        -0.9681  -23.3291  -52.6122 C.3       18 UNK         0.1400 
    101 CB        -0.4675  -22.6457  -51.3334 C.3       18 UNK        -0.1800 
    102 C         -0.6998  -22.4634  -53.8584 C.2       18 UNK         0.5000 
    103 O         -1.0061  -21.2667  -53.8655 O.2       18 UNK        -0.5000 
    104 N         -0.1016  -23.0953  -54.8765 N.am      19 UNK        -0.5000 
    105 CA         0.2015  -22.5439  -56.2013 C.3       19 UNK         0.1400 
    106 CB         0.6683  -23.6936  -57.1088 C.3       19 UNK        -0.1800 
    107 C          1.2244  -21.3885  -56.2184 C.2       19 UNK         0.5000 
    108 O          1.4356  -20.7866  -57.2719 O.2       19 UNK        -0.5000 
    109 N          1.8354  -21.0900  -55.0634 N.am      20 UNK        -0.5000 
    110 CA         2.7546  -19.9732  -54.8412 C.3       20 UNK         0.1400 
    111 CB         3.3344  -20.0851  -53.4227 C.3       20 UNK        -0.1800 
    112 C          2.1187  -18.5849  -55.0657 C.2       20 UNK         0.5000 
    113 O          2.8467  -17.6416  -55.3786 O.2       20 UNK        -0.5000 
    114 N          0.7879  -18.4865  -54.9359 N.am      21 UNK        -0.5000 
    115 CA         0.0176  -17.2947  -55.2983 C.3       21 UNK         0.1400 
    116 CB         0.0743  -16.2406  -54.1792 C.3       21 UNK        -0.1800 
    117 C         -1.4380  -17.6103  -55.6828 C.2       21 UNK         0.5000 
    118 O         -2.0178  -16.8354  -56.4456 O.2       21 UNK        -0.5000 
    119 N         -2.0060  -18.7143  -55.1768 N.am      22 UNK        -0.5000 
    120 CA        -3.3867  -19.1393  -55.4489 C.3       22 UNK         0.1400 
    121 C         -3.3797  -20.5397  -56.1224 C.2       22 UNK         0.5000 
    122 N         -4.0261  -21.5595  -55.5718 N.am      22 UNK        -0.7600 
    123 O         -2.8173  -20.6976  -57.2031 O.2       22 UNK        -0.5000 
    124 C124       -4.2922  -19.0151  -54.1947 C.3       23 UNK        -0.0398 
    125 S125       -4.5642  -17.2820  -53.6852 S.3       23 UNK        -0.2404 
    126 C126       -4.4034  -17.3821  -51.8761 C.3       23 UNK        -0.0205 
    127 H127       -4.8875  -15.3669  -48.6766 H         1 UNK         0.0600 
    128 H128       -5.7556  -16.0532  -47.2877 H         1 UNK         0.0600 
    129 H129       -5.8481  -16.8290  -48.8671 H         1 UNK         0.0600 
    130 H130       -2.1679  -17.2086  -46.8985 H         1 UNK         0.3000 
    131 H131       -3.8430  -14.7481  -46.6337 H         1 UNK         0.0600 
    132 H132       -0.8751  -15.0747  -47.2524 H         1 UNK         0.0800 
    133 H133       -1.4451  -13.6749  -46.3824 H         1 UNK         0.0800 
    134 H134       -0.0314  -14.2103  -49.3839 H         1 UNK         0.0800 
    135 H135       -0.9915  -13.5181  -50.6660 H         1 UNK         0.0800 
    136 H136       -3.3979  -15.0553  -50.8892 H         1 UNK         0.1150 
    137 H137       -2.2655  -19.0798  -51.8195 H         1 UNK         0.1150 
    138 H138        0.5675  -16.4299  -50.0031 H         1 UNK         0.1150 
    139 H139        0.0262  -19.7278  -51.7066 H         1 UNK         0.0800 
    140 H140        1.2510  -18.5425  -51.3468 H         1 UNK         0.0800 
    141 H141       -1.7709  -20.0559  -49.5498 H         1 UNK         0.0800 
    142 H142       -1.3564  -19.0597  -48.1837 H         1 UNK         0.0800 
    143 H143       -1.0235  -22.0945  -48.3965 H         1 UNK         0.0600 
    144 H144        0.2488  -20.3890  -46.5349 H         1 UNK         0.3000 
    145 H145        0.1766  -22.5165  -43.7071 H         1 UNK         0.0600 
    146 H146        2.6838  -22.4207  -43.8219 H         1 UNK         0.0600 
    147 H147        2.0061  -23.6761  -44.8486 H         1 UNK         0.0600 
    148 H148        2.5826  -22.1832  -45.5666 H         1 UNK         0.0600 
    149 H149        1.6942  -20.1753  -44.1448 H         1 UNK         0.3000 
    150 H150       -0.9322  -17.7945  -43.7094 H         1 UNK         0.0600 
    151 H151       -0.3265  -18.4851  -41.3836 H         1 UNK         0.0600 
    152 H152        0.4790  -17.0067  -41.8731 H         1 UNK         0.0600 
    153 H153        1.3736  -18.5297  -41.8352 H         1 UNK         0.0600 
    154 H154        1.9662  -17.7344  -44.0808 H         1 UNK         0.3000 
    155 H155        1.8225  -17.4665  -47.6152 H         1 UNK         0.0600 
    156 H156        2.5745  -15.3186  -45.5698 H         1 UNK         0.0600 
    157 H157        1.3971  -15.1095  -46.8608 H         1 UNK         0.0600 
    158 H158        3.0837  -15.3883  -47.2534 H         1 UNK         0.0600 
    159 H159        3.9424  -17.3229  -45.6578 H         1 UNK         0.3000 
    160 H160        4.6187  -20.8211  -45.5816 H         1 UNK         0.0600 
    161 H161        6.1417  -18.6122  -47.0623 H         1 UNK         0.0600 
    162 H162        5.5973  -20.1253  -47.7764 H         1 UNK         0.0600 
    163 H163        6.8103  -20.1475  -46.5067 H         1 UNK         0.0600 
    164 H164        6.1515  -18.7095  -44.5610 H         1 UNK         0.3000 
    165 H165        5.3662  -19.2315  -41.4363 H         1 UNK         0.0600 
    166 H166        6.5615  -17.0416  -43.2273 H         1 UNK         0.0600 
    167 H167        7.0505  -17.4017  -41.5777 H         1 UNK         0.0600 
    168 H168        7.3133  -18.5903  -42.8358 H         1 UNK         0.0600 
    169 H169        4.1905  -17.5746  -40.5678 H         1 UNK         0.3000 
    170 H170        2.3434  -16.0373  -40.6268 H         1 UNK         0.0600 
    171 H171        4.6679  -14.0331  -40.8704 H         1 UNK         0.0600 
    172 H172        3.4010  -13.9733  -39.6466 H         1 UNK         0.0600 
    173 H173        4.5409  -15.3071  -39.6630 H         1 UNK         0.0600 
    174 H174        2.6600  -14.3138  -42.9572 H         1 UNK         0.3000 
    175 H175        0.7944  -11.9979  -42.4904 H         1 UNK         0.0600 
    176 H176        1.9305  -13.0902  -44.3521 H         1 UNK         0.0600 
    177 H177        0.3340  -12.6291  -44.9006 H         1 UNK         0.0600 
    178 H178        0.6652  -14.3089  -44.4889 H         1 UNK         0.0600 
    179 H179       -1.4678  -13.7697  -43.1989 H         1 UNK         0.3000 
    180 H180       -3.6184  -12.5179  -40.8184 H         1 UNK         0.0600 
    181 H181       -5.0853  -11.4286  -42.5082 H         1 UNK         0.0600 
    182 H182       -3.7161  -11.2395  -43.6050 H         1 UNK         0.0600 
    183 H183       -3.7539  -10.3691  -42.0766 H         1 UNK         0.0600 
    184 H184       -4.0704  -13.6516  -43.4466 H         1 UNK         0.3000 
    185 H185       -3.3148  -16.9736  -42.6618 H         1 UNK         0.0600 
    186 H186       -5.7212  -17.4588  -43.1257 H         1 UNK         0.0600 
    187 H187       -5.5199  -16.8405  -41.4973 H         1 UNK         0.0600 
    188 H188       -6.1445  -15.7890  -42.7614 H         1 UNK         0.0600 
    189 H189       -4.7504  -15.9934  -44.8542 H         1 UNK         0.3000 
    190 H190       -2.3508  -20.2301  -45.6665 H         1 UNK         0.3000 
    191 H191       -5.1273  -20.6101  -46.4465 H         1 UNK         0.0600 
    192 H192       -5.6239  -19.5548  -44.2931 H         1 UNK         0.0600 
    193 H193       -4.3795  -18.6289  -45.1199 H         1 UNK         0.0600 
    194 H194       -3.9510  -19.6836  -43.7737 H         1 UNK         0.0600 
    195 H195       -2.7700  -22.2379  -44.3335 H         1 UNK         0.3000 
    196 H196       -4.5715  -24.1728  -43.2010 H         1 UNK         0.0600 
    197 H197       -1.5430  -24.3645  -43.6371 H         1 UNK         0.0600 
    198 H198       -2.3237  -23.6444  -42.2297 H         1 UNK         0.0600 
    199 H199       -2.5080  -25.3602  -42.5606 H         1 UNK         0.0600 
    200 H200       -2.6874  -24.0206  -46.2011 H         1 UNK         0.3000 
    201 H201       -3.5302  -26.6136  -47.2141 H         1 UNK         0.0600 
    202 H202       -2.3374  -25.8782  -49.2479 H         1 UNK         0.0600 
    203 H203       -2.2261  -24.2346  -48.6383 H         1 UNK         0.0600 
    204 H204       -1.3506  -25.5357  -47.8365 H         1 UNK         0.0600 
    205 H205       -5.4241  -24.0291  -46.5977 H         1 UNK         0.3000 
    206 H206       -7.3877  -23.2621  -47.2196 H         1 UNK         0.0600 
    207 H207       -7.9866  -25.6844  -47.0289 H         1 UNK         0.0600 
    208 H208       -9.0035  -24.8482  -48.1895 H         1 UNK         0.0600 
    209 H209       -7.7071  -25.8917  -48.7574 H         1 UNK         0.0600 
    210 H210       -5.2145  -22.3511  -48.7896 H         1 UNK         0.3000 
    211 H211       -4.7449  -21.0078  -50.4422 H         1 UNK         0.0600 
    212 H212       -6.9126  -19.8841  -50.0331 H         1 UNK         0.0600 
    213 H213       -7.7186  -20.9616  -51.1739 H         1 UNK         0.0600 
    214 H214       -6.5056  -19.8347  -51.7396 H         1 UNK         0.0600 
    215 H215       -5.1157  -24.0974  -50.8973 H         1 UNK         0.3000 
    216 H216       -5.2190  -24.3021  -53.7986 H         1 UNK         0.0600 
    217 H217       -4.7256  -26.6680  -53.3808 H         1 UNK         0.0600 
    218 H218       -5.9486  -26.1408  -52.2341 H         1 UNK         0.0600 
    219 H219       -4.2740  -26.3375  -51.7153 H         1 UNK         0.0600 
    220 H220       -2.8406  -23.2422  -51.6451 H         1 UNK         0.3000 
    221 H221       -0.4274  -24.2721  -52.7170 H         1 UNK         0.0600 
    222 H222       -0.5203  -23.3223  -50.4805 H         1 UNK         0.0600 
    223 H223       -1.0627  -21.7640  -51.0991 H         1 UNK         0.0600 
    224 H224        0.5717  -22.3293  -51.4325 H         1 UNK         0.0600 
    225 H225        0.0940  -24.0800  -54.7669 H         1 UNK         0.3000 
    226 H226       -0.7279  -22.1480  -56.6104 H         1 UNK         0.0600 
    227 H227       -0.0878  -24.4763  -57.1744 H         1 UNK         0.0600 
    228 H228        0.8558  -23.3429  -58.1246 H         1 UNK         0.0600 
    229 H229        1.5907  -24.1454  -56.7418 H         1 UNK         0.0600 
    230 H230        1.5991  -21.6457  -54.2556 H         1 UNK         0.3000 
    231 H231        3.5750  -20.0716  -55.5549 H         1 UNK         0.0600 
    232 H232        2.5505  -20.0805  -52.6657 H         1 UNK         0.0600 
    233 H233        4.0075  -19.2545  -53.2059 H         1 UNK         0.0600 
    234 H234        3.9074  -21.0048  -53.3038 H         1 UNK         0.0600 
    235 H235        0.2696  -19.3218  -54.7052 H         1 UNK         0.3000 
    236 H236        0.4736  -16.8602  -56.1908 H         1 UNK         0.0600 
    237 H237        1.0996  -15.9791  -53.9186 H         1 UNK         0.0600 
    238 H238       -0.4277  -15.3220  -54.4848 H         1 UNK         0.0600 
    239 H239       -0.4230  -16.5936  -53.2799 H         1 UNK         0.0600 
    240 H240       -1.4883  -19.3471  -54.5810 H         1 UNK         0.3000 
    241 H241       -3.8301  -18.4948  -56.2098 H         1 UNK         0.0600 
    242 H242       -4.4991  -21.4898  -54.6732 H         1 UNK         0.3800 
    243 H243       -4.0172  -22.4443  -56.0520 H         1 UNK         0.3800 
    244 H244       -3.8686  -19.5890  -53.3712 H         1 UNK         0.0800 
    245 H245       -5.2787  -19.4368  -54.3928 H         1 UNK         0.0800 
    246 H246       -4.7222  -18.3593  -51.5143 H         1 UNK         0.0800 
    247 H247       -5.0920  -16.6630  -51.4304 H         1 UNK         0.0800 
@<TRIPOS>BOND
     1    1    2 1    
     2    1  127 1    
     3    1  128 1    
     4    1  129 1    
     5    2    3 2    
     6    2    4 am   BACKBONE|DICT|INTERRES
     7    4    5 1    
     8    4  130 1    
     9    5    6 1    
    10    5   65 1    
    11    5  131 1    
    12    6    7 1    
    13    6  132 1    
    14    6  133 1    
    15    7    8 1    
    16    8    9 1    
    17    8  134 1    
    18    8  135 1    
    19    9   10 ar   
    20    9   14 ar   
    21   10   11 ar   
    22   10  136 1    
    23   11   12 ar   
    24   11  126 1    
    25   12   13 ar   
    26   12  137 1    
    27   13   14 ar   
    28   13   15 1    
    29   14  138 1    
    30   15   16 1    
    31   15  139 1    
    32   15  140 1    
    33   16   17 1    
    34   17   18 1    
    35   17  141 1    
    36   17  142 1    
    37   18   19 1    
    38   18   67 1    
    39   18  143 1    
    40   19   20 am   BACKBONE|DICT|INTERRES
    41   19  144 1    
    42   20   21 2    
    43   20   22 1    
    44   22   23 1    
    45   22   24 1    
    46   22  145 1    
    47   23  146 1    
    48   23  147 1    
    49   23  148 1    
    50   24   25 am   BACKBONE|DICT|INTERRES
    51   24  149 1    
    52   25   26 2    
    53   25   27 1    
    54   27   28 1    
    55   27   29 1    
    56   27  150 1    
    57   28  151 1    
    58   28  152 1    
    59   28  153 1    
    60   29   30 am   BACKBONE|DICT|INTERRES
    61   29  154 1    
    62   30   31 2    
    63   30   32 1    
    64   32   33 1    
    65   32   34 1    
    66   32  155 1    
    67   33  156 1    
    68   33  157 1    
    69   33  158 1    
    70   34   35 am   BACKBONE|DICT|INTERRES
    71   34  159 1    
    72   35   36 2    
    73   35   37 1    
    74   37   38 1    
    75   37   39 1    
    76   37  160 1    
    77   38  161 1    
    78   38  162 1    
    79   38  163 1    
    80   39   40 am   BACKBONE|DICT|INTERRES
    81   39  164 1    
    82   40   41 2    
    83   40   42 1    
    84   42   43 1    
    85   42   44 1    
    86   42  165 1    
    87   43  166 1    
    88   43  167 1    
    89   43  168 1    
    90   44   45 am   BACKBONE|DICT|INTERRES
    91   44  169 1    
    92   45   46 2    
    93   45   47 1    
    94   47   48 1    
    95   47   49 1    
    96   47  170 1    
    97   48  171 1    
    98   48  172 1    
    99   48  173 1    
   100   49   50 am   BACKBONE|DICT|INTERRES
   101   49  174 1    
   102   50   51 2    
   103   50   52 1    
   104   52   53 1    
   105   52   54 1    
   106   52  175 1    
   107   53  176 1    
   108   53  177 1    
   109   53  178 1    
   110   54   55 am   BACKBONE|DICT|INTERRES
   111   54  179 1    
   112   55   56 2    
   113   55   57 1    
   114   57   58 1    
   115   57   59 1    
   116   57  180 1    
   117   58  181 1    
   118   58  182 1    
   119   58  183 1    
   120   59   60 am   BACKBONE|DICT|INTERRES
   121   59  184 1    
   122   60   61 2    
   123   60   62 1    
   124   62   63 1    
   125   62   64 1    
   126   62  185 1    
   127   63  186 1    
   128   63  187 1    
   129   63  188 1    
   130   64   65 am   BACKBONE|DICT|INTERRES
   131   64  189 1    
   132   65   66 2    
   133   67   68 2    
   134   67   69 am   BACKBONE|DICT|INTERRES
   135   69   70 1    
   136   69  190 1    
   137   70   71 1    
   138   70   72 1    
   139   70  191 1    
   140   71  192 1    
   141   71  193 1    
   142   71  194 1    
   143   72   73 2    
   144   72   74 am   BACKBONE|DICT|INTERRES
   145   74   75 1    
   146   74  195 1    
   147   75   76 1    
   148   75   77 1    
   149   75  196 1    
   150   76  197 1    
   151   76  198 1    
   152   76  199 1    
   153   77   78 2    
   154   77   79 am   BACKBONE|DICT|INTERRES
   155   79   80 1    
   156   79  200 1    
   157   80   81 1    
   158   80   82 1    
   159   80  201 1    
   160   81  202 1    
   161   81  203 1    
   162   81  204 1    
   163   82   83 2    
   164   82   84 am   BACKBONE|DICT|INTERRES
   165   84   85 1    
   166   84  205 1    
   167   85   86 1    
   168   85   87 1    
   169   85  206 1    
   170   86  207 1    
   171   86  208 1    
   172   86  209 1    
   173   87   88 2    
   174   87   89 am   BACKBONE|DICT|INTERRES
   175   89   90 1    
   176   89  210 1    
   177   90   91 1    
   178   90   92 1    
   179   90  211 1    
   180   91  212 1    
   181   91  213 1    
   182   91  214 1    
   183   92   93 2    
   184   92   94 am   BACKBONE|DICT|INTERRES
   185   94   95 1    
   186   94  215 1    
   187   95   96 1    
   188   95   97 1    
   189   95  216 1    
   190   96  217 1    
   191   96  218 1    
   192   96  219 1    
   193   97   98 2    
   194   97   99 am   BACKBONE|DICT|INTERRES
   195   99  100 1    
   196   99  220 1    
   197  100  101 1    
   198  100  102 1    
   199  100  221 1    
   200  101  222 1    
   201  101  223 1    
   202  101  224 1    
   203  102  103 2    
   204  102  104 am   BACKBONE|DICT|INTERRES
   205  104  105 1    
   206  104  225 1    
   207  105  106 1    
   208  105  107 1    
   209  105  226 1    
   210  106  227 1    
   211  106  228 1    
   212  106  229 1    
   213  107  108 2    
   214  107  109 am   BACKBONE|DICT|INTERRES
   215  109  110 1    
   216  109  230 1    
   217  110  111 1    
   218  110  112 1    
   219  110  231 1    
   220  111  232 1    
   221  111  233 1    
   222  111  234 1    
   223  112  113 2    
   224  112  114 am   BACKBONE|DICT|INTERRES
   225  114  115 1    
   226  114  235 1    
   227  115  116 1    
   228  115  117 1    
   229  115  236 1    
   230  116  237 1    
   231  116  238 1    
   232  116  239 1    
   233  117  118 2    
   234  117  119 am   BACKBONE|DICT|INTERRES
   235  119  120 1    
   236  119  240 1    
   237  120  121 1    
   238  120  124 1    
   239  120  241 1    
   240  121  122 am   BACKBONE|DICT|INTERRES
   241  121  123 2    
   242  122  242 1    
   243  122  243 1    
   244  124  125 1    
   245  124  244 1    
   246  124  245 1    
   247  125  126 1    
   248  126  246 1    
   249  126  247 1    
@<TRIPOS>SUBSTRUCTURE
     1 UNK         1 GROUP             0       ****    0 ROOT    
