@<TRIPOS>MOLECULE
3R540
247   249    1
SMALL
USER_CHARGES


@<TRIPOS>ATOM
      1 CA          5.4281  -11.4058  -48.8586 C.3       0 UNK        -0.1800 
      2 C           3.9750  -11.3070  -48.3980 C.2       0 UNK         0.5000 
      3 O           3.3182  -10.3084  -48.6853 O.2       0 UNK        -0.5000 
      4 N           3.4239  -12.3057  -47.6929 N.am      1 UNK        -0.5000 
      5 CA          4.0783  -13.5454  -47.2437 C.3       1 UNK         0.1400 
      6 C6          3.0483  -14.6383  -46.8722 C.3       23 UNK        -0.0398 
      7 S7          1.9232  -15.0265  -48.2588 S.3       23 UNK        -0.2404 
      8 C8          2.3043  -16.7863  -48.5595 C.3       23 UNK        -0.0205 
      9 C9          1.4320  -17.4598  -49.6197 C.ar      23 UNK        -0.0193 
     10 C10         0.1249  -17.0361  -49.8983 C.ar      23 UNK        -0.1150 
     11 C11        -0.6342  -17.6611  -50.8923 C.ar      23 UNK        -0.0193 
     12 C12        -0.0884  -18.7346  -51.5961 C.ar      23 UNK        -0.1150 
     13 C13         1.2003  -19.1897  -51.3121 C.ar      23 UNK        -0.0193 
     14 C14         1.9538  -18.5482  -50.3258 C.ar      23 UNK        -0.1150 
     15 C15         1.7872  -20.3582  -52.0879 C.3       23 UNK        -0.0205 
     16 S16         1.7361  -21.9076  -51.1357 S.3       23 UNK        -0.2404 
     17 C17        -0.0558  -22.2390  -51.0422 C.3       23 UNK        -0.0398 
     18 CA         -0.5260  -22.5086  -49.5962 C.3       11 UNK         0.1400 
     19 N          -0.2474  -21.4028  -48.6709 N.am      11 UNK        -0.5000 
     20 C          -0.2038  -21.5608  -47.3410 C.2       10 UNK         0.5000 
     21 O          -0.4333  -22.6309  -46.7788 O.2       10 UNK        -0.5000 
     22 CA          0.1093  -20.3187  -46.4886 C.3       10 UNK         0.1400 
     23 CB          1.6198  -20.0403  -46.5095 C.3       10 UNK        -0.1800 
     24 N          -0.6339  -19.1071  -46.8576 N.am      10 UNK        -0.5000 
     25 C          -1.9671  -19.0204  -46.9969 C.2       9 UNK         0.5000 
     26 O          -2.7216  -19.9905  -46.9158 O.2       9 UNK        -0.5000 
     27 CA         -2.5474  -17.6126  -47.2205 C.3       9 UNK         0.1400 
     28 CB         -4.0825  -17.5548  -47.1137 C.3       9 UNK        -0.1800 
     29 N          -1.9561  -16.6885  -46.2608 N.am      9 UNK        -0.5000 
     30 C          -1.5756  -15.4332  -46.5227 C.2       8 UNK         0.5000 
     31 O          -1.7884  -14.8678  -47.5956 O.2       8 UNK        -0.5000 
     32 CA         -0.8253  -14.6731  -45.4059 C.3       8 UNK         0.1400 
     33 CB         -1.6966  -13.5390  -44.8463 C.3       8 UNK        -0.1800 
     34 N          -0.3582  -15.5066  -44.2901 N.am      8 UNK        -0.5000 
     35 C           0.5341  -16.5045  -44.3822 C.2       7 UNK         0.5000 
     36 O           1.0453  -16.8472  -45.4443 O.2       7 UNK        -0.5000 
     37 CA          0.9099  -17.2737  -43.1024 C.3       7 UNK         0.1400 
     38 CB          2.4213  -17.1850  -42.8361 C.3       7 UNK        -0.1800 
     39 N           0.1827  -16.8104  -41.9209 N.am      7 UNK        -0.5000 
     40 C          -1.0434  -17.2176  -41.5639 C.2       6 UNK         0.5000 
     41 O          -1.6977  -18.0442  -42.1994 O.2       6 UNK        -0.5000 
     42 CA         -1.6451  -16.5845  -40.2930 C.3       6 UNK         0.1400 
     43 CB         -1.4399  -17.5119  -39.0857 C.3       6 UNK        -0.1800 
     44 N          -1.0750  -15.2708  -39.9830 N.am      6 UNK        -0.5000 
     45 C          -1.3183  -14.1499  -40.6776 C.2       5 UNK         0.5000 
     46 O          -2.0966  -14.0947  -41.6284 O.2       5 UNK        -0.5000 
     47 CA         -0.5150  -12.8983  -40.2712 C.3       5 UNK         0.1400 
     48 CB         -1.2470  -12.1187  -39.1687 C.3       5 UNK        -0.1800 
     49 N           0.8418  -13.2253  -39.8191 N.am      5 UNK        -0.5000 
     50 C           1.7941  -13.7305  -40.6132 C.2       4 UNK         0.5000 
     51 O           1.6488  -13.9107  -41.8254 O.2       4 UNK        -0.5000 
     52 CA          3.0941  -14.1743  -39.9308 C.3       4 UNK         0.1400 
     53 CB          2.8673  -15.5058  -39.1834 C.3       4 UNK        -0.1800 
     54 N           4.1196  -14.3257  -40.9581 N.am      4 UNK        -0.5000 
     55 C           5.4219  -14.5527  -40.7584 C.2       3 UNK         0.5000 
     56 O           5.9384  -14.6678  -39.6461 O.2       3 UNK        -0.5000 
     57 CA          6.3050  -14.6556  -42.0168 C.3       3 UNK         0.1400 
     58 CB          6.2945  -16.0899  -42.5679 C.3       3 UNK        -0.1800 
     59 N           5.9375  -13.7293  -43.0915 N.am      3 UNK        -0.5000 
     60 C           5.9684  -12.3937  -43.0127 C.2       2 UNK         0.5000 
     61 O           6.2343  -11.7841  -41.9759 O.2       2 UNK        -0.5000 
     62 CA          5.6744  -11.5788  -44.2912 C.3       2 UNK         0.1400 
     63 CB          6.9878  -11.0764  -44.9213 C.3       2 UNK        -0.1800 
     64 N           4.8266  -12.2084  -45.3169 N.am      2 UNK        -0.5000 
     65 C           5.0530  -13.2964  -46.0707 C.2       1 UNK         0.5000 
     66 O           5.9922  -14.0713  -45.8950 O.2       1 UNK        -0.5000 
     67 C          -2.0060  -22.9404  -49.5756 C.2       11 UNK         0.5000 
     68 O          -2.2947  -24.0814  -49.9374 O.2       11 UNK        -0.5000 
     69 N          -2.9166  -22.0588  -49.1408 N.am      12 UNK        -0.5000 
     70 CA         -4.3190  -22.4028  -48.9157 C.3       12 UNK         0.1400 
     71 CB         -5.1900  -21.1434  -48.9672 C.3       12 UNK        -0.1800 
     72 C          -4.4929  -23.1426  -47.5818 C.2       12 UNK         0.5000 
     73 O          -5.1953  -24.1514  -47.5389 O.2       12 UNK        -0.5000 
     74 N          -3.8041  -22.6661  -46.5346 N.am      13 UNK        -0.5000 
     75 CA         -3.7583  -23.2838  -45.2069 C.3       13 UNK         0.1400 
     76 CB         -3.0010  -22.3587  -44.2421 C.3       13 UNK        -0.1800 
     77 C          -3.1355  -24.6940  -45.2236 C.2       13 UNK         0.5000 
     78 O          -3.6306  -25.5884  -44.5374 O.2       13 UNK        -0.5000 
     79 N          -2.0908  -24.8757  -46.0427 N.am      14 UNK        -0.5000 
     80 CA         -1.4390  -26.1601  -46.3081 C.3       14 UNK         0.1400 
     81 CB         -0.0481  -25.8892  -46.9039 C.3       14 UNK        -0.1800 
     82 C          -2.2438  -27.0831  -47.2478 C.2       14 UNK         0.5000 
     83 O          -1.8840  -28.2532  -47.3817 O.2       14 UNK        -0.5000 
     84 N          -3.2879  -26.5445  -47.8982 N.am      15 UNK        -0.5000 
     85 CA         -4.1400  -27.1832  -48.9088 C.3       15 UNK         0.1400 
     86 CB         -4.9608  -28.3353  -48.2940 C.3       15 UNK        -0.1800 
     87 C          -3.3710  -27.5964  -50.1835 C.2       15 UNK         0.5000 
     88 O          -3.7390  -28.5691  -50.8440 O.2       15 UNK        -0.5000 
     89 N          -2.3183  -26.8374  -50.5088 N.am      16 UNK        -0.5000 
     90 CA         -1.4652  -27.0263  -51.6787 C.3       16 UNK         0.1400 
     91 CB         -0.0382  -26.5772  -51.3261 C.3       16 UNK        -0.1800 
     92 C          -1.9881  -26.2474  -52.8979 C.2       16 UNK         0.5000 
     93 O          -1.8269  -26.7160  -54.0253 O.2       16 UNK        -0.5000 
     94 N          -2.6044  -25.0823  -52.6561 N.am      17 UNK        -0.5000 
     95 CA         -3.1459  -24.1933  -53.6858 C.3       17 UNK         0.1400 
     96 CB         -2.0627  -23.2043  -54.1527 C.3       17 UNK        -0.1800 
     97 C          -4.4260  -23.4904  -53.2013 C.2       17 UNK         0.5000 
     98 O          -4.6946  -22.3530  -53.6011 O.2       17 UNK        -0.5000 
     99 N          -5.2027  -24.1843  -52.3573 N.am      18 UNK        -0.5000 
    100 CA        -6.5037  -23.7409  -51.8577 C.3       18 UNK         0.1400 
    101 CB        -7.0278  -24.7485  -50.8231 C.3       18 UNK        -0.1800 
    102 C         -7.5108  -23.5551  -53.0058 C.2       18 UNK         0.5000 
    103 O         -7.7656  -24.5024  -53.7518 O.2       18 UNK        -0.5000 
    104 N         -8.0192  -22.3244  -53.1349 N.am      19 UNK        -0.5000 
    105 CA        -8.9055  -21.8105  -54.1839 C.3       19 UNK         0.1400 
    106 CB       -10.2274  -22.6038  -54.2480 C.3       19 UNK        -0.1800 
    107 C         -8.2313  -21.6702  -55.5666 C.2       19 UNK         0.5000 
    108 O         -8.9231  -21.3625  -56.5388 O.2       19 UNK        -0.5000 
    109 N         -6.9068  -21.8630  -55.6367 N.am      20 UNK        -0.5000 
    110 CA        -6.0972  -21.6789  -56.8387 C.3       20 UNK         0.1400 
    111 CB        -5.2196  -22.9200  -57.0719 C.3       20 UNK        -0.1800 
    112 C         -5.2474  -20.4080  -56.7032 C.2       20 UNK         0.5000 
    113 O         -5.3269  -19.5341  -57.5675 O.2       20 UNK        -0.5000 
    114 N         -4.4713  -20.3155  -55.6147 N.am      21 UNK        -0.5000 
    115 CA        -3.6427  -19.1524  -55.2955 C.3       21 UNK         0.1400 
    116 CB        -2.3116  -19.6251  -54.6931 C.3       21 UNK        -0.1800 
    117 C         -4.3562  -18.2043  -54.3198 C.2       21 UNK         0.5000 
    118 O         -4.2422  -16.9865  -54.4637 O.2       21 UNK        -0.5000 
    119 N         -5.0725  -18.7755  -53.3468 N.am      22 UNK        -0.5000 
    120 CA        -5.7676  -18.0676  -52.2658 C.3       22 UNK         0.1400 
    121 C         -6.7835  -18.9951  -51.5478 C.2       22 UNK         0.5000 
    122 N         -7.6103  -18.4614  -50.6596 N.am      22 UNK        -0.7600 
    123 O         -6.8471  -20.1969  -51.7950 O.2       22 UNK        -0.5000 
    124 C124       -4.8068  -17.3300  -51.2834 C.3       23 UNK        -0.0398 
    125 S125       -3.3429  -18.2889  -50.7407 S.3       23 UNK        -0.2404 
    126 C126       -2.0199  -17.1463  -51.2492 C.3       23 UNK        -0.0205 
    127 H127        5.5929  -12.3088  -49.4457 H         1 UNK         0.0600 
    128 H128        6.1100  -11.4067  -48.0092 H         1 UNK         0.0600 
    129 H129        5.6862  -10.5538  -49.4879 H         1 UNK         0.0600 
    130 H130        2.4477  -12.2288  -47.4462 H         1 UNK         0.3000 
    131 H131        4.6735  -13.9362  -48.0708 H         1 UNK         0.0600 
    132 H132        3.5559  -15.5517  -46.5561 H         1 UNK         0.0800 
    133 H133        2.4442  -14.3234  -46.0201 H         1 UNK         0.0800 
    134 H134        2.2048  -17.3419  -47.6294 H         1 UNK         0.0800 
    135 H135        3.3536  -16.8568  -48.8501 H         1 UNK         0.0800 
    136 H136       -0.3009  -16.2027  -49.3595 H         1 UNK         0.1150 
    137 H137       -0.6704  -19.2131  -52.3690 H         1 UNK         0.1150 
    138 H138        2.9547  -18.8974  -50.1129 H         1 UNK         0.1150 
    139 H139        1.2641  -20.4970  -53.0356 H         1 UNK         0.0800 
    140 H140        2.8243  -20.1368  -52.3439 H         1 UNK         0.0800 
    141 H141       -0.2478  -23.1106  -51.6698 H         1 UNK         0.0800 
    142 H142       -0.6235  -21.4200  -51.4820 H         1 UNK         0.0800 
    143 H143        0.0406  -23.3734  -49.2444 H         1 UNK         0.0600 
    144 H144       -0.0431  -20.4997  -49.0748 H         1 UNK         0.3000 
    145 H145       -0.1715  -20.5567  -45.4608 H         1 UNK         0.0600 
    146 H146        1.9584  -19.7323  -47.4988 H         1 UNK         0.0600 
    147 H147        1.8948  -19.2636  -45.7978 H         1 UNK         0.0600 
    148 H148        2.1844  -20.9331  -46.2371 H         1 UNK         0.0600 
    149 H149       -0.0924  -18.2525  -46.8980 H         1 UNK         0.3000 
    150 H150       -2.2611  -17.3190  -48.2301 H         1 UNK         0.0600 
    151 H151       -4.5514  -18.1885  -47.8660 H         1 UNK         0.0600 
    152 H152       -4.4502  -16.5416  -47.2753 H         1 UNK         0.0600 
    153 H153       -4.4301  -17.8872  -46.1349 H         1 UNK         0.0600 
    154 H154       -1.7367  -17.0733  -45.3527 H         1 UNK         0.3000 
    155 H155        0.0537  -14.2226  -45.8685 H         1 UNK         0.0600 
    156 H156       -2.0148  -12.8599  -45.6383 H         1 UNK         0.0600 
    157 H157       -1.1500  -12.9464  -44.1123 H         1 UNK         0.0600 
    158 H158       -2.5955  -13.9260  -44.3649 H         1 UNK         0.0600 
    159 H159       -0.7339  -15.2826  -43.3792 H         1 UNK         0.3000 
    160 H160        0.6663  -18.3235  -43.2793 H         1 UNK         0.0600 
    161 H161        2.7493  -16.1540  -42.7128 H         1 UNK         0.0600 
    162 H162        2.9890  -17.6082  -43.6660 H         1 UNK         0.0600 
    163 H163        2.7004  -17.7392  -41.9401 H         1 UNK         0.0600 
    164 H164        0.6279  -16.0846  -41.3794 H         1 UNK         0.3000 
    165 H165       -2.7183  -16.4668  -40.4575 H         1 UNK         0.0600 
    166 H166       -1.9179  -17.1088  -38.1927 H         1 UNK         0.0600 
    167 H167       -1.8754  -18.4950  -39.2697 H         1 UNK         0.0600 
    168 H168       -0.3817  -17.6578  -38.8646 H         1 UNK         0.0600 
    169 H169       -0.4334  -15.2261  -39.2055 H         1 UNK         0.3000 
    170 H170       -0.4363  -12.2553  -41.1507 H         1 UNK         0.0600 
    171 H171       -2.2538  -11.8454  -39.4875 H         1 UNK         0.0600 
    172 H172       -1.3401  -12.7040  -38.2531 H         1 UNK         0.0600 
    173 H173       -0.7227  -11.1944  -38.9252 H         1 UNK         0.0600 
    174 H174        1.0331  -13.1003  -38.8351 H         1 UNK         0.3000 
    175 H175        3.4062  -13.3981  -39.2294 H         1 UNK         0.0600 
    176 H176        2.5905  -16.3088  -39.8668 H         1 UNK         0.0600 
    177 H177        3.7596  -15.8229  -38.6445 H         1 UNK         0.0600 
    178 H178        2.0710  -15.4151  -38.4439 H         1 UNK         0.0600 
    179 H179        3.7728  -14.2087  -41.9023 H         1 UNK         0.3000 
    180 H180        7.3273  -14.4172  -41.7160 H         1 UNK         0.0600 
    181 H181        5.3090  -16.3710  -42.9398 H         1 UNK         0.0600 
    182 H182        6.5726  -16.8089  -41.7961 H         1 UNK         0.0600 
    183 H183        7.0050  -16.2021  -43.3871 H         1 UNK         0.0600 
    184 H184        5.7943  -14.1286  -44.0138 H         1 UNK         0.3000 
    185 H185        5.1186  -10.7002  -43.9598 H         1 UNK         0.0600 
    186 H186        7.5991  -11.8983  -45.2953 H         1 UNK         0.0600 
    187 H187        6.7926  -10.3975  -45.7513 H         1 UNK         0.0600 
    188 H188        7.5883  -10.5301  -44.1927 H         1 UNK         0.0600 
    189 H189        3.9963  -11.6791  -45.5452 H         1 UNK         0.3000 
    190 H190       -2.6115  -21.1558  -48.8017 H         1 UNK         0.3000 
    191 H191       -4.6454  -23.0668  -49.7163 H         1 UNK         0.0600 
    192 H192       -5.0017  -20.5845  -49.8813 H         1 UNK         0.0600 
    193 H193       -6.2493  -21.4017  -48.9541 H         1 UNK         0.0600 
    194 H194       -5.0045  -20.4807  -48.1233 H         1 UNK         0.0600 
    195 H195       -3.2790  -21.8037  -46.6545 H         1 UNK         0.3000 
    196 H196       -4.7862  -23.3796  -44.8512 H         1 UNK         0.0600 
    197 H197       -2.9894  -22.7723  -43.2330 H         1 UNK         0.0600 
    198 H198       -3.4709  -21.3764  -44.1869 H         1 UNK         0.0600 
    199 H199       -1.9652  -22.2150  -44.5500 H         1 UNK         0.0600 
    200 H200       -1.6849  -24.0609  -46.4957 H         1 UNK         0.3000 
    201 H201       -1.3098  -26.6869  -45.3605 H         1 UNK         0.0600 
    202 H202        0.5535  -25.2697  -46.2384 H         1 UNK         0.0600 
    203 H203       -0.1172  -25.3800  -47.8655 H         1 UNK         0.0600 
    204 H204        0.4994  -26.8189  -47.0642 H         1 UNK         0.0600 
    205 H205       -3.5219  -25.5818  -47.6924 H         1 UNK         0.3000 
    206 H206       -4.8461  -26.4170  -49.2266 H         1 UNK         0.0600 
    207 H207       -4.3302  -29.1791  -48.0131 H         1 UNK         0.0600 
    208 H208       -5.4963  -28.0045  -47.4040 H         1 UNK         0.0600 
    209 H209       -5.7053  -28.7050  -48.9999 H         1 UNK         0.0600 
    210 H210       -2.1436  -26.0037  -49.9571 H         1 UNK         0.3000 
    211 H211       -1.4335  -28.0858  -51.9417 H         1 UNK         0.0600 
    212 H212        0.6346  -26.7100  -52.1742 H         1 UNK         0.0600 
    213 H213        0.3631  -27.1612  -50.4975 H         1 UNK         0.0600 
    214 H214       -0.0034  -25.5258  -51.0397 H         1 UNK         0.0600 
    215 H215       -2.6724  -24.7568  -51.6955 H         1 UNK         0.3000 
    216 H216       -3.4502  -24.7907  -54.5476 H         1 UNK         0.0600 
    217 H217       -2.4004  -22.6393  -55.0214 H         1 UNK         0.0600 
    218 H218       -1.1475  -23.7205  -54.4424 H         1 UNK         0.0600 
    219 H219       -1.8137  -22.4881  -53.3714 H         1 UNK         0.0600 
    220 H220       -4.9322  -25.1296  -52.1325 H         1 UNK         0.3000 
    221 H221       -6.3605  -22.7832  -51.3547 H         1 UNK         0.0600 
    222 H222       -7.1162  -25.7512  -51.2431 H         1 UNK         0.0600 
    223 H223       -6.3718  -24.8019  -49.9561 H         1 UNK         0.0600 
    224 H224       -8.0140  -24.4560  -50.4603 H         1 UNK         0.0600 
    225 H225       -7.6630  -21.6029  -52.5063 H         1 UNK         0.3000 
    226 H226       -9.1537  -20.7937  -53.8762 H         1 UNK         0.0600 
    227 H227      -10.6834  -22.6922  -53.2619 H         1 UNK         0.0600 
    228 H228      -10.9505  -22.1050  -54.8942 H         1 UNK         0.0600 
    229 H229      -10.0812  -23.6091  -54.6435 H         1 UNK         0.0600 
    230 H230       -6.4063  -22.0849  -54.7844 H         1 UNK         0.3000 
    231 H231       -6.7344  -21.5592  -57.7174 H         1 UNK         0.0600 
    232 H232       -4.5354  -23.1026  -56.2450 H         1 UNK         0.0600 
    233 H233       -4.6181  -22.8060  -57.9745 H         1 UNK         0.0600 
    234 H234       -5.8318  -23.8129  -57.1997 H         1 UNK         0.0600 
    235 H235       -4.4788  -21.0704  -54.9340 H         1 UNK         0.3000 
    236 H236       -3.4145  -18.5911  -56.2041 H         1 UNK         0.0600 
    237 H237       -1.7750  -20.2767  -55.3823 H         1 UNK         0.0600 
    238 H238       -1.6623  -18.7753  -54.4802 H         1 UNK         0.0600 
    239 H239       -2.4635  -20.1682  -53.7596 H         1 UNK         0.0600 
    240 H240       -5.1404  -19.7834  -53.2908 H         1 UNK         0.3000 
    241 H241       -6.3872  -17.3112  -52.7509 H         1 UNK         0.0600 
    242 H242       -8.2738  -19.0610  -50.1956 H         1 UNK         0.3800 
    243 H243       -7.6059  -17.4762  -50.4480 H         1 UNK         0.3800 
    244 H244       -4.4645  -16.4147  -51.7671 H         1 UNK         0.0800 
    245 H245       -5.3339  -16.9869  -50.3923 H         1 UNK         0.0800 
    246 H246       -2.0756  -16.9886  -52.3274 H         1 UNK         0.0800 
    247 H247       -2.1921  -16.1737  -50.7848 H         1 UNK         0.0800 
@<TRIPOS>BOND
     1    1    2 1    
     2    1  127 1    
     3    1  128 1    
     4    1  129 1    
     5    2    3 2    
     6    2    4 am   BACKBONE|DICT|INTERRES
     7    4    5 1    
     8    4  130 1    
     9    5    6 1    
    10    5   65 1    
    11    5  131 1    
    12    6    7 1    
    13    6  132 1    
    14    6  133 1    
    15    7    8 1    
    16    8    9 1    
    17    8  134 1    
    18    8  135 1    
    19    9   10 ar   
    20    9   14 ar   
    21   10   11 ar   
    22   10  136 1    
    23   11   12 ar   
    24   11  126 1    
    25   12   13 ar   
    26   12  137 1    
    27   13   14 ar   
    28   13   15 1    
    29   14  138 1    
    30   15   16 1    
    31   15  139 1    
    32   15  140 1    
    33   16   17 1    
    34   17   18 1    
    35   17  141 1    
    36   17  142 1    
    37   18   19 1    
    38   18   67 1    
    39   18  143 1    
    40   19   20 am   BACKBONE|DICT|INTERRES
    41   19  144 1    
    42   20   21 2    
    43   20   22 1    
    44   22   23 1    
    45   22   24 1    
    46   22  145 1    
    47   23  146 1    
    48   23  147 1    
    49   23  148 1    
    50   24   25 am   BACKBONE|DICT|INTERRES
    51   24  149 1    
    52   25   26 2    
    53   25   27 1    
    54   27   28 1    
    55   27   29 1    
    56   27  150 1    
    57   28  151 1    
    58   28  152 1    
    59   28  153 1    
    60   29   30 am   BACKBONE|DICT|INTERRES
    61   29  154 1    
    62   30   31 2    
    63   30   32 1    
    64   32   33 1    
    65   32   34 1    
    66   32  155 1    
    67   33  156 1    
    68   33  157 1    
    69   33  158 1    
    70   34   35 am   BACKBONE|DICT|INTERRES
    71   34  159 1    
    72   35   36 2    
    73   35   37 1    
    74   37   38 1    
    75   37   39 1    
    76   37  160 1    
    77   38  161 1    
    78   38  162 1    
    79   38  163 1    
    80   39   40 am   BACKBONE|DICT|INTERRES
    81   39  164 1    
    82   40   41 2    
    83   40   42 1    
    84   42   43 1    
    85   42   44 1    
    86   42  165 1    
    87   43  166 1    
    88   43  167 1    
    89   43  168 1    
    90   44   45 am   BACKBONE|DICT|INTERRES
    91   44  169 1    
    92   45   46 2    
    93   45   47 1    
    94   47   48 1    
    95   47   49 1    
    96   47  170 1    
    97   48  171 1    
    98   48  172 1    
    99   48  173 1    
   100   49   50 am   BACKBONE|DICT|INTERRES
   101   49  174 1    
   102   50   51 2    
   103   50   52 1    
   104   52   53 1    
   105   52   54 1    
   106   52  175 1    
   107   53  176 1    
   108   53  177 1    
   109   53  178 1    
   110   54   55 am   BACKBONE|DICT|INTERRES
   111   54  179 1    
   112   55   56 2    
   113   55   57 1    
   114   57   58 1    
   115   57   59 1    
   116   57  180 1    
   117   58  181 1    
   118   58  182 1    
   119   58  183 1    
   120   59   60 am   BACKBONE|DICT|INTERRES
   121   59  184 1    
   122   60   61 2    
   123   60   62 1    
   124   62   63 1    
   125   62   64 1    
   126   62  185 1    
   127   63  186 1    
   128   63  187 1    
   129   63  188 1    
   130   64   65 am   BACKBONE|DICT|INTERRES
   131   64  189 1    
   132   65   66 2    
   133   67   68 2    
   134   67   69 am   BACKBONE|DICT|INTERRES
   135   69   70 1    
   136   69  190 1    
   137   70   71 1    
   138   70   72 1    
   139   70  191 1    
   140   71  192 1    
   141   71  193 1    
   142   71  194 1    
   143   72   73 2    
   144   72   74 am   BACKBONE|DICT|INTERRES
   145   74   75 1    
   146   74  195 1    
   147   75   76 1    
   148   75   77 1    
   149   75  196 1    
   150   76  197 1    
   151   76  198 1    
   152   76  199 1    
   153   77   78 2    
   154   77   79 am   BACKBONE|DICT|INTERRES
   155   79   80 1    
   156   79  200 1    
   157   80   81 1    
   158   80   82 1    
   159   80  201 1    
   160   81  202 1    
   161   81  203 1    
   162   81  204 1    
   163   82   83 2    
   164   82   84 am   BACKBONE|DICT|INTERRES
   165   84   85 1    
   166   84  205 1    
   167   85   86 1    
   168   85   87 1    
   169   85  206 1    
   170   86  207 1    
   171   86  208 1    
   172   86  209 1    
   173   87   88 2    
   174   87   89 am   BACKBONE|DICT|INTERRES
   175   89   90 1    
   176   89  210 1    
   177   90   91 1    
   178   90   92 1    
   179   90  211 1    
   180   91  212 1    
   181   91  213 1    
   182   91  214 1    
   183   92   93 2    
   184   92   94 am   BACKBONE|DICT|INTERRES
   185   94   95 1    
   186   94  215 1    
   187   95   96 1    
   188   95   97 1    
   189   95  216 1    
   190   96  217 1    
   191   96  218 1    
   192   96  219 1    
   193   97   98 2    
   194   97   99 am   BACKBONE|DICT|INTERRES
   195   99  100 1    
   196   99  220 1    
   197  100  101 1    
   198  100  102 1    
   199  100  221 1    
   200  101  222 1    
   201  101  223 1    
   202  101  224 1    
   203  102  103 2    
   204  102  104 am   BACKBONE|DICT|INTERRES
   205  104  105 1    
   206  104  225 1    
   207  105  106 1    
   208  105  107 1    
   209  105  226 1    
   210  106  227 1    
   211  106  228 1    
   212  106  229 1    
   213  107  108 2    
   214  107  109 am   BACKBONE|DICT|INTERRES
   215  109  110 1    
   216  109  230 1    
   217  110  111 1    
   218  110  112 1    
   219  110  231 1    
   220  111  232 1    
   221  111  233 1    
   222  111  234 1    
   223  112  113 2    
   224  112  114 am   BACKBONE|DICT|INTERRES
   225  114  115 1    
   226  114  235 1    
   227  115  116 1    
   228  115  117 1    
   229  115  236 1    
   230  116  237 1    
   231  116  238 1    
   232  116  239 1    
   233  117  118 2    
   234  117  119 am   BACKBONE|DICT|INTERRES
   235  119  120 1    
   236  119  240 1    
   237  120  121 1    
   238  120  124 1    
   239  120  241 1    
   240  121  122 am   BACKBONE|DICT|INTERRES
   241  121  123 2    
   242  122  242 1    
   243  122  243 1    
   244  124  125 1    
   245  124  244 1    
   246  124  245 1    
   247  125  126 1    
   248  126  246 1    
   249  126  247 1    
@<TRIPOS>SUBSTRUCTURE
     1 UNK         1 GROUP             0       ****    0 ROOT    
