@<TRIPOS>MOLECULE
3R540
247   249    1
SMALL
USER_CHARGES


@<TRIPOS>ATOM
      1 CA         -5.0602  -11.8482  -45.7643 C.3       0 UNK        -0.1800 
      2 C          -3.8882  -12.7708  -46.0618 C.2       0 UNK         0.5000 
      3 O          -2.8016  -12.2961  -46.3863 O.2       0 UNK        -0.5000 
      4 N          -4.0908  -14.0872  -45.9338 N.am      1 UNK        -0.5000 
      5 CA         -3.1005  -15.1351  -46.2211 C.3       1 UNK         0.1400 
      6 C6         -3.7237  -16.5449  -46.0953 C.3       23 UNK        -0.0398 
      7 S7         -4.9910  -16.8296  -47.3798 S.3       23 UNK        -0.2404 
      8 C8         -4.1558  -18.0241  -48.4679 C.3       23 UNK        -0.0205 
      9 C9         -3.0401  -17.4000  -49.2908 C.ar      23 UNK        -0.0193 
     10 C10        -3.3050  -16.9137  -50.5731 C.ar      23 UNK        -0.1150 
     11 C11        -2.2841  -16.3721  -51.3601 C.ar      23 UNK        -0.0193 
     12 C12        -0.9908  -16.2901  -50.8298 C.ar      23 UNK        -0.1150 
     13 C13        -0.7110  -16.7779  -49.5514 C.ar      23 UNK        -0.0193 
     14 C14        -1.7377  -17.3385  -48.7896 C.ar      23 UNK        -0.1150 
     15 C15         0.6994  -16.6837  -48.9958 C.3       23 UNK        -0.0205 
     16 S16         1.6264  -18.2280  -49.2468 S.3       23 UNK        -0.2404 
     17 C17         1.2785  -19.1186  -47.6946 C.3       23 UNK        -0.0398 
     18 CA          1.1155  -20.6480  -47.8761 C.3       11 UNK         0.1400 
     19 N           1.3428  -21.3596  -46.6162 N.am      11 UNK        -0.5000 
     20 C           1.7117  -22.6450  -46.5187 C.2       10 UNK         0.5000 
     21 O           2.0247  -23.3400  -47.4848 O.2       10 UNK        -0.5000 
     22 CA          1.7013  -23.2741  -45.1107 C.3       10 UNK         0.1400 
     23 CB          3.1160  -23.3485  -44.5180 C.3       10 UNK        -0.1800 
     24 N           0.8171  -22.5649  -44.1824 N.am      10 UNK        -0.5000 
     25 C          -0.5189  -22.6721  -44.2060 C.2       9 UNK         0.5000 
     26 O          -1.1218  -23.4093  -44.9851 O.2       9 UNK        -0.5000 
     27 CA         -1.3206  -21.7747  -43.2424 C.3       9 UNK         0.1400 
     28 CB         -1.5356  -22.4876  -41.8996 C.3       9 UNK        -0.1800 
     29 N          -0.7060  -20.4679  -43.0001 N.am      9 UNK        -0.5000 
     30 C          -0.4401  -19.5471  -43.9366 C.2       8 UNK         0.5000 
     31 O          -0.7033  -19.6990  -45.1291 O.2       8 UNK        -0.5000 
     32 CA          0.2787  -18.2611  -43.4821 C.3       8 UNK         0.1400 
     33 CB          0.0752  -17.9389  -41.9863 C.3       8 UNK        -0.1800 
     34 N           1.7118  -18.2585  -43.7954 N.am      8 UNK        -0.5000 
     35 C           2.6203  -19.2084  -43.5093 C.2       7 UNK         0.5000 
     36 O           2.3405  -20.3102  -43.0359 O.2       7 UNK        -0.5000 
     37 CA          4.1043  -18.8723  -43.7712 C.3       7 UNK         0.1400 
     38 CB          4.5569  -19.4062  -45.1397 C.3       7 UNK        -0.1800 
     39 N           4.4008  -17.4420  -43.7140 N.am      7 UNK        -0.5000 
     40 C           4.2583  -16.6456  -42.6448 C.2       6 UNK         0.5000 
     41 O           3.9911  -17.0562  -41.5153 O.2       6 UNK        -0.5000 
     42 CA          4.4120  -15.1284  -42.8887 C.3       6 UNK         0.1400 
     43 CB          5.7525  -14.6255  -42.3310 C.3       6 UNK        -0.1800 
     44 N           4.3061  -14.7327  -44.2999 N.am      6 UNK        -0.5000 
     45 C           3.2147  -14.8831  -45.0621 C.2       5 UNK         0.5000 
     46 O           2.1713  -15.4092  -44.6705 O.2       5 UNK        -0.5000 
     47 CA          3.3419  -14.4571  -46.5267 C.3       5 UNK         0.1400 
     48 CB          3.7302  -15.6624  -47.4009 C.3       5 UNK        -0.1800 
     49 N           2.0716  -13.8859  -46.9584 N.am      5 UNK        -0.5000 
     50 C           1.9312  -13.0313  -47.9793 C.2       4 UNK         0.5000 
     51 O           2.8340  -12.7559  -48.7707 O.2       4 UNK        -0.5000 
     52 CA          0.5738  -12.3152  -48.1093 C.3       4 UNK         0.1400 
     53 CB         -0.4445  -13.1877  -48.8580 C.3       4 UNK        -0.1800 
     54 N           0.0155  -11.9143  -46.8175 N.am      4 UNK        -0.5000 
     55 C           0.5753  -11.0465  -45.9604 C.2       3 UNK         0.5000 
     56 O           1.6215  -10.4368  -46.1844 O.2       3 UNK        -0.5000 
     57 CA         -0.1445  -10.8410  -44.6162 C.3       3 UNK         0.1400 
     58 CB         -1.2116   -9.7402  -44.7239 C.3       3 UNK        -0.1800 
     59 N          -0.7629  -12.0853  -44.1577 N.am      3 UNK        -0.5000 
     60 C          -0.1242  -13.0220  -43.4424 C.2       2 UNK         0.5000 
     61 O           1.0134  -12.8744  -42.9951 O.2       2 UNK        -0.5000 
     62 CA         -0.8736  -14.3417  -43.1692 C.3       2 UNK         0.1400 
     63 CB         -1.4197  -14.3673  -41.7337 C.3       2 UNK        -0.1800 
     64 N          -1.9772  -14.5902  -44.1003 N.am      2 UNK        -0.5000 
     65 C          -1.8232  -15.0198  -45.3609 C.2       1 UNK         0.5000 
     66 O          -0.7318  -15.2829  -45.8633 O.2       1 UNK        -0.5000 
     67 C          -0.2630  -21.0249  -48.4586 C.2       11 UNK         0.5000 
     68 O          -0.3752  -21.2860  -49.6574 O.2       11 UNK        -0.5000 
     69 N          -1.2711  -21.0808  -47.5745 N.am      12 UNK        -0.5000 
     70 CA         -2.6516  -21.4732  -47.8518 C.3       12 UNK         0.1400 
     71 CB         -3.4843  -21.2600  -46.5762 C.3       12 UNK        -0.1800 
     72 C          -2.7963  -22.9263  -48.3336 C.2       12 UNK         0.5000 
     73 O          -3.6218  -23.1923  -49.2111 O.2       12 UNK        -0.5000 
     74 N          -1.9978  -23.8253  -47.7418 N.am      13 UNK        -0.5000 
     75 CA         -1.9782  -25.2709  -47.9561 C.3       13 UNK         0.1400 
     76 CB         -1.4750  -25.6095  -49.3771 C.3       13 UNK        -0.1800 
     77 C          -3.3367  -25.8949  -47.5797 C.2       13 UNK         0.5000 
     78 O          -3.6923  -25.8831  -46.3995 O.2       13 UNK        -0.5000 
     79 N          -4.0798  -26.4125  -48.5657 N.am      14 UNK        -0.5000 
     80 CA         -5.4161  -26.9815  -48.3987 C.3       14 UNK         0.1400 
     81 CB         -5.7465  -27.8646  -49.6140 C.3       14 UNK        -0.1800 
     82 C          -6.4748  -25.8838  -48.1700 C.2       14 UNK         0.5000 
     83 O          -7.1838  -25.5027  -49.1032 O.2       14 UNK        -0.5000 
     84 N          -6.5365  -25.3802  -46.9294 N.am      15 UNK        -0.5000 
     85 CA         -7.5668  -24.4975  -46.3639 C.3       15 UNK         0.1400 
     86 CB         -8.8746  -25.2924  -46.1685 C.3       15 UNK        -0.1800 
     87 C          -7.7954  -23.1792  -47.1366 C.2       15 UNK         0.5000 
     88 O          -8.9128  -22.6611  -47.1415 O.2       15 UNK        -0.5000 
     89 N          -6.7388  -22.6783  -47.7946 N.am      16 UNK        -0.5000 
     90 CA         -6.7040  -21.4990  -48.6723 C.3       16 UNK         0.1400 
     91 CB         -7.1444  -20.2191  -47.9282 C.3       16 UNK        -0.1800 
     92 C          -7.4514  -21.6775  -50.0107 C.2       16 UNK         0.5000 
     93 O          -7.5042  -20.7290  -50.7944 O.2       16 UNK        -0.5000 
     94 N          -7.9793  -22.8800  -50.2814 N.am      17 UNK        -0.5000 
     95 CA         -8.5760  -23.2436  -51.5656 C.3       17 UNK         0.1400 
     96 CB         -9.5189  -24.4417  -51.3758 C.3       17 UNK        -0.1800 
     97 C          -7.4891  -23.5585  -52.6069 C.2       17 UNK         0.5000 
     98 O          -7.6725  -23.2565  -53.7866 O.2       17 UNK        -0.5000 
     99 N          -6.3719  -24.1391  -52.1453 N.am      18 UNK        -0.5000 
    100 CA        -5.1758  -24.3766  -52.9468 C.3       18 UNK         0.1400 
    101 CB        -4.3102  -25.4624  -52.2893 C.3       18 UNK        -0.1800 
    102 C         -4.3775  -23.0816  -53.1615 C.2       18 UNK         0.5000 
    103 O         -4.1838  -22.6833  -54.3104 O.2       18 UNK        -0.5000 
    104 N         -3.9210  -22.4665  -52.0550 N.am      19 UNK        -0.5000 
    105 CA        -3.0269  -21.2989  -52.0125 C.3       19 UNK         0.1400 
    106 CB        -3.7660  -20.0295  -52.4798 C.3       19 UNK        -0.1800 
    107 C         -1.7119  -21.5653  -52.7781 C.2       19 UNK         0.5000 
    108 O         -1.2956  -20.7650  -53.6167 O.2       19 UNK        -0.5000 
    109 N         -1.1254  -22.7403  -52.5092 N.am      20 UNK        -0.5000 
    110 CA        -0.0812  -23.3895  -53.3039 C.3       20 UNK         0.1400 
    111 CB         0.2486  -24.7472  -52.6649 C.3       20 UNK        -0.1800 
    112 C          1.2068  -22.5737  -53.5181 C.2       20 UNK         0.5000 
    113 O          1.8573  -22.7508  -54.5491 O.2       20 UNK        -0.5000 
    114 N          1.5547  -21.7087  -52.5577 N.am      21 UNK        -0.5000 
    115 CA         2.7557  -20.8719  -52.6088 C.3       21 UNK         0.1400 
    116 CB         3.4626  -20.9310  -51.2470 C.3       21 UNK        -0.1800 
    117 C          2.4650  -19.4194  -53.0388 C.2       21 UNK         0.5000 
    118 O          3.3938  -18.6096  -53.0449 O.2       21 UNK        -0.5000 
    119 N          1.2120  -19.0989  -53.3957 N.am      22 UNK        -0.5000 
    120 CA         0.8205  -17.7884  -53.9386 C.3       22 UNK         0.1400 
    121 C          1.4601  -17.5109  -55.3306 C.2       22 UNK         0.5000 
    122 N          1.9482  -16.3016  -55.5719 N.am      22 UNK        -0.7600 
    123 O          1.4881  -18.3747  -56.2048 O.2       22 UNK        -0.5000 
    124 C124       -0.7215  -17.6334  -53.9891 C.3       23 UNK        -0.0398 
    125 S125       -1.2400  -15.8799  -53.9644 S.3       23 UNK        -0.2404 
    126 C126       -2.6240  -15.8861  -52.7696 C.3       23 UNK        -0.0205 
    127 H127       -4.8011  -11.1624  -44.9577 H         1 UNK         0.0600 
    128 H128       -5.9495  -12.4046  -45.4674 H         1 UNK         0.0600 
    129 H129       -5.3053  -11.2593  -46.6481 H         1 UNK         0.0600 
    130 H130       -5.0104  -14.4195  -45.6800 H         1 UNK         0.3000 
    131 H131       -2.7831  -14.9963  -47.2569 H         1 UNK         0.0600 
    132 H132       -2.9650  -17.3261  -46.1507 H         1 UNK         0.0800 
    133 H133       -4.1933  -16.6674  -45.1179 H         1 UNK         0.0800 
    134 H134       -4.8916  -18.4740  -49.1351 H         1 UNK         0.0800 
    135 H135       -3.7625  -18.8323  -47.8593 H         1 UNK         0.0800 
    136 H136       -4.3105  -16.9719  -50.9662 H         1 UNK         0.1150 
    137 H137       -0.1913  -15.8547  -51.4107 H         1 UNK         0.1150 
    138 H138       -1.5209  -17.7228  -47.8051 H         1 UNK         0.1150 
    139 H139        0.6714  -16.4210  -47.9372 H         1 UNK         0.0800 
    140 H140        1.2395  -15.8740  -49.4886 H         1 UNK         0.0800 
    141 H141        0.4128  -18.6849  -47.1969 H         1 UNK         0.0800 
    142 H142        2.1185  -18.9160  -47.0323 H         1 UNK         0.0800 
    143 H143        1.8751  -20.9911  -48.5779 H         1 UNK         0.0600 
    144 H144        1.0488  -20.8818  -45.7754 H         1 UNK         0.3000 
    145 H145        1.3384  -24.2984  -45.2214 H         1 UNK         0.0600 
    146 H146        3.1179  -23.9063  -43.5815 H         1 UNK         0.0600 
    147 H147        3.8010  -23.8554  -45.1989 H         1 UNK         0.0600 
    148 H148        3.5250  -22.3608  -44.3144 H         1 UNK         0.0600 
    149 H149        1.2533  -21.8984  -43.5511 H         1 UNK         0.3000 
    150 H150       -2.2989  -21.5974  -43.6918 H         1 UNK         0.0600 
    151 H151       -0.5918  -22.6626  -41.3815 H         1 UNK         0.0600 
    152 H152       -2.0159  -23.4563  -42.0442 H         1 UNK         0.0600 
    153 H153       -2.1780  -21.9032  -41.2406 H         1 UNK         0.0600 
    154 H154       -0.4134  -20.2786  -42.0527 H         1 UNK         0.3000 
    155 H155       -0.1629  -17.4491  -44.0609 H         1 UNK         0.0600 
    156 H156        0.5548  -18.6721  -41.3370 H         1 UNK         0.0600 
    157 H157       -0.9845  -17.9034  -41.7300 H         1 UNK         0.0600 
    158 H158        0.4986  -16.9653  -41.7392 H         1 UNK         0.0600 
    159 H159        2.0472  -17.3842  -44.1877 H         1 UNK         0.3000 
    160 H160        4.6890  -19.3707  -42.9954 H         1 UNK         0.0600 
    161 H161        4.1321  -18.8276  -45.9592 H         1 UNK         0.0600 
    162 H162        4.2633  -20.4448  -45.2861 H         1 UNK         0.0600 
    163 H163        5.6420  -19.3624  -45.2345 H         1 UNK         0.0600 
    164 H164        4.6457  -17.0018  -44.5875 H         1 UNK         0.3000 
    165 H165        3.6050  -14.6324  -42.3449 H         1 UNK         0.0600 
    166 H166        5.8355  -13.5421  -42.4191 H         1 UNK         0.0600 
    167 H167        6.5987  -15.0725  -42.8543 H         1 UNK         0.0600 
    168 H168        5.8536  -14.8717  -41.2731 H         1 UNK         0.0600 
    169 H169        5.1308  -14.3129  -44.7047 H         1 UNK         0.3000 
    170 H170        4.1153  -13.6897  -46.6032 H         1 UNK         0.0600 
    171 H171        4.7277  -16.0219  -47.1465 H         1 UNK         0.0600 
    172 H172        3.0411  -16.4941  -47.2594 H         1 UNK         0.0600 
    173 H173        3.7389  -15.4087  -48.4608 H         1 UNK         0.0600 
    174 H174        1.2819  -14.0915  -46.3548 H         1 UNK         0.3000 
    175 H175        0.7345  -11.4069  -48.6936 H         1 UNK         0.0600 
    176 H176       -0.6763  -14.0975  -48.3056 H         1 UNK         0.0600 
    177 H177       -1.3796  -12.6518  -49.0217 H         1 UNK         0.0600 
    178 H178       -0.0631  -13.4840  -49.8358 H         1 UNK         0.0600 
    179 H179       -0.8963  -12.2955  -46.5844 H         1 UNK         0.3000 
    180 H180        0.5974  -10.5118  -43.8854 H         1 UNK         0.0600 
    181 H181       -1.9722   -9.9775  -45.4675 H         1 UNK         0.0600 
    182 H182       -0.7597   -8.7905  -45.0128 H         1 UNK         0.0600 
    183 H183       -1.7136   -9.5838  -43.7690 H         1 UNK         0.0600 
    184 H184       -1.6795  -12.2936  -44.5307 H         1 UNK         0.3000 
    185 H185       -0.1457  -15.1481  -43.2689 H         1 UNK         0.0600 
    186 H186       -1.8913  -15.3238  -41.5081 H         1 UNK         0.0600 
    187 H187       -0.6175  -14.2237  -41.0086 H         1 UNK         0.0600 
    188 H188       -2.1567  -13.5804  -41.5690 H         1 UNK         0.0600 
    189 H189       -2.9081  -14.3801  -43.7703 H         1 UNK         0.3000 
    190 H190       -1.0783  -20.7851  -46.6217 H         1 UNK         0.3000 
    191 H191       -3.0285  -20.8223  -48.6408 H         1 UNK         0.0600 
    192 H192       -4.5487  -21.3389  -46.7815 H         1 UNK         0.0600 
    193 H193       -3.3111  -20.2789  -46.1343 H         1 UNK         0.0600 
    194 H194       -3.2535  -22.0054  -45.8161 H         1 UNK         0.0600 
    195 H195       -1.4508  -23.5085  -46.9475 H         1 UNK         0.3000 
    196 H196       -1.2540  -25.6759  -47.2478 H         1 UNK         0.0600 
    197 H197       -2.0921  -25.1691  -50.1583 H         1 UNK         0.0600 
    198 H198       -0.4602  -25.2377  -49.5182 H         1 UNK         0.0600 
    199 H199       -1.4447  -26.6875  -49.5402 H         1 UNK         0.0600 
    200 H200       -3.7283  -26.3583  -49.5092 H         1 UNK         0.3000 
    201 H201       -5.4111  -27.6291  -47.5192 H         1 UNK         0.0600 
    202 H202       -5.8086  -27.2855  -50.5339 H         1 UNK         0.0600 
    203 H203       -6.7085  -28.3607  -49.4800 H         1 UNK         0.0600 
    204 H204       -4.9967  -28.6431  -49.7549 H         1 UNK         0.0600 
    205 H205       -5.8154  -25.6801  -46.2822 H         1 UNK         0.3000 
    206 H206       -7.2074  -24.2049  -45.3765 H         1 UNK         0.0600 
    207 H207       -8.7008  -26.2034  -45.5958 H         1 UNK         0.0600 
    208 H208       -9.6160  -24.7075  -45.6228 H         1 UNK         0.0600 
    209 H209       -9.3181  -25.5766  -47.1236 H         1 UNK         0.0600 
    210 H210       -5.8840  -23.2167  -47.7635 H         1 UNK         0.3000 
    211 H211       -5.6582  -21.3651  -48.9496 H         1 UNK         0.0600 
    212 H212       -6.9965  -19.3344  -48.5473 H         1 UNK         0.0600 
    213 H213       -6.5728  -20.0706  -47.0126 H         1 UNK         0.0600 
    214 H214       -8.2012  -20.2410  -47.6636 H         1 UNK         0.0600 
    215 H215       -7.8685  -23.6304  -49.6079 H         1 UNK         0.3000 
    216 H216       -9.1675  -22.4027  -51.9341 H         1 UNK         0.0600 
    217 H217       -8.9828  -25.3342  -51.0522 H         1 UNK         0.0600 
    218 H218      -10.0265  -24.6869  -52.3094 H         1 UNK         0.0600 
    219 H219      -10.2876  -24.2250  -50.6339 H         1 UNK         0.0600 
    220 H220       -6.3256  -24.3686  -51.1625 H         1 UNK         0.3000 
    221 H221       -5.4766  -24.7457  -53.9300 H         1 UNK         0.0600 
    222 H222       -4.7772  -26.4412  -52.3905 H         1 UNK         0.0600 
    223 H223       -4.1582  -25.2657  -51.2292 H         1 UNK         0.0600 
    224 H224       -3.3289  -25.5279  -52.7615 H         1 UNK         0.0600 
    225 H225       -4.1081  -22.8881  -51.1510 H         1 UNK         0.3000 
    226 H226       -2.7497  -21.1489  -50.9701 H         1 UNK         0.0600 
    227 H227       -4.0427  -20.0823  -53.5329 H         1 UNK         0.0600 
    228 H228       -4.6752  -19.8678  -51.9005 H         1 UNK         0.0600 
    229 H229       -3.1390  -19.1486  -52.3513 H         1 UNK         0.0600 
    230 H230       -1.5264  -23.2989  -51.7714 H         1 UNK         0.3000 
    231 H231       -0.5077  -23.5754  -54.2916 H         1 UNK         0.0600 
    232 H232        0.6564  -24.6270  -51.6606 H         1 UNK         0.0600 
    233 H233        0.9885  -25.2887  -53.2558 H         1 UNK         0.0600 
    234 H234       -0.6360  -25.3807  -52.5966 H         1 UNK         0.0600 
    235 H235        0.9510  -21.6033  -51.7516 H         1 UNK         0.3000 
    236 H236        3.4570  -21.2708  -53.3443 H         1 UNK         0.0600 
    237 H237        3.6675  -21.9592  -50.9485 H         1 UNK         0.0600 
    238 H238        4.4168  -20.4037  -51.2747 H         1 UNK         0.0600 
    239 H239        2.8589  -20.4690  -50.4725 H         1 UNK         0.0600 
    240 H240        0.5000  -19.8213  -53.4138 H         1 UNK         0.3000 
    241 H241        1.2075  -17.0486  -53.2346 H         1 UNK         0.0600 
    242 H242        2.3542  -16.1065  -56.4738 H         1 UNK         0.3800 
    243 H243        1.9135  -15.5724  -54.8765 H         1 UNK         0.3800 
    244 H244       -1.1610  -18.1292  -53.1247 H         1 UNK         0.0800 
    245 H245       -1.1479  -18.1308  -54.8621 H         1 UNK         0.0800 
    246 H246       -3.4236  -16.5004  -53.1870 H         1 UNK         0.0800 
    247 H247       -3.0201  -14.8728  -52.6957 H         1 UNK         0.0800 
@<TRIPOS>BOND
     1    1    2 1    
     2    1  127 1    
     3    1  128 1    
     4    1  129 1    
     5    2    3 2    
     6    2    4 am   BACKBONE|DICT|INTERRES
     7    4    5 1    
     8    4  130 1    
     9    5    6 1    
    10    5   65 1    
    11    5  131 1    
    12    6    7 1    
    13    6  132 1    
    14    6  133 1    
    15    7    8 1    
    16    8    9 1    
    17    8  134 1    
    18    8  135 1    
    19    9   10 ar   
    20    9   14 ar   
    21   10   11 ar   
    22   10  136 1    
    23   11   12 ar   
    24   11  126 1    
    25   12   13 ar   
    26   12  137 1    
    27   13   14 ar   
    28   13   15 1    
    29   14  138 1    
    30   15   16 1    
    31   15  139 1    
    32   15  140 1    
    33   16   17 1    
    34   17   18 1    
    35   17  141 1    
    36   17  142 1    
    37   18   19 1    
    38   18   67 1    
    39   18  143 1    
    40   19   20 am   BACKBONE|DICT|INTERRES
    41   19  144 1    
    42   20   21 2    
    43   20   22 1    
    44   22   23 1    
    45   22   24 1    
    46   22  145 1    
    47   23  146 1    
    48   23  147 1    
    49   23  148 1    
    50   24   25 am   BACKBONE|DICT|INTERRES
    51   24  149 1    
    52   25   26 2    
    53   25   27 1    
    54   27   28 1    
    55   27   29 1    
    56   27  150 1    
    57   28  151 1    
    58   28  152 1    
    59   28  153 1    
    60   29   30 am   BACKBONE|DICT|INTERRES
    61   29  154 1    
    62   30   31 2    
    63   30   32 1    
    64   32   33 1    
    65   32   34 1    
    66   32  155 1    
    67   33  156 1    
    68   33  157 1    
    69   33  158 1    
    70   34   35 am   BACKBONE|DICT|INTERRES
    71   34  159 1    
    72   35   36 2    
    73   35   37 1    
    74   37   38 1    
    75   37   39 1    
    76   37  160 1    
    77   38  161 1    
    78   38  162 1    
    79   38  163 1    
    80   39   40 am   BACKBONE|DICT|INTERRES
    81   39  164 1    
    82   40   41 2    
    83   40   42 1    
    84   42   43 1    
    85   42   44 1    
    86   42  165 1    
    87   43  166 1    
    88   43  167 1    
    89   43  168 1    
    90   44   45 am   BACKBONE|DICT|INTERRES
    91   44  169 1    
    92   45   46 2    
    93   45   47 1    
    94   47   48 1    
    95   47   49 1    
    96   47  170 1    
    97   48  171 1    
    98   48  172 1    
    99   48  173 1    
   100   49   50 am   BACKBONE|DICT|INTERRES
   101   49  174 1    
   102   50   51 2    
   103   50   52 1    
   104   52   53 1    
   105   52   54 1    
   106   52  175 1    
   107   53  176 1    
   108   53  177 1    
   109   53  178 1    
   110   54   55 am   BACKBONE|DICT|INTERRES
   111   54  179 1    
   112   55   56 2    
   113   55   57 1    
   114   57   58 1    
   115   57   59 1    
   116   57  180 1    
   117   58  181 1    
   118   58  182 1    
   119   58  183 1    
   120   59   60 am   BACKBONE|DICT|INTERRES
   121   59  184 1    
   122   60   61 2    
   123   60   62 1    
   124   62   63 1    
   125   62   64 1    
   126   62  185 1    
   127   63  186 1    
   128   63  187 1    
   129   63  188 1    
   130   64   65 am   BACKBONE|DICT|INTERRES
   131   64  189 1    
   132   65   66 2    
   133   67   68 2    
   134   67   69 am   BACKBONE|DICT|INTERRES
   135   69   70 1    
   136   69  190 1    
   137   70   71 1    
   138   70   72 1    
   139   70  191 1    
   140   71  192 1    
   141   71  193 1    
   142   71  194 1    
   143   72   73 2    
   144   72   74 am   BACKBONE|DICT|INTERRES
   145   74   75 1    
   146   74  195 1    
   147   75   76 1    
   148   75   77 1    
   149   75  196 1    
   150   76  197 1    
   151   76  198 1    
   152   76  199 1    
   153   77   78 2    
   154   77   79 am   BACKBONE|DICT|INTERRES
   155   79   80 1    
   156   79  200 1    
   157   80   81 1    
   158   80   82 1    
   159   80  201 1    
   160   81  202 1    
   161   81  203 1    
   162   81  204 1    
   163   82   83 2    
   164   82   84 am   BACKBONE|DICT|INTERRES
   165   84   85 1    
   166   84  205 1    
   167   85   86 1    
   168   85   87 1    
   169   85  206 1    
   170   86  207 1    
   171   86  208 1    
   172   86  209 1    
   173   87   88 2    
   174   87   89 am   BACKBONE|DICT|INTERRES
   175   89   90 1    
   176   89  210 1    
   177   90   91 1    
   178   90   92 1    
   179   90  211 1    
   180   91  212 1    
   181   91  213 1    
   182   91  214 1    
   183   92   93 2    
   184   92   94 am   BACKBONE|DICT|INTERRES
   185   94   95 1    
   186   94  215 1    
   187   95   96 1    
   188   95   97 1    
   189   95  216 1    
   190   96  217 1    
   191   96  218 1    
   192   96  219 1    
   193   97   98 2    
   194   97   99 am   BACKBONE|DICT|INTERRES
   195   99  100 1    
   196   99  220 1    
   197  100  101 1    
   198  100  102 1    
   199  100  221 1    
   200  101  222 1    
   201  101  223 1    
   202  101  224 1    
   203  102  103 2    
   204  102  104 am   BACKBONE|DICT|INTERRES
   205  104  105 1    
   206  104  225 1    
   207  105  106 1    
   208  105  107 1    
   209  105  226 1    
   210  106  227 1    
   211  106  228 1    
   212  106  229 1    
   213  107  108 2    
   214  107  109 am   BACKBONE|DICT|INTERRES
   215  109  110 1    
   216  109  230 1    
   217  110  111 1    
   218  110  112 1    
   219  110  231 1    
   220  111  232 1    
   221  111  233 1    
   222  111  234 1    
   223  112  113 2    
   224  112  114 am   BACKBONE|DICT|INTERRES
   225  114  115 1    
   226  114  235 1    
   227  115  116 1    
   228  115  117 1    
   229  115  236 1    
   230  116  237 1    
   231  116  238 1    
   232  116  239 1    
   233  117  118 2    
   234  117  119 am   BACKBONE|DICT|INTERRES
   235  119  120 1    
   236  119  240 1    
   237  120  121 1    
   238  120  124 1    
   239  120  241 1    
   240  121  122 am   BACKBONE|DICT|INTERRES
   241  121  123 2    
   242  122  242 1    
   243  122  243 1    
   244  124  125 1    
   245  124  244 1    
   246  124  245 1    
   247  125  126 1    
   248  126  246 1    
   249  126  247 1    
@<TRIPOS>SUBSTRUCTURE
     1 UNK         1 GROUP             0       ****    0 ROOT    
