@<TRIPOS>MOLECULE
3R540
247   249    1
SMALL
USER_CHARGES


@<TRIPOS>ATOM
      1 CA         -0.2353  -10.0999  -48.2531 C.3       0 UNK        -0.1800 
      2 C           0.0672  -11.5367  -47.8564 C.2       0 UNK         0.5000 
      3 O          -0.0807  -11.8907  -46.6870 O.2       0 UNK        -0.5000 
      4 N           0.4726  -12.3678  -48.8262 N.am      1 UNK        -0.5000 
      5 CA          0.8292  -13.7883  -48.6774 C.3       1 UNK         0.1400 
      6 C6          1.2665  -14.4223  -50.0223 C.3       23 UNK        -0.0398 
      7 S7          0.0826  -14.1415  -51.3903 S.3       23 UNK        -0.2404 
      8 C8         -0.0454  -15.7928  -52.1393 C.3       23 UNK        -0.0205 
      9 C9         -0.9718  -16.7272  -51.3741 C.ar      23 UNK        -0.0193 
     10 C10        -2.3580  -16.5672  -51.4557 C.ar      23 UNK        -0.1150 
     11 C11        -3.2222  -17.4959  -50.8627 C.ar      23 UNK        -0.0193 
     12 C12        -2.6833  -18.5704  -50.1484 C.ar      23 UNK        -0.1150 
     13 C13        -1.2989  -18.7382  -50.0557 C.ar      23 UNK        -0.0193 
     14 C14        -0.4496  -17.8068  -50.6589 C.ar      23 UNK        -0.1150 
     15 C15        -0.7108  -19.9622  -49.3736 C.3       23 UNK        -0.0205 
     16 S16         0.0080  -19.5597  -47.7582 S.3       23 UNK        -0.2404 
     17 C17        -1.4202  -19.7641  -46.6465 C.3       23 UNK        -0.0398 
     18 CA         -1.4306  -21.1747  -46.0139 C.3       11 UNK         0.1400 
     19 N          -0.2001  -21.4853  -45.2724 N.am      11 UNK        -0.5000 
     20 C           0.2448  -22.7319  -45.0755 C.2       10 UNK         0.5000 
     21 O          -0.3668  -23.7372  -45.4389 O.2       10 UNK        -0.5000 
     22 CA          1.5611  -22.8750  -44.2967 C.3       10 UNK         0.1400 
     23 CB          2.7492  -22.3020  -45.0867 C.3       10 UNK        -0.1800 
     24 N           1.4921  -22.2387  -42.9818 N.am      10 UNK        -0.5000 
     25 C           0.7266  -22.6635  -41.9684 C.2       9 UNK         0.5000 
     26 O          -0.0597  -23.6053  -42.0721 O.2       9 UNK        -0.5000 
     27 CA          0.8055  -21.9102  -40.6259 C.3       9 UNK         0.1400 
     28 CB          1.2357  -22.8387  -39.4727 C.3       9 UNK        -0.1800 
     29 N           1.5905  -20.6701  -40.6534 N.am      9 UNK        -0.5000 
     30 C           2.9218  -20.5023  -40.6806 C.2       8 UNK         0.5000 
     31 O           3.7249  -21.4339  -40.7221 O.2       8 UNK        -0.5000 
     32 CA          3.4572  -19.0512  -40.6930 C.3       8 UNK         0.1400 
     33 CB          4.3453  -18.8149  -41.9256 C.3       8 UNK        -0.1800 
     34 N           2.3954  -18.0407  -40.6769 N.am      8 UNK        -0.5000 
     35 C           1.7209  -17.6359  -39.5909 C.2       7 UNK         0.5000 
     36 O           1.9922  -17.9953  -38.4453 O.2       7 UNK        -0.5000 
     37 CA          0.5008  -16.7218  -39.8347 C.3       7 UNK         0.1400 
     38 CB          0.8857  -15.2430  -39.6810 C.3       7 UNK        -0.1800 
     39 N          -0.1172  -16.9279  -41.1489 N.am      7 UNK        -0.5000 
     40 C          -0.7043  -18.0659  -41.5480 C.2       6 UNK         0.5000 
     41 O          -0.8551  -19.0426  -40.8174 O.2       6 UNK        -0.5000 
     42 CA         -1.1029  -18.1689  -43.0284 C.3       6 UNK         0.1400 
     43 CB         -2.4900  -17.5675  -43.2801 C.3       6 UNK        -0.1800 
     44 N          -0.0978  -17.5395  -43.8873 N.am      6 UNK        -0.5000 
     45 C           1.0704  -18.1177  -44.2052 C.2       5 UNK         0.5000 
     46 O           1.3193  -19.2984  -43.9593 O.2       5 UNK        -0.5000 
     47 CA          2.1595  -17.2376  -44.8486 C.3       5 UNK         0.1400 
     48 CB          2.4880  -17.6581  -46.2861 C.3       5 UNK        -0.1800 
     49 N           1.8177  -15.8157  -44.8176 N.am      5 UNK        -0.5000 
     50 C           2.1454  -15.0021  -43.8059 C.2       4 UNK         0.5000 
     51 O           2.7714  -15.3712  -42.8121 O.2       4 UNK        -0.5000 
     52 CA          1.6682  -13.5433  -43.8998 C.3       4 UNK         0.1400 
     53 CB          2.5884  -12.7308  -44.8230 C.3       4 UNK        -0.1800 
     54 N           0.2816  -13.3992  -44.3467 N.am      4 UNK        -0.5000 
     55 C          -0.7904  -13.8567  -43.6849 C.2       3 UNK         0.5000 
     56 O          -0.7164  -14.5659  -42.6822 O.2       3 UNK        -0.5000 
     57 CA         -2.1710  -13.4757  -44.2417 C.3       3 UNK         0.1400 
     58 CB         -2.4698  -11.9896  -43.9886 C.3       3 UNK        -0.1800 
     59 N          -2.2339  -13.7458  -45.6749 N.am      3 UNK        -0.5000 
     60 C          -2.8969  -14.7667  -46.2356 C.2       2 UNK         0.5000 
     61 O          -3.6329  -15.5288  -45.6103 O.2       2 UNK        -0.5000 
     62 CA         -2.7181  -14.9852  -47.7530 C.3       2 UNK         0.1400 
     63 CB         -3.9484  -14.4707  -48.5151 C.3       2 UNK        -0.1800 
     64 N          -1.5275  -14.3496  -48.3160 N.am      2 UNK        -0.5000 
     65 C          -0.2605  -14.6329  -47.9871 C.2       1 UNK         0.5000 
     66 O           0.0620  -15.4561  -47.1309 O.2       1 UNK        -0.5000 
     67 C          -2.6969  -21.4172  -45.1676 C.2       11 UNK         0.5000 
     68 O          -3.7873  -21.5084  -45.7308 O.2       11 UNK        -0.5000 
     69 N          -2.5337  -21.5553  -43.8425 N.am      12 UNK        -0.5000 
     70 CA         -3.5857  -21.9975  -42.9281 C.3       12 UNK         0.1400 
     71 CB         -3.2014  -21.6521  -41.4832 C.3       12 UNK        -0.1800 
     72 C          -3.8644  -23.5044  -43.0771 C.2       12 UNK         0.5000 
     73 O          -5.0237  -23.9106  -42.9925 O.2       12 UNK        -0.5000 
     74 N          -2.8098  -24.2984  -43.3257 N.am      13 UNK        -0.5000 
     75 CA         -2.9135  -25.7085  -43.6968 C.3       13 UNK         0.1400 
     76 CB         -1.5505  -26.4033  -43.5449 C.3       13 UNK        -0.1800 
     77 C          -3.4809  -25.8523  -45.1197 C.2       13 UNK         0.5000 
     78 O          -4.5356  -26.4673  -45.2784 O.2       13 UNK        -0.5000 
     79 N          -2.8070  -25.2302  -46.0999 N.am      14 UNK        -0.5000 
     80 CA         -3.2634  -25.0320  -47.4787 C.3       14 UNK         0.1400 
     81 CB         -3.7063  -26.3423  -48.1716 C.3       14 UNK        -0.1800 
     82 C          -2.1619  -24.3713  -48.3149 C.2       14 UNK         0.5000 
     83 O          -2.4001  -23.3282  -48.9246 O.2       14 UNK        -0.5000 
     84 N          -0.9945  -25.0334  -48.3812 N.am      15 UNK        -0.5000 
     85 CA          0.1585  -24.7116  -49.2400 C.3       15 UNK         0.1400 
     86 CB          0.8964  -23.4664  -48.7103 C.3       15 UNK        -0.1800 
     87 C          -0.2079  -24.5988  -50.7396 C.2       15 UNK         0.5000 
     88 O           0.3672  -23.7831  -51.4630 O.2       15 UNK        -0.5000 
     89 N          -1.2200  -25.3792  -51.1561 N.am      16 UNK        -0.5000 
     90 CA         -1.8823  -25.3896  -52.4692 C.3       16 UNK         0.1400 
     91 CB         -0.9139  -25.9210  -53.5460 C.3       16 UNK        -0.1800 
     92 C          -2.5162  -24.0390  -52.8841 C.2       16 UNK         0.5000 
     93 O          -2.8690  -23.8759  -54.0525 O.2       16 UNK        -0.5000 
     94 N          -2.6274  -23.0926  -51.9365 N.am      17 UNK        -0.5000 
     95 CA         -2.9185  -21.6692  -52.1349 C.3       17 UNK         0.1400 
     96 CB         -4.3879  -21.4532  -52.5346 C.3       17 UNK        -0.1800 
     97 C          -1.9048  -20.9679  -53.0708 C.2       17 UNK         0.5000 
     98 O          -2.2728  -20.0536  -53.8129 O.2       17 UNK        -0.5000 
     99 N          -0.6426  -21.4286  -53.0173 N.am      18 UNK        -0.5000 
    100 CA         0.5022  -20.9923  -53.8198 C.3       18 UNK         0.1400 
    101 CB         1.0038  -19.6217  -53.3133 C.3       18 UNK        -0.1800 
    102 C          0.2097  -21.0395  -55.3375 C.2       18 UNK         0.5000 
    103 O         -0.4128  -21.9927  -55.8094 O.2       18 UNK        -0.5000 
    104 N          0.6527  -20.0142  -56.0742 N.am      19 UNK        -0.5000 
    105 CA         0.3118  -19.7936  -57.4810 C.3       19 UNK         0.1400 
    106 CB         1.5001  -19.1008  -58.1677 C.3       19 UNK        -0.1800 
    107 C         -0.9713  -18.9513  -57.6439 C.2       19 UNK         0.5000 
    108 O         -1.4743  -18.8315  -58.7618 O.2       19 UNK        -0.5000 
    109 N         -1.4610  -18.3572  -56.5458 N.am      20 UNK        -0.5000 
    110 CA        -2.6107  -17.4546  -56.5233 C.3       20 UNK         0.1400 
    111 CB        -2.5634  -16.6237  -55.2333 C.3       20 UNK        -0.1800 
    112 C         -3.9606  -18.1805  -56.6588 C.2       20 UNK         0.5000 
    113 O         -4.8970  -17.6017  -57.2117 O.2       20 UNK        -0.5000 
    114 N         -4.0432  -19.4177  -56.1469 N.am      21 UNK        -0.5000 
    115 CA        -5.1910  -20.3386  -56.1345 C.3       21 UNK         0.1400 
    116 CB        -5.6919  -20.6494  -57.5579 C.3       21 UNK        -0.1800 
    117 C         -6.3489  -19.9027  -55.2114 C.2       21 UNK         0.5000 
    118 O         -6.9065  -20.7461  -54.5096 O.2       21 UNK        -0.5000 
    119 N         -6.6632  -18.6024  -55.1993 N.am      22 UNK        -0.5000 
    120 CA        -7.5207  -17.9046  -54.2224 C.3       22 UNK         0.1400 
    121 C         -9.0267  -18.3096  -54.2366 C.2       22 UNK         0.5000 
    122 N         -9.5257  -18.9592  -55.2809 N.am      22 UNK        -0.7600 
    123 O         -9.7672  -18.0015  -53.3062 O.2       22 UNK        -0.5000 
    124 C124       -6.9088  -17.9017  -52.7902 C.3       23 UNK        -0.0398 
    125 S125       -5.1983  -17.2650  -52.7879 S.3       23 UNK        -0.2404 
    126 C126       -4.7332  -17.3728  -51.0310 C.3       23 UNK        -0.0205 
    127 H127       -0.0754   -9.9305  -49.3182 H         1 UNK         0.0600 
    128 H128       -1.2725   -9.8586  -48.0211 H         1 UNK         0.0600 
    129 H129        0.4073   -9.4163  -47.6985 H         1 UNK         0.0600 
    130 H130        0.5451  -12.0134  -49.7697 H         1 UNK         0.3000 
    131 H131        1.6957  -13.8156  -48.0143 H         1 UNK         0.0600 
    132 H132        1.4564  -15.4905  -49.9006 H         1 UNK         0.0800 
    133 H133        2.2215  -13.9923  -50.3267 H         1 UNK         0.0800 
    134 H134        0.9504  -16.2268  -52.2427 H         1 UNK         0.0800 
    135 H135       -0.4262  -15.6792  -53.1543 H         1 UNK         0.0800 
    136 H136       -2.7657  -15.7432  -52.0240 H         1 UNK         0.1150 
    137 H137       -3.3416  -19.2980  -49.6953 H         1 UNK         0.1150 
    138 H138        0.6203  -17.9483  -50.6022 H         1 UNK         0.1150 
    139 H139       -1.4570  -20.7488  -49.2571 H         1 UNK         0.0800 
    140 H140        0.0709  -20.3813  -50.0089 H         1 UNK         0.0800 
    141 H141       -1.3717  -18.9926  -45.8798 H         1 UNK         0.0800 
    142 H142       -2.3386  -19.5781  -47.2062 H         1 UNK         0.0800 
    143 H143       -1.4962  -21.8792  -46.8442 H         1 UNK         0.0600 
    144 H144        0.3531  -20.7042  -44.9312 H         1 UNK         0.3000 
    145 H145        1.7414  -23.9415  -44.1458 H         1 UNK         0.0600 
    146 H146        3.6869  -22.4605  -44.5540 H         1 UNK         0.0600 
    147 H147        2.8435  -22.7877  -46.0582 H         1 UNK         0.0600 
    148 H148        2.6458  -21.2315  -45.2657 H         1 UNK         0.0600 
    149 H149        2.0602  -21.4151  -42.8434 H         1 UNK         0.3000 
    150 H150       -0.2129  -21.5922  -40.4058 H         1 UNK         0.0600 
    151 H151        0.5301  -23.6619  -39.3545 H         1 UNK         0.0600 
    152 H152        1.2687  -22.3023  -38.5244 H         1 UNK         0.0600 
    153 H153        2.2171  -23.2799  -39.6465 H         1 UNK         0.0600 
    154 H154        1.0169  -19.8345  -40.6473 H         1 UNK         0.3000 
    155 H155        4.0739  -18.9224  -39.8012 H         1 UNK         0.0600 
    156 H156        5.2495  -19.4227  -41.8742 H         1 UNK         0.0600 
    157 H157        4.6591  -17.7733  -41.9994 H         1 UNK         0.0600 
    158 H158        3.8311  -19.0819  -42.8483 H         1 UNK         0.0600 
    159 H159        2.1223  -17.6576  -41.5700 H         1 UNK         0.3000 
    160 H160       -0.2455  -16.9606  -39.0742 H         1 UNK         0.0600 
    161 H161        1.6229  -14.9388  -40.4240 H         1 UNK         0.0600 
    162 H162        0.0152  -14.5960  -39.7907 H         1 UNK         0.0600 
    163 H163        1.3129  -15.0505  -38.6961 H         1 UNK         0.0600 
    164 H164       -0.1053  -16.1333  -41.7828 H         1 UNK         0.3000 
    165 H165       -1.1583  -19.2296  -43.2749 H         1 UNK         0.0600 
    166 H166       -2.8004  -17.7190  -44.3133 H         1 UNK         0.0600 
    167 H167       -3.2400  -18.0429  -42.6467 H         1 UNK         0.0600 
    168 H168       -2.5173  -16.4985  -43.0729 H         1 UNK         0.0600 
    169 H169       -0.2272  -16.5629  -44.1086 H         1 UNK         0.3000 
    170 H170        3.0679  -17.4015  -44.2676 H         1 UNK         0.0600 
    171 H171        2.6819  -18.7296  -46.3505 H         1 UNK         0.0600 
    172 H172        1.6769  -17.4248  -46.9721 H         1 UNK         0.0600 
    173 H173        3.3794  -17.1455  -46.6471 H         1 UNK         0.0600 
    174 H174        1.2572  -15.4699  -45.5921 H         1 UNK         0.3000 
    175 H175        1.7334  -13.1144  -42.8977 H         1 UNK         0.0600 
    176 H176        2.5456  -13.0896  -45.8514 H         1 UNK         0.0600 
    177 H177        2.3114  -11.6764  -44.8262 H         1 UNK         0.0600 
    178 H178        3.6268  -12.7935  -44.4950 H         1 UNK         0.0600 
    179 H179        0.1385  -12.8268  -45.1767 H         1 UNK         0.3000 
    180 H180       -2.9196  -14.0620  -43.7052 H         1 UNK         0.0600 
    181 H181       -2.4165  -11.7567  -42.9243 H         1 UNK         0.0600 
    182 H182       -1.7637  -11.3374  -44.5041 H         1 UNK         0.0600 
    183 H183       -3.4722  -11.7291  -44.3286 H         1 UNK         0.0600 
    184 H184       -1.6321  -13.1802  -46.2622 H         1 UNK         0.3000 
    185 H185       -2.6284  -16.0604  -47.9233 H         1 UNK         0.0600 
    186 H186       -4.8524  -14.9895  -48.1934 H         1 UNK         0.0600 
    187 H187       -4.1044  -13.4038  -48.3510 H         1 UNK         0.0600 
    188 H188       -3.8446  -14.6312  -49.5880 H         1 UNK         0.0600 
    189 H189       -1.6836  -13.6460  -49.0228 H         1 UNK         0.3000 
    190 H190       -1.5988  -21.4949  -43.4695 H         1 UNK         0.3000 
    191 H191       -4.5040  -21.4580  -43.1702 H         1 UNK         0.0600 
    192 H192       -3.0043  -20.5866  -41.3692 H         1 UNK         0.0600 
    193 H193       -2.3181  -22.2003  -41.1590 H         1 UNK         0.0600 
    194 H194       -4.0101  -21.9066  -40.7970 H         1 UNK         0.0600 
    195 H195       -1.8785  -23.9021  -43.3306 H         1 UNK         0.3000 
    196 H196       -3.6081  -26.1929  -43.0070 H         1 UNK         0.0600 
    197 H197       -1.6246  -27.4618  -43.7966 H         1 UNK         0.0600 
    198 H198       -1.1909  -26.3375  -42.5178 H         1 UNK         0.0600 
    199 H199       -0.7885  -25.9670  -44.1893 H         1 UNK         0.0600 
    200 H200       -1.9480  -24.7392  -45.8560 H         1 UNK         0.3000 
    201 H201       -4.1117  -24.3453  -47.4523 H         1 UNK         0.0600 
    202 H202       -2.9801  -27.1431  -48.0291 H         1 UNK         0.0600 
    203 H203       -3.8323  -26.1987  -49.2458 H         1 UNK         0.0600 
    204 H204       -4.6680  -26.6920  -47.7984 H         1 UNK         0.0600 
    205 H205       -0.9040  -25.8780  -47.8337 H         1 UNK         0.3000 
    206 H206        0.8458  -25.5554  -49.1668 H         1 UNK         0.0600 
    207 H207        0.2518  -22.5890  -48.6965 H         1 UNK         0.0600 
    208 H208        1.2547  -23.6344  -47.6967 H         1 UNK         0.0600 
    209 H209        1.7684  -23.2270  -49.3197 H         1 UNK         0.0600 
    210 H210       -1.6211  -26.0050  -50.4726 H         1 UNK         0.3000 
    211 H211       -2.7089  -26.0968  -52.3873 H         1 UNK         0.0600 
    212 H212       -0.0976  -25.2228  -53.7346 H         1 UNK         0.0600 
    213 H213       -1.4291  -26.0824  -54.4936 H         1 UNK         0.0600 
    214 H214       -0.4785  -26.8752  -53.2498 H         1 UNK         0.0600 
    215 H215       -2.3576  -23.3381  -50.9897 H         1 UNK         0.3000 
    216 H216       -2.7856  -21.2068  -51.1590 H         1 UNK         0.0600 
    217 H217       -4.6180  -21.9272  -53.4870 H         1 UNK         0.0600 
    218 H218       -4.6187  -20.3913  -52.6263 H         1 UNK         0.0600 
    219 H219       -5.0635  -21.8662  -51.7859 H         1 UNK         0.0600 
    220 H220       -0.4538  -22.2248  -52.4159 H         1 UNK         0.3000 
    221 H221        1.2928  -21.7226  -53.6421 H         1 UNK         0.0600 
    222 H222        0.2655  -18.8339  -53.4689 H         1 UNK         0.0600 
    223 H223        1.2209  -19.6649  -52.2465 H         1 UNK         0.0600 
    224 H224        1.9291  -19.3226  -53.8065 H         1 UNK         0.0600 
    225 H225        1.1812  -19.2834  -55.6197 H         1 UNK         0.3000 
    226 H226        0.1435  -20.7509  -57.9788 H         1 UNK         0.0600 
    227 H227        2.4053  -19.7036  -58.0913 H         1 UNK         0.0600 
    228 H228        1.3035  -18.9465  -59.2295 H         1 UNK         0.0600 
    229 H229        1.7077  -18.1248  -57.7271 H         1 UNK         0.0600 
    230 H230       -1.0292  -18.5566  -55.6557 H         1 UNK         0.3000 
    231 H231       -2.5253  -16.7674  -57.3678 H         1 UNK         0.0600 
    232 H232       -2.5567  -17.2602  -54.3475 H         1 UNK         0.0600 
    233 H233       -1.6728  -15.9967  -55.2042 H         1 UNK         0.0600 
    234 H234       -3.4278  -15.9629  -55.1574 H         1 UNK         0.0600 
    235 H235       -3.2437  -19.7370  -55.6080 H         1 UNK         0.3000 
    236 H236       -4.7999  -21.2709  -55.7255 H         1 UNK         0.0600 
    237 H237       -4.8785  -20.9986  -58.1940 H         1 UNK         0.0600 
    238 H238       -6.4490  -21.4341  -57.5377 H         1 UNK         0.0600 
    239 H239       -6.1419  -19.7787  -58.0351 H         1 UNK         0.0600 
    240 H240       -6.1624  -18.0076  -55.8527 H         1 UNK         0.3000 
    241 H241       -7.5293  -16.8670  -54.5575 H         1 UNK         0.0600 
    242 H242      -10.5017  -19.2106  -55.2928 H         1 UNK         0.3800 
    243 H243       -8.9287  -19.2196  -56.0497 H         1 UNK         0.3800 
    244 H244       -6.9139  -18.9089  -52.3708 H         1 UNK         0.0800 
    245 H245       -7.5011  -17.2796  -52.1173 H         1 UNK         0.0800 
    246 H246       -5.0934  -16.4881  -50.5064 H         1 UNK         0.0800 
    247 H247       -5.2355  -18.2304  -50.5810 H         1 UNK         0.0800 
@<TRIPOS>BOND
     1    1    2 1    
     2    1  127 1    
     3    1  128 1    
     4    1  129 1    
     5    2    3 2    
     6    2    4 am   BACKBONE|DICT|INTERRES
     7    4    5 1    
     8    4  130 1    
     9    5    6 1    
    10    5   65 1    
    11    5  131 1    
    12    6    7 1    
    13    6  132 1    
    14    6  133 1    
    15    7    8 1    
    16    8    9 1    
    17    8  134 1    
    18    8  135 1    
    19    9   10 ar   
    20    9   14 ar   
    21   10   11 ar   
    22   10  136 1    
    23   11   12 ar   
    24   11  126 1    
    25   12   13 ar   
    26   12  137 1    
    27   13   14 ar   
    28   13   15 1    
    29   14  138 1    
    30   15   16 1    
    31   15  139 1    
    32   15  140 1    
    33   16   17 1    
    34   17   18 1    
    35   17  141 1    
    36   17  142 1    
    37   18   19 1    
    38   18   67 1    
    39   18  143 1    
    40   19   20 am   BACKBONE|DICT|INTERRES
    41   19  144 1    
    42   20   21 2    
    43   20   22 1    
    44   22   23 1    
    45   22   24 1    
    46   22  145 1    
    47   23  146 1    
    48   23  147 1    
    49   23  148 1    
    50   24   25 am   BACKBONE|DICT|INTERRES
    51   24  149 1    
    52   25   26 2    
    53   25   27 1    
    54   27   28 1    
    55   27   29 1    
    56   27  150 1    
    57   28  151 1    
    58   28  152 1    
    59   28  153 1    
    60   29   30 am   BACKBONE|DICT|INTERRES
    61   29  154 1    
    62   30   31 2    
    63   30   32 1    
    64   32   33 1    
    65   32   34 1    
    66   32  155 1    
    67   33  156 1    
    68   33  157 1    
    69   33  158 1    
    70   34   35 am   BACKBONE|DICT|INTERRES
    71   34  159 1    
    72   35   36 2    
    73   35   37 1    
    74   37   38 1    
    75   37   39 1    
    76   37  160 1    
    77   38  161 1    
    78   38  162 1    
    79   38  163 1    
    80   39   40 am   BACKBONE|DICT|INTERRES
    81   39  164 1    
    82   40   41 2    
    83   40   42 1    
    84   42   43 1    
    85   42   44 1    
    86   42  165 1    
    87   43  166 1    
    88   43  167 1    
    89   43  168 1    
    90   44   45 am   BACKBONE|DICT|INTERRES
    91   44  169 1    
    92   45   46 2    
    93   45   47 1    
    94   47   48 1    
    95   47   49 1    
    96   47  170 1    
    97   48  171 1    
    98   48  172 1    
    99   48  173 1    
   100   49   50 am   BACKBONE|DICT|INTERRES
   101   49  174 1    
   102   50   51 2    
   103   50   52 1    
   104   52   53 1    
   105   52   54 1    
   106   52  175 1    
   107   53  176 1    
   108   53  177 1    
   109   53  178 1    
   110   54   55 am   BACKBONE|DICT|INTERRES
   111   54  179 1    
   112   55   56 2    
   113   55   57 1    
   114   57   58 1    
   115   57   59 1    
   116   57  180 1    
   117   58  181 1    
   118   58  182 1    
   119   58  183 1    
   120   59   60 am   BACKBONE|DICT|INTERRES
   121   59  184 1    
   122   60   61 2    
   123   60   62 1    
   124   62   63 1    
   125   62   64 1    
   126   62  185 1    
   127   63  186 1    
   128   63  187 1    
   129   63  188 1    
   130   64   65 am   BACKBONE|DICT|INTERRES
   131   64  189 1    
   132   65   66 2    
   133   67   68 2    
   134   67   69 am   BACKBONE|DICT|INTERRES
   135   69   70 1    
   136   69  190 1    
   137   70   71 1    
   138   70   72 1    
   139   70  191 1    
   140   71  192 1    
   141   71  193 1    
   142   71  194 1    
   143   72   73 2    
   144   72   74 am   BACKBONE|DICT|INTERRES
   145   74   75 1    
   146   74  195 1    
   147   75   76 1    
   148   75   77 1    
   149   75  196 1    
   150   76  197 1    
   151   76  198 1    
   152   76  199 1    
   153   77   78 2    
   154   77   79 am   BACKBONE|DICT|INTERRES
   155   79   80 1    
   156   79  200 1    
   157   80   81 1    
   158   80   82 1    
   159   80  201 1    
   160   81  202 1    
   161   81  203 1    
   162   81  204 1    
   163   82   83 2    
   164   82   84 am   BACKBONE|DICT|INTERRES
   165   84   85 1    
   166   84  205 1    
   167   85   86 1    
   168   85   87 1    
   169   85  206 1    
   170   86  207 1    
   171   86  208 1    
   172   86  209 1    
   173   87   88 2    
   174   87   89 am   BACKBONE|DICT|INTERRES
   175   89   90 1    
   176   89  210 1    
   177   90   91 1    
   178   90   92 1    
   179   90  211 1    
   180   91  212 1    
   181   91  213 1    
   182   91  214 1    
   183   92   93 2    
   184   92   94 am   BACKBONE|DICT|INTERRES
   185   94   95 1    
   186   94  215 1    
   187   95   96 1    
   188   95   97 1    
   189   95  216 1    
   190   96  217 1    
   191   96  218 1    
   192   96  219 1    
   193   97   98 2    
   194   97   99 am   BACKBONE|DICT|INTERRES
   195   99  100 1    
   196   99  220 1    
   197  100  101 1    
   198  100  102 1    
   199  100  221 1    
   200  101  222 1    
   201  101  223 1    
   202  101  224 1    
   203  102  103 2    
   204  102  104 am   BACKBONE|DICT|INTERRES
   205  104  105 1    
   206  104  225 1    
   207  105  106 1    
   208  105  107 1    
   209  105  226 1    
   210  106  227 1    
   211  106  228 1    
   212  106  229 1    
   213  107  108 2    
   214  107  109 am   BACKBONE|DICT|INTERRES
   215  109  110 1    
   216  109  230 1    
   217  110  111 1    
   218  110  112 1    
   219  110  231 1    
   220  111  232 1    
   221  111  233 1    
   222  111  234 1    
   223  112  113 2    
   224  112  114 am   BACKBONE|DICT|INTERRES
   225  114  115 1    
   226  114  235 1    
   227  115  116 1    
   228  115  117 1    
   229  115  236 1    
   230  116  237 1    
   231  116  238 1    
   232  116  239 1    
   233  117  118 2    
   234  117  119 am   BACKBONE|DICT|INTERRES
   235  119  120 1    
   236  119  240 1    
   237  120  121 1    
   238  120  124 1    
   239  120  241 1    
   240  121  122 am   BACKBONE|DICT|INTERRES
   241  121  123 2    
   242  122  242 1    
   243  122  243 1    
   244  124  125 1    
   245  124  244 1    
   246  124  245 1    
   247  125  126 1    
   248  126  246 1    
   249  126  247 1    
@<TRIPOS>SUBSTRUCTURE
     1 UNK         1 GROUP             0       ****    0 ROOT    
