@<TRIPOS>MOLECULE
3R540
247   249    1
SMALL
USER_CHARGES


@<TRIPOS>ATOM
      1 CA          6.1097  -12.5209  -50.4925 C.3       0 UNK        -0.1800 
      2 C           5.7239  -12.5490  -49.0202 C.2       0 UNK         0.5000 
      3 O           6.5120  -12.1306  -48.1714 O.2       0 UNK        -0.5000 
      4 N           4.5200  -13.0469  -48.7157 N.am      1 UNK        -0.5000 
      5 CA          3.9542  -13.1083  -47.3642 C.3       1 UNK         0.1400 
      6 C6          2.7351  -14.0605  -47.2821 C.3       23 UNK        -0.0398 
      7 S7          3.1288  -15.7730  -47.7835 S.3       23 UNK        -0.2404 
      8 C8          2.5397  -15.8034  -49.5085 C.3       23 UNK        -0.0205 
      9 C9          1.4783  -16.8704  -49.7270 C.ar      23 UNK        -0.0193 
     10 C10         0.1280  -16.5886  -49.4855 C.ar      23 UNK        -0.1150 
     11 C11        -0.8502  -17.5633  -49.7115 C.ar      23 UNK        -0.0193 
     12 C12        -0.4654  -18.8208  -50.1772 C.ar      23 UNK        -0.1150 
     13 C13         0.8746  -19.1095  -50.4400 C.ar      23 UNK        -0.0193 
     14 C14         1.8453  -18.1327  -50.2061 C.ar      23 UNK        -0.1150 
     15 C15         1.2530  -20.4752  -50.9933 C.3       23 UNK        -0.0205 
     16 S16         1.9230  -21.6420  -49.7571 S.3       23 UNK        -0.2404 
     17 C17         1.2010  -21.1503  -48.1516 C.3       23 UNK        -0.0398 
     18 CA          0.5561  -22.3220  -47.3779 C.3       11 UNK         0.1400 
     19 N           0.6640  -22.1141  -45.9342 N.am      11 UNK        -0.5000 
     20 C           0.4770  -23.0632  -45.0095 C.2       10 UNK         0.5000 
     21 O           0.2490  -24.2422  -45.2779 O.2       10 UNK        -0.5000 
     22 CA          0.5238  -22.6102  -43.5384 C.3       10 UNK         0.1400 
     23 CB          1.9712  -22.5841  -43.0254 C.3       10 UNK        -0.1800 
     24 N          -0.0923  -21.2978  -43.3290 N.am      10 UNK        -0.5000 
     25 C          -1.3932  -21.0342  -43.5186 C.2       9 UNK         0.5000 
     26 O          -2.2184  -21.8844  -43.8532 O.2       9 UNK        -0.5000 
     27 CA         -1.8392  -19.5691  -43.3530 C.3       9 UNK         0.1400 
     28 CB         -1.9901  -19.2041  -41.8691 C.3       9 UNK        -0.1800 
     29 N          -0.9328  -18.6208  -44.0014 N.am      9 UNK        -0.5000 
     30 C          -0.6805  -18.5812  -45.3174 C.2       8 UNK         0.5000 
     31 O          -1.1994  -19.3307  -46.1397 O.2       8 UNK        -0.5000 
     32 CA          0.3676  -17.5667  -45.7927 C.3       8 UNK         0.1400 
     33 CB         -0.2577  -16.1685  -45.9159 C.3       8 UNK        -0.1800 
     34 N           1.5328  -17.5356  -44.9083 N.am      8 UNK        -0.5000 
     35 C           2.3843  -18.5606  -44.7494 C.2       7 UNK         0.5000 
     36 O           2.2852  -19.6337  -45.3430 O.2       7 UNK        -0.5000 
     37 CA          3.5044  -18.3741  -43.7110 C.3       7 UNK         0.1400 
     38 CB          4.6259  -17.4902  -44.2788 C.3       7 UNK        -0.1800 
     39 N           3.0139  -17.7947  -42.4608 N.am      7 UNK        -0.5000 
     40 C           2.1223  -18.3743  -41.6426 C.2       6 UNK         0.5000 
     41 O           1.6674  -19.5048  -41.8134 O.2       6 UNK        -0.5000 
     42 CA          1.6061  -17.5149  -40.4705 C.3       6 UNK         0.1400 
     43 CB          2.5092  -17.6800  -39.2395 C.3       6 UNK        -0.1800 
     44 N           1.4996  -16.0916  -40.8113 N.am      6 UNK        -0.5000 
     45 C           0.7238  -15.6077  -41.7906 C.2       5 UNK         0.5000 
     46 O          -0.0259  -16.3129  -42.4706 O.2       5 UNK        -0.5000 
     47 CA          0.8885  -14.1111  -42.1123 C.3       5 UNK         0.1400 
     48 CB          2.2410  -13.8622  -42.8025 C.3       5 UNK        -0.1800 
     49 N          -0.1638  -13.6233  -42.9983 N.am      5 UNK        -0.5000 
     50 C          -1.4416  -13.4163  -42.6661 C.2       4 UNK         0.5000 
     51 O          -1.8767  -13.5420  -41.5195 O.2       4 UNK        -0.5000 
     52 CA         -2.3708  -12.9657  -43.8166 C.3       4 UNK         0.1400 
     53 CB         -3.8188  -12.7245  -43.3533 C.3       4 UNK        -0.1800 
     54 N          -1.8809  -11.7526  -44.4775 N.am      4 UNK        -0.5000 
     55 C          -0.8631  -11.6892  -45.3458 C.2       3 UNK         0.5000 
     56 O          -0.2396  -12.6828  -45.7288 O.2       3 UNK        -0.5000 
     57 CA         -0.4413  -10.2963  -45.8608 C.3       3 UNK         0.1400 
     58 CB         -1.1720   -9.1111  -45.1890 C.3       3 UNK        -0.1800 
     59 N           1.0127  -10.1340  -45.7785 N.am      3 UNK        -0.5000 
     60 C           1.7755  -10.1713  -44.6768 C.2       2 UNK         0.5000 
     61 O           1.3284  -10.2340  -43.5302 O.2       2 UNK        -0.5000 
     62 CA          3.3001  -10.1943  -44.9182 C.3       2 UNK         0.1400 
     63 CB          4.1112  -10.0388  -43.6188 C.3       2 UNK        -0.1800 
     64 N           3.7093  -11.4347  -45.5827 N.am      2 UNK        -0.5000 
     65 C           3.5519  -11.6982  -46.8861 C.2       1 UNK         0.5000 
     66 O           3.0684  -10.8933  -47.6881 O.2       1 UNK        -0.5000 
     67 C          -0.9092  -22.5728  -47.7976 C.2       11 UNK         0.5000 
     68 O          -1.1808  -23.5162  -48.5405 O.2       11 UNK        -0.5000 
     69 N          -1.8426  -21.7655  -47.2726 N.am      12 UNK        -0.5000 
     70 CA         -3.2885  -21.8816  -47.4782 C.3       12 UNK         0.1400 
     71 CB         -4.0041  -20.6968  -46.8158 C.3       12 UNK        -0.1800 
     72 C          -3.8758  -23.2150  -46.9828 C.2       12 UNK         0.5000 
     73 O          -4.7950  -23.7362  -47.6128 O.2       12 UNK        -0.5000 
     74 N          -3.3003  -23.7785  -45.9109 N.am      13 UNK        -0.5000 
     75 CA         -3.6159  -25.1157  -45.3989 C.3       13 UNK         0.1400 
     76 CB         -2.9372  -25.3144  -44.0357 C.3       13 UNK        -0.1800 
     77 C          -3.2413  -26.2553  -46.3728 C.2       13 UNK         0.5000 
     78 O          -3.8378  -27.3295  -46.2983 O.2       13 UNK        -0.5000 
     79 N          -2.3070  -25.9907  -47.2971 N.am      14 UNK        -0.5000 
     80 CA         -1.9490  -26.8479  -48.4295 C.3       14 UNK         0.1400 
     81 CB         -0.4163  -26.8725  -48.5701 C.3       14 UNK        -0.1800 
     82 C          -2.6468  -26.3684  -49.7225 C.2       14 UNK         0.5000 
     83 O          -2.0899  -26.4988  -50.8147 O.2       14 UNK        -0.5000 
     84 N          -3.8417  -25.7749  -49.5745 N.am      15 UNK        -0.5000 
     85 CA         -4.7158  -25.2168  -50.6125 C.3       15 UNK         0.1400 
     86 CB         -5.2300  -26.3286  -51.5501 C.3       15 UNK        -0.1800 
     87 C          -4.0948  -24.0418  -51.3939 C.2       15 UNK         0.5000 
     88 O          -4.5671  -23.7310  -52.4889 O.2       15 UNK        -0.5000 
     89 N          -3.0514  -23.4104  -50.8347 N.am      16 UNK        -0.5000 
     90 CA         -2.1928  -22.4021  -51.4651 C.3       16 UNK         0.1400 
     91 CB         -2.9708  -21.1044  -51.7718 C.3       16 UNK        -0.1800 
     92 C          -1.4168  -22.9650  -52.6746 C.2       16 UNK         0.5000 
     93 O          -1.1515  -22.2329  -53.6269 O.2       16 UNK        -0.5000 
     94 N          -1.0801  -24.2644  -52.6113 N.am      17 UNK        -0.5000 
     95 CA         -0.5021  -25.0769  -53.6864 C.3       17 UNK         0.1400 
     96 CB          0.9121  -24.5883  -54.0655 C.3       17 UNK        -0.1800 
     97 C          -1.4667  -25.1845  -54.8864 C.2       17 UNK         0.5000 
     98 O          -1.0612  -24.9948  -56.0343 O.2       17 UNK        -0.5000 
     99 N          -2.7373  -25.4779  -54.5683 N.am      18 UNK        -0.5000 
    100 CA        -3.8926  -25.5586  -55.4665 C.3       18 UNK         0.1400 
    101 CB        -3.7283  -26.7044  -56.4874 C.3       18 UNK        -0.1800 
    102 C         -4.2226  -24.1977  -56.1140 C.2       18 UNK         0.5000 
    103 O         -4.3164  -24.0929  -57.3386 O.2       18 UNK        -0.5000 
    104 N         -4.4049  -23.1811  -55.2635 N.am      19 UNK        -0.5000 
    105 CA        -4.7965  -21.8206  -55.6343 C.3       19 UNK         0.1400 
    106 CB        -3.5625  -20.9018  -55.6585 C.3       19 UNK        -0.1800 
    107 C         -5.9140  -21.3205  -54.7005 C.2       19 UNK         0.5000 
    108 O         -5.9012  -20.1649  -54.2709 O.2       19 UNK        -0.5000 
    109 N         -6.8602  -22.2220  -54.3932 N.am      20 UNK        -0.5000 
    110 CA        -8.1001  -21.9991  -53.6378 C.3       20 UNK         0.1400 
    111 CB        -9.0773  -21.1447  -54.4719 C.3       20 UNK        -0.1800 
    112 C         -7.8897  -21.4317  -52.2174 C.2       20 UNK         0.5000 
    113 O         -8.7362  -20.6823  -51.7255 O.2       20 UNK        -0.5000 
    114 N         -6.7523  -21.7739  -51.5918 N.am      21 UNK        -0.5000 
    115 CA        -6.3244  -21.3414  -50.2533 C.3       21 UNK         0.1400 
    116 CB        -7.2253  -21.9811  -49.1764 C.3       21 UNK        -0.1800 
    117 C         -6.2075  -19.8063  -50.0962 C.2       21 UNK         0.5000 
    118 O         -6.3534  -19.2965  -48.9850 O.2       21 UNK        -0.5000 
    119 N         -5.9737  -19.0994  -51.2125 N.am      22 UNK        -0.5000 
    120 CA        -6.0265  -17.6307  -51.3363 C.3       22 UNK         0.1400 
    121 C         -7.4519  -17.0209  -51.1409 C.2       22 UNK         0.5000 
    122 N         -8.5293  -17.7964  -51.1995 N.am      22 UNK        -0.7600 
    123 O         -7.5956  -15.8134  -50.9672 O.2       22 UNK        -0.5000 
    124 C124       -4.9365  -16.8884  -50.5056 C.3       23 UNK        -0.0398 
    125 S125       -3.2460  -17.2987  -51.0512 S.3       23 UNK        -0.2404 
    126 C126       -2.3260  -17.2736  -49.4783 C.3       23 UNK        -0.0205 
    127 H127        5.3239  -12.9335  -51.1257 H         1 UNK         0.0600 
    128 H128        7.0168  -13.1032  -50.6540 H         1 UNK         0.0600 
    129 H129        6.2997  -11.4959  -50.8109 H         1 UNK         0.0600 
    130 H130        3.9089  -13.3485  -49.4590 H         1 UNK         0.3000 
    131 H131        4.7285  -13.4901  -46.6948 H         1 UNK         0.0600 
    132 H132        2.3753  -14.1041  -46.2530 H         1 UNK         0.0800 
    133 H133        1.8954  -13.6824  -47.8681 H         1 UNK         0.0800 
    134 H134        2.1436  -14.8329  -49.8083 H         1 UNK         0.0800 
    135 H135        3.3939  -15.9881  -50.1618 H         1 UNK         0.0800 
    136 H136       -0.1585  -15.6101  -49.1265 H         1 UNK         0.1150 
    137 H137       -1.2192  -19.5739  -50.3428 H         1 UNK         0.1150 
    138 H138        2.8848  -18.3542  -50.4035 H         1 UNK         0.1150 
    139 H139        0.3933  -20.9302  -51.4815 H         1 UNK         0.0800 
    140 H140        1.9959  -20.3475  -51.7819 H         1 UNK         0.0800 
    141 H141        0.5056  -20.3177  -48.2253 H         1 UNK         0.0800 
    142 H142        2.0473  -20.7583  -47.5890 H         1 UNK         0.0800 
    143 H143        1.1177  -23.2309  -47.6055 H         1 UNK         0.0600 
    144 H144        0.8984  -21.1763  -45.6269 H         1 UNK         0.3000 
    145 H145       -0.0343  -23.3409  -42.9492 H         1 UNK         0.0600 
    146 H146        2.4532  -23.5528  -43.1627 H         1 UNK         0.0600 
    147 H147        2.5706  -21.8394  -43.5506 H         1 UNK         0.0600 
    148 H148        2.0070  -22.3506  -41.9612 H         1 UNK         0.0600 
    149 H149        0.5200  -20.5539  -43.0064 H         1 UNK         0.3000 
    150 H150       -2.8170  -19.4636  -43.8267 H         1 UNK         0.0600 
    151 H151       -2.3433  -18.1797  -41.7483 H         1 UNK         0.0600 
    152 H152       -1.0460  -19.2974  -41.3329 H         1 UNK         0.0600 
    153 H153       -2.7116  -19.8587  -41.3787 H         1 UNK         0.0600 
    154 H154       -0.4872  -17.9291  -43.4044 H         1 UNK         0.3000 
    155 H155        0.7068  -17.8753  -46.7842 H         1 UNK         0.0600 
    156 H156       -0.6073  -15.7881  -44.9573 H         1 UNK         0.0600 
    157 H157       -1.1156  -16.1868  -46.5888 H         1 UNK         0.0600 
    158 H158        0.4496  -15.4501  -46.3231 H         1 UNK         0.0600 
    159 H159        1.6423  -16.7161  -44.3323 H         1 UNK         0.3000 
    160 H160        3.9211  -19.3584  -43.4868 H         1 UNK         0.0600 
    161 H161        5.0152  -17.9054  -45.2094 H         1 UNK         0.0600 
    162 H162        5.4611  -17.4163  -43.5823 H         1 UNK         0.0600 
    163 H163        4.2767  -16.4793  -44.4939 H         1 UNK         0.0600 
    164 H164        3.3385  -16.8677  -42.2317 H         1 UNK         0.3000 
    165 H165        0.6074  -17.8719  -40.2122 H         1 UNK         0.0600 
    166 H166        2.1088  -17.1401  -38.3812 H         1 UNK         0.0600 
    167 H167        2.5891  -18.7296  -38.9530 H         1 UNK         0.0600 
    168 H168        3.5190  -17.3130  -39.4271 H         1 UNK         0.0600 
    169 H169        2.0921  -15.4586  -40.2933 H         1 UNK         0.3000 
    170 H170        0.8508  -13.5462  -41.1787 H         1 UNK         0.0600 
    171 H171        2.3694  -12.8063  -43.0376 H         1 UNK         0.0600 
    172 H172        3.0754  -14.1504  -42.1624 H         1 UNK         0.0600 
    173 H173        2.3287  -14.4238  -43.7332 H         1 UNK         0.0600 
    174 H174        0.0865  -13.4766  -43.9706 H         1 UNK         0.3000 
    175 H175       -2.3895  -13.7774  -44.5471 H         1 UNK         0.0600 
    176 H176       -3.8787  -11.9190  -42.6204 H         1 UNK         0.0600 
    177 H177       -4.4628  -12.4628  -44.1931 H         1 UNK         0.0600 
    178 H178       -4.2371  -13.6208  -42.8935 H         1 UNK         0.0600 
    179 H179       -2.3073  -10.8861  -44.1834 H         1 UNK         0.3000 
    180 H180       -0.6910  -10.2792  -46.9224 H         1 UNK         0.0600 
    181 H181       -0.8203   -8.1610  -45.5912 H         1 UNK         0.0600 
    182 H182       -1.0184   -9.0876  -44.1096 H         1 UNK         0.0600 
    183 H183       -2.2462   -9.1542  -45.3728 H         1 UNK         0.0600 
    184 H184        1.5043  -10.1680  -46.6663 H         1 UNK         0.3000 
    185 H185        3.5434   -9.3466  -45.5625 H         1 UNK         0.0600 
    186 H186        3.9374  -10.8652  -42.9289 H         1 UNK         0.0600 
    187 H187        5.1807   -9.9951  -43.8258 H         1 UNK         0.0600 
    188 H188        3.8446   -9.1167  -43.1008 H         1 UNK         0.0600 
    189 H189        4.0967  -12.1478  -44.9823 H         1 UNK         0.3000 
    190 H190       -1.5425  -20.9737  -46.7046 H         1 UNK         0.3000 
    191 H191       -3.4697  -21.8227  -48.5515 H         1 UNK         0.0600 
    192 H192       -3.8004  -20.6517  -45.7465 H         1 UNK         0.0600 
    193 H193       -5.0846  -20.7684  -46.9383 H         1 UNK         0.0600 
    194 H194       -3.6925  -19.7508  -47.2580 H         1 UNK         0.0600 
    195 H195       -2.6011  -23.2479  -45.4026 H         1 UNK         0.3000 
    196 H196       -4.6961  -25.1627  -45.2466 H         1 UNK         0.0600 
    197 H197       -3.2128  -26.2753  -43.5994 H         1 UNK         0.0600 
    198 H198       -3.2349  -24.5394  -43.3291 H         1 UNK         0.0600 
    199 H199       -1.8512  -25.2933  -44.1182 H         1 UNK         0.0600 
    200 H200       -1.8855  -25.0690  -47.3071 H         1 UNK         0.3000 
    201 H201       -2.2844  -27.8704  -48.2470 H         1 UNK         0.0600 
    202 H202        0.0584  -27.1929  -47.6425 H         1 UNK         0.0600 
    203 H203       -0.0167  -25.8913  -48.8272 H         1 UNK         0.0600 
    204 H204       -0.1047  -27.5683  -49.3500 H         1 UNK         0.0600 
    205 H205       -4.1805  -25.6415  -48.6299 H         1 UNK         0.3000 
    206 H206       -5.5787  -24.8022  -50.0903 H         1 UNK         0.0600 
    207 H207       -5.9883  -25.9474  -52.2351 H         1 UNK         0.0600 
    208 H208       -4.4294  -26.7558  -52.1542 H         1 UNK         0.0600 
    209 H209       -5.6888  -27.1386  -50.9832 H         1 UNK         0.0600 
    210 H210       -2.7120  -23.7494  -49.9411 H         1 UNK         0.3000 
    211 H211       -1.4310  -22.1468  -50.7306 H         1 UNK         0.0600 
    212 H212       -3.8177  -21.2722  -52.4340 H         1 UNK         0.0600 
    213 H213       -2.3332  -20.3619  -52.2526 H         1 UNK         0.0600 
    214 H214       -3.3445  -20.6489  -50.8561 H         1 UNK         0.0600 
    215 H215       -1.3555  -24.7895  -51.7882 H         1 UNK         0.3000 
    216 H216       -0.4009  -26.0860  -53.2839 H         1 UNK         0.0600 
    217 H217        1.3870  -25.2804  -54.7615 H         1 UNK         0.0600 
    218 H218        1.5535  -24.5196  -53.1869 H         1 UNK         0.0600 
    219 H219        0.8935  -23.6092  -54.5445 H         1 UNK         0.0600 
    220 H220       -2.9500  -25.5833  -53.5871 H         1 UNK         0.3000 
    221 H221       -4.7478  -25.8090  -54.8368 H         1 UNK         0.0600 
    222 H222       -2.9173  -26.5141  -57.1907 H         1 UNK         0.0600 
    223 H223       -3.5234  -27.6509  -55.9873 H         1 UNK         0.0600 
    224 H224       -4.6396  -26.8370  -57.0714 H         1 UNK         0.0600 
    225 H225       -4.3403  -23.3631  -54.2630 H         1 UNK         0.3000 
    226 H226       -5.2292  -21.8224  -56.6366 H         1 UNK         0.0600 
    227 H227       -2.7865  -21.3003  -56.3121 H         1 UNK         0.0600 
    228 H228       -3.8216  -19.9088  -56.0273 H         1 UNK         0.0600 
    229 H229       -3.1314  -20.7792  -54.6665 H         1 UNK         0.0600 
    230 H230       -6.7443  -23.1539  -54.7654 H         1 UNK         0.3000 
    231 H231       -8.5547  -22.9812  -53.5011 H         1 UNK         0.0600 
    232 H232       -8.7113  -20.1255  -54.6013 H         1 UNK         0.0600 
    233 H233       -9.2307  -21.5740  -55.4619 H         1 UNK         0.0600 
    234 H234      -10.0554  -21.0834  -53.9932 H         1 UNK         0.0600 
    235 H235       -6.1038  -22.3710  -52.0932 H         1 UNK         0.3000 
    236 H236       -5.3205  -21.7336  -50.1048 H         1 UNK         0.0600 
    237 H237       -8.2424  -21.5903  -49.2137 H         1 UNK         0.0600 
    238 H238       -7.2766  -23.0630  -49.2968 H         1 UNK         0.0600 
    239 H239       -6.8411  -21.7906  -48.1746 H         1 UNK         0.0600 
    240 H240       -5.8873  -19.5985  -52.0898 H         1 UNK         0.3000 
    241 H241       -5.8079  -17.4349  -52.3866 H         1 UNK         0.0600 
    242 H242       -9.4391  -17.3799  -51.0829 H         1 UNK         0.3800 
    243 H243       -8.4581  -18.7976  -51.3558 H         1 UNK         0.3800 
    244 H244       -5.0398  -15.8073  -50.6091 H         1 UNK         0.0800 
    245 H245       -5.0481  -17.0989  -49.4418 H         1 UNK         0.0800 
    246 H246       -2.7375  -18.0227  -48.8001 H         1 UNK         0.0800 
    247 H247       -2.4579  -16.3038  -48.9963 H         1 UNK         0.0800 
@<TRIPOS>BOND
     1    1    2 1    
     2    1  127 1    
     3    1  128 1    
     4    1  129 1    
     5    2    3 2    
     6    2    4 am   BACKBONE|DICT|INTERRES
     7    4    5 1    
     8    4  130 1    
     9    5    6 1    
    10    5   65 1    
    11    5  131 1    
    12    6    7 1    
    13    6  132 1    
    14    6  133 1    
    15    7    8 1    
    16    8    9 1    
    17    8  134 1    
    18    8  135 1    
    19    9   10 ar   
    20    9   14 ar   
    21   10   11 ar   
    22   10  136 1    
    23   11   12 ar   
    24   11  126 1    
    25   12   13 ar   
    26   12  137 1    
    27   13   14 ar   
    28   13   15 1    
    29   14  138 1    
    30   15   16 1    
    31   15  139 1    
    32   15  140 1    
    33   16   17 1    
    34   17   18 1    
    35   17  141 1    
    36   17  142 1    
    37   18   19 1    
    38   18   67 1    
    39   18  143 1    
    40   19   20 am   BACKBONE|DICT|INTERRES
    41   19  144 1    
    42   20   21 2    
    43   20   22 1    
    44   22   23 1    
    45   22   24 1    
    46   22  145 1    
    47   23  146 1    
    48   23  147 1    
    49   23  148 1    
    50   24   25 am   BACKBONE|DICT|INTERRES
    51   24  149 1    
    52   25   26 2    
    53   25   27 1    
    54   27   28 1    
    55   27   29 1    
    56   27  150 1    
    57   28  151 1    
    58   28  152 1    
    59   28  153 1    
    60   29   30 am   BACKBONE|DICT|INTERRES
    61   29  154 1    
    62   30   31 2    
    63   30   32 1    
    64   32   33 1    
    65   32   34 1    
    66   32  155 1    
    67   33  156 1    
    68   33  157 1    
    69   33  158 1    
    70   34   35 am   BACKBONE|DICT|INTERRES
    71   34  159 1    
    72   35   36 2    
    73   35   37 1    
    74   37   38 1    
    75   37   39 1    
    76   37  160 1    
    77   38  161 1    
    78   38  162 1    
    79   38  163 1    
    80   39   40 am   BACKBONE|DICT|INTERRES
    81   39  164 1    
    82   40   41 2    
    83   40   42 1    
    84   42   43 1    
    85   42   44 1    
    86   42  165 1    
    87   43  166 1    
    88   43  167 1    
    89   43  168 1    
    90   44   45 am   BACKBONE|DICT|INTERRES
    91   44  169 1    
    92   45   46 2    
    93   45   47 1    
    94   47   48 1    
    95   47   49 1    
    96   47  170 1    
    97   48  171 1    
    98   48  172 1    
    99   48  173 1    
   100   49   50 am   BACKBONE|DICT|INTERRES
   101   49  174 1    
   102   50   51 2    
   103   50   52 1    
   104   52   53 1    
   105   52   54 1    
   106   52  175 1    
   107   53  176 1    
   108   53  177 1    
   109   53  178 1    
   110   54   55 am   BACKBONE|DICT|INTERRES
   111   54  179 1    
   112   55   56 2    
   113   55   57 1    
   114   57   58 1    
   115   57   59 1    
   116   57  180 1    
   117   58  181 1    
   118   58  182 1    
   119   58  183 1    
   120   59   60 am   BACKBONE|DICT|INTERRES
   121   59  184 1    
   122   60   61 2    
   123   60   62 1    
   124   62   63 1    
   125   62   64 1    
   126   62  185 1    
   127   63  186 1    
   128   63  187 1    
   129   63  188 1    
   130   64   65 am   BACKBONE|DICT|INTERRES
   131   64  189 1    
   132   65   66 2    
   133   67   68 2    
   134   67   69 am   BACKBONE|DICT|INTERRES
   135   69   70 1    
   136   69  190 1    
   137   70   71 1    
   138   70   72 1    
   139   70  191 1    
   140   71  192 1    
   141   71  193 1    
   142   71  194 1    
   143   72   73 2    
   144   72   74 am   BACKBONE|DICT|INTERRES
   145   74   75 1    
   146   74  195 1    
   147   75   76 1    
   148   75   77 1    
   149   75  196 1    
   150   76  197 1    
   151   76  198 1    
   152   76  199 1    
   153   77   78 2    
   154   77   79 am   BACKBONE|DICT|INTERRES
   155   79   80 1    
   156   79  200 1    
   157   80   81 1    
   158   80   82 1    
   159   80  201 1    
   160   81  202 1    
   161   81  203 1    
   162   81  204 1    
   163   82   83 2    
   164   82   84 am   BACKBONE|DICT|INTERRES
   165   84   85 1    
   166   84  205 1    
   167   85   86 1    
   168   85   87 1    
   169   85  206 1    
   170   86  207 1    
   171   86  208 1    
   172   86  209 1    
   173   87   88 2    
   174   87   89 am   BACKBONE|DICT|INTERRES
   175   89   90 1    
   176   89  210 1    
   177   90   91 1    
   178   90   92 1    
   179   90  211 1    
   180   91  212 1    
   181   91  213 1    
   182   91  214 1    
   183   92   93 2    
   184   92   94 am   BACKBONE|DICT|INTERRES
   185   94   95 1    
   186   94  215 1    
   187   95   96 1    
   188   95   97 1    
   189   95  216 1    
   190   96  217 1    
   191   96  218 1    
   192   96  219 1    
   193   97   98 2    
   194   97   99 am   BACKBONE|DICT|INTERRES
   195   99  100 1    
   196   99  220 1    
   197  100  101 1    
   198  100  102 1    
   199  100  221 1    
   200  101  222 1    
   201  101  223 1    
   202  101  224 1    
   203  102  103 2    
   204  102  104 am   BACKBONE|DICT|INTERRES
   205  104  105 1    
   206  104  225 1    
   207  105  106 1    
   208  105  107 1    
   209  105  226 1    
   210  106  227 1    
   211  106  228 1    
   212  106  229 1    
   213  107  108 2    
   214  107  109 am   BACKBONE|DICT|INTERRES
   215  109  110 1    
   216  109  230 1    
   217  110  111 1    
   218  110  112 1    
   219  110  231 1    
   220  111  232 1    
   221  111  233 1    
   222  111  234 1    
   223  112  113 2    
   224  112  114 am   BACKBONE|DICT|INTERRES
   225  114  115 1    
   226  114  235 1    
   227  115  116 1    
   228  115  117 1    
   229  115  236 1    
   230  116  237 1    
   231  116  238 1    
   232  116  239 1    
   233  117  118 2    
   234  117  119 am   BACKBONE|DICT|INTERRES
   235  119  120 1    
   236  119  240 1    
   237  120  121 1    
   238  120  124 1    
   239  120  241 1    
   240  121  122 am   BACKBONE|DICT|INTERRES
   241  121  123 2    
   242  122  242 1    
   243  122  243 1    
   244  124  125 1    
   245  124  244 1    
   246  124  245 1    
   247  125  126 1    
   248  126  246 1    
   249  126  247 1    
@<TRIPOS>SUBSTRUCTURE
     1 UNK         1 GROUP             0       ****    0 ROOT    
