@<TRIPOS>MOLECULE
3R540
247   249    1
SMALL
USER_CHARGES


@<TRIPOS>ATOM
      1 CA          0.2033  -18.3091  -40.9375 C.3       0 UNK        -0.1800 
      2 C          -0.7366  -17.2564  -41.5047 C.2       0 UNK         0.5000 
      3 O          -1.2819  -16.4481  -40.7527 O.2       0 UNK        -0.5000 
      4 N          -0.9199  -17.2515  -42.8304 N.am      1 UNK        -0.5000 
      5 CA         -1.7455  -16.2982  -43.5781 C.3       1 UNK         0.1400 
      6 C6         -2.2503  -16.9003  -44.9171 C.3       23 UNK        -0.0398 
      7 S7         -0.9278  -17.5503  -45.9954 S.3       23 UNK        -0.2404 
      8 C8         -1.8735  -17.9553  -47.4955 C.3       23 UNK        -0.0205 
      9 C9         -0.9624  -18.1484  -48.6985 C.ar      23 UNK        -0.0193 
     10 C10        -1.1719  -17.4117  -49.8673 C.ar      23 UNK        -0.1150 
     11 C11        -0.3418  -17.5923  -50.9765 C.ar      23 UNK        -0.0193 
     12 C12         0.7017  -18.5191  -50.9138 C.ar      23 UNK        -0.1150 
     13 C13         0.9278  -19.2584  -49.7499 C.ar      23 UNK        -0.0193 
     14 C14         0.0884  -19.0686  -48.6480 C.ar      23 UNK        -0.1150 
     15 C15         2.0947  -20.2343  -49.6872 C.3       23 UNK        -0.0205 
     16 S16         1.5521  -21.9618  -49.4944 S.3       23 UNK        -0.2404 
     17 C17         1.7008  -22.1609  -47.6918 C.3       23 UNK        -0.0398 
     18 CA          0.7165  -23.1862  -47.0878 C.3       11 UNK         0.1400 
     19 N           1.2421  -23.6851  -45.8162 N.am      11 UNK        -0.5000 
     20 C           0.8668  -24.8144  -45.2068 C.2       10 UNK         0.5000 
     21 O           0.0277  -25.5899  -45.6610 O.2       10 UNK        -0.5000 
     22 CA          1.5233  -25.1002  -43.8423 C.3       10 UNK         0.1400 
     23 CB          2.8588  -25.8351  -44.0294 C.3       10 UNK        -0.1800 
     24 N           1.7461  -23.8806  -43.0592 N.am      10 UNK        -0.5000 
     25 C           0.7585  -23.1459  -42.5302 C.2       9 UNK         0.5000 
     26 O          -0.4312  -23.4428  -42.6245 O.2       9 UNK        -0.5000 
     27 CA          1.1530  -21.8384  -41.8196 C.3       9 UNK         0.1400 
     28 CB          1.5098  -22.1029  -40.3502 C.3       9 UNK        -0.1800 
     29 N           2.2477  -21.1010  -42.4582 N.am      9 UNK        -0.5000 
     30 C           2.2546  -20.6471  -43.7177 C.2       8 UNK         0.5000 
     31 O           1.3535  -20.8763  -44.5242 O.2       8 UNK        -0.5000 
     32 CA          3.4557  -19.7696  -44.1244 C.3       8 UNK         0.1400 
     33 CB          3.5104  -19.5092  -45.6404 C.3       8 UNK        -0.1800 
     34 N           3.4439  -18.4805  -43.4291 N.am      8 UNK        -0.5000 
     35 C           3.8287  -18.2836  -42.1601 C.2       7 UNK         0.5000 
     36 O           4.2007  -19.1973  -41.4211 O.2       7 UNK        -0.5000 
     37 CA          3.8267  -16.8272  -41.6593 C.3       7 UNK         0.1400 
     38 CB          4.5978  -16.6573  -40.3319 C.3       7 UNK        -0.1800 
     39 N           4.3750  -15.9550  -42.6992 N.am      7 UNK        -0.5000 
     40 C           4.2927  -14.6189  -42.7277 C.2       6 UNK         0.5000 
     41 O           3.7252  -13.9433  -41.8690 O.2       6 UNK        -0.5000 
     42 CA          4.9303  -13.9302  -43.9494 C.3       6 UNK         0.1400 
     43 CB          6.4409  -14.2075  -44.0369 C.3       6 UNK        -0.1800 
     44 N           4.2774  -14.3491  -45.1914 N.am      6 UNK        -0.5000 
     45 C           3.0443  -13.9640  -45.5459 C.2       5 UNK         0.5000 
     46 O           2.3915  -13.1342  -44.9116 O.2       5 UNK        -0.5000 
     47 CA          2.4503  -14.6132  -46.8085 C.3       5 UNK         0.1400 
     48 CB          2.3844  -16.1438  -46.6643 C.3       5 UNK        -0.1800 
     49 N           1.0934  -14.1161  -47.0203 N.am      5 UNK        -0.5000 
     50 C           0.6996  -13.3125  -48.0126 C.2       4 UNK         0.5000 
     51 O           1.4401  -12.9236  -48.9172 O.2       4 UNK        -0.5000 
     52 CA         -0.7683  -12.8577  -47.9924 C.3       4 UNK         0.1400 
     53 CB         -1.6904  -13.9998  -48.4494 C.3       4 UNK        -0.1800 
     54 N          -1.1836  -12.4116  -46.6602 N.am      4 UNK        -0.5000 
     55 C          -1.6593  -11.1913  -46.3728 C.2       3 UNK         0.5000 
     56 O          -1.7409  -10.2810  -47.1990 O.2       3 UNK        -0.5000 
     57 CA         -2.1641  -10.9313  -44.9367 C.3       3 UNK         0.1400 
     58 CB         -3.6999  -10.9754  -44.8976 C.3       3 UNK        -0.1800 
     59 N          -1.6484  -11.8848  -43.9557 N.am      3 UNK        -0.5000 
     60 C          -0.4296  -11.8317  -43.4039 C.2       2 UNK         0.5000 
     61 O           0.3505  -10.8952  -43.5815 O.2       2 UNK        -0.5000 
     62 CA         -0.0110  -13.0092  -42.4924 C.3       2 UNK         0.1400 
     63 CB         -0.0349  -12.5785  -41.0176 C.3       2 UNK        -0.1800 
     64 N          -0.7969  -14.2443  -42.6257 N.am      2 UNK        -0.5000 
     65 C          -1.0096  -14.9488  -43.7452 C.2       1 UNK         0.5000 
     66 O          -0.6474  -14.5719  -44.8592 O.2       1 UNK        -0.5000 
     67 C          -0.7126  -22.6214  -46.9149 C.2       11 UNK         0.5000 
     68 O          -1.5686  -22.8272  -47.7782 O.2       11 UNK        -0.5000 
     69 N          -0.9601  -21.9763  -45.7651 N.am      12 UNK        -0.5000 
     70 CA         -2.2773  -21.5349  -45.3119 C.3       12 UNK         0.1400 
     71 CB         -2.1254  -20.6550  -44.0616 C.3       12 UNK        -0.1800 
     72 C          -3.2206  -22.7203  -45.0379 C.2       12 UNK         0.5000 
     73 O          -4.3700  -22.6864  -45.4745 O.2       12 UNK        -0.5000 
     74 N          -2.7109  -23.7650  -44.3675 N.am      13 UNK        -0.5000 
     75 CA         -3.4257  -25.0166  -44.0967 C.3       13 UNK         0.1400 
     76 CB         -2.6130  -25.8752  -43.1164 C.3       13 UNK        -0.1800 
     77 C          -3.7556  -25.8128  -45.3740 C.2       13 UNK         0.5000 
     78 O          -4.8260  -26.4162  -45.4527 O.2       13 UNK        -0.5000 
     79 N          -2.8550  -25.7639  -46.3662 N.am      14 UNK        -0.5000 
     80 CA         -3.0594  -26.3015  -47.7147 C.3       14 UNK         0.1400 
     81 CB         -1.7037  -26.3873  -48.4331 C.3       14 UNK        -0.1800 
     82 C          -4.0668  -25.4867  -48.5551 C.2       14 UNK         0.5000 
     83 O          -4.5231  -25.9824  -49.5860 O.2       14 UNK        -0.5000 
     84 N          -4.3974  -24.2698  -48.0967 N.am      15 UNK        -0.5000 
     85 CA         -5.3549  -23.3204  -48.6634 C.3       15 UNK         0.1400 
     86 CB         -6.7886  -23.8832  -48.5867 C.3       15 UNK        -0.1800 
     87 C          -4.9561  -22.8473  -50.0729 C.2       15 UNK         0.5000 
     88 O          -5.7937  -22.8178  -50.9759 O.2       15 UNK        -0.5000 
     89 N          -3.6798  -22.4645  -50.2293 N.am      16 UNK        -0.5000 
     90 CA         -3.0698  -22.0108  -51.4853 C.3       16 UNK         0.1400 
     91 CB         -1.6171  -21.6032  -51.2106 C.3       16 UNK        -0.1800 
     92 C          -3.8204  -20.8649  -52.1926 C.2       16 UNK         0.5000 
     93 O          -3.9169  -20.8688  -53.4210 O.2       16 UNK        -0.5000 
     94 N          -4.3717  -19.9333  -51.4034 N.am      17 UNK        -0.5000 
     95 CA         -5.1711  -18.8071  -51.8844 C.3       17 UNK         0.1400 
     96 CB         -5.3333  -17.7845  -50.7501 C.3       17 UNK        -0.1800 
     97 C          -6.5425  -19.2308  -52.4435 C.2       17 UNK         0.5000 
     98 O          -7.0013  -18.6418  -53.4223 O.2       17 UNK        -0.5000 
     99 N          -7.1618  -20.2533  -51.8365 N.am      18 UNK        -0.5000 
    100 CA        -8.4367  -20.8248  -52.2792 C.3       18 UNK         0.1400 
    101 CB        -9.0960  -21.5795  -51.1156 C.3       18 UNK        -0.1800 
    102 C         -8.2507  -21.7533  -53.4915 C.2       18 UNK         0.5000 
    103 O         -9.0995  -21.7729  -54.3831 O.2       18 UNK        -0.5000 
    104 N         -7.1230  -22.4770  -53.5164 N.am      19 UNK        -0.5000 
    105 CA        -6.6817  -23.3260  -54.6245 C.3       19 UNK         0.1400 
    106 CB        -5.5417  -24.2272  -54.1241 C.3       19 UNK        -0.1800 
    107 C         -6.2276  -22.5303  -55.8666 C.2       19 UNK         0.5000 
    108 O         -6.0940  -23.1200  -56.9394 O.2       19 UNK        -0.5000 
    109 N         -5.9876  -21.2213  -55.6932 N.am      20 UNK        -0.5000 
    110 CA        -5.4823  -20.2598  -56.6772 C.3       20 UNK         0.1400 
    111 CB        -6.4716  -20.0826  -57.8477 C.3       20 UNK        -0.1800 
    112 C         -4.0442  -20.5800  -57.1352 C.2       20 UNK         0.5000 
    113 O         -3.6817  -20.3184  -58.2837 O.2       20 UNK        -0.5000 
    114 N         -3.2354  -21.1161  -56.2108 N.am      21 UNK        -0.5000 
    115 CA        -1.8205  -21.4357  -56.4147 C.3       21 UNK         0.1400 
    116 CB        -1.3757  -22.4171  -55.3196 C.3       21 UNK        -0.1800 
    117 C         -0.9210  -20.1826  -56.4246 C.2       21 UNK         0.5000 
    118 O          0.2222  -20.2572  -56.8761 O.2       21 UNK        -0.5000 
    119 N         -1.4557  -19.0602  -55.9293 N.am      22 UNK        -0.5000 
    120 CA        -0.8049  -17.7436  -55.8474 C.3       22 UNK         0.1400 
    121 C         -0.5689  -17.0406  -57.2174 C.2       22 UNK         0.5000 
    122 N         -1.1575  -17.4997  -58.3159 N.am      22 UNK        -0.7600 
    123 O          0.1656  -16.0588  -57.2840 O.2       22 UNK        -0.5000 
    124 C124       -1.5665  -16.7984  -54.8808 C.3       23 UNK        -0.0398 
    125 S125       -1.8738  -17.5576  -53.2501 S.3       23 UNK        -0.2404 
    126 C126       -0.5712  -16.7924  -52.2462 C.3       23 UNK        -0.0205 
    127 H127        0.8990  -17.8558  -40.2315 H         1 UNK         0.0600 
    128 H128        0.7840  -18.7861  -41.7250 H         1 UNK         0.0600 
    129 H129       -0.3646  -19.0774  -40.4131 H         1 UNK         0.0600 
    130 H130       -0.4289  -17.9198  -43.4070 H         1 UNK         0.3000 
    131 H131       -2.6371  -16.0857  -42.9841 H         1 UNK         0.0600 
    132 H132       -2.8281  -16.1577  -45.4703 H         1 UNK         0.0800 
    133 H133       -2.9424  -17.7166  -44.7079 H         1 UNK         0.0800 
    134 H134       -2.5970  -17.1629  -47.6915 H         1 UNK         0.0800 
    135 H135       -2.4462  -18.8675  -47.3284 H         1 UNK         0.0800 
    136 H136       -1.9842  -16.7013  -49.9209 H         1 UNK         0.1150 
    137 H137        1.3417  -18.6600  -51.7734 H         1 UNK         0.1150 
    138 H138        0.2468  -19.6267  -47.7391 H         1 UNK         0.1150 
    139 H139        2.7657  -19.9494  -48.8756 H         1 UNK         0.0800 
    140 H140        2.6889  -20.1704  -50.5999 H         1 UNK         0.0800 
    141 H141        1.6147  -21.2014  -47.1855 H         1 UNK         0.0800 
    142 H142        2.7266  -22.4890  -47.5168 H         1 UNK         0.0800 
    143 H143        0.6520  -24.0381  -47.7680 H         1 UNK         0.0600 
    144 H144        1.8838  -23.0755  -45.3310 H         1 UNK         0.3000 
    145 H145        0.8520  -25.7523  -43.2796 H         1 UNK         0.0600 
    146 H146        2.7199  -26.7578  -44.5946 H         1 UNK         0.0600 
    147 H147        3.2968  -26.1069  -43.0688 H         1 UNK         0.0600 
    148 H148        3.5841  -25.2252  -44.5693 H         1 UNK         0.0600 
    149 H149        2.7001  -23.5742  -42.9368 H         1 UNK         0.3000 
    150 H150        0.2742  -21.1921  -41.8396 H         1 UNK         0.0600 
    151 H151        2.4108  -22.7105  -40.2581 H         1 UNK         0.0600 
    152 H152        0.7027  -22.6305  -39.8399 H         1 UNK         0.0600 
    153 H153        1.6778  -21.1696  -39.8121 H         1 UNK         0.0600 
    154 H154        3.0124  -20.8113  -41.8575 H         1 UNK         0.3000 
    155 H155        4.3650  -20.3091  -43.8508 H         1 UNK         0.0600 
    156 H156        2.6000  -19.0322  -46.0064 H         1 UNK         0.0600 
    157 H157        3.6393  -20.4429  -46.1873 H         1 UNK         0.0600 
    158 H158        4.3535  -18.8697  -45.9017 H         1 UNK         0.0600 
    159 H159        3.0972  -17.6944  -43.9579 H         1 UNK         0.3000 
    160 H160        2.7836  -16.5516  -41.4928 H         1 UNK         0.0600 
    161 H161        5.6538  -16.9023  -40.4502 H         1 UNK         0.0600 
    162 H162        4.1925  -17.3080  -39.5560 H         1 UNK         0.0600 
    163 H163        4.5319  -15.6379  -39.9530 H         1 UNK         0.0600 
    164 H164        4.8719  -16.4267  -43.4418 H         1 UNK         0.3000 
    165 H165        4.7983  -12.8523  -43.8306 H         1 UNK         0.0600 
    166 H166        6.9421  -13.9298  -43.1087 H         1 UNK         0.0600 
    167 H167        6.6573  -15.2595  -44.2253 H         1 UNK         0.0600 
    168 H168        6.8988  -13.6260  -44.8374 H         1 UNK         0.0600 
    169 H169        4.7735  -15.0132  -45.7673 H         1 UNK         0.3000 
    170 H170        3.0926  -14.3633  -47.6549 H         1 UNK         0.0600 
    171 H171        1.8605  -16.4375  -45.7541 H         1 UNK         0.0600 
    172 H172        3.3813  -16.5828  -46.6310 H         1 UNK         0.0600 
    173 H173        1.8628  -16.5978  -47.5079 H         1 UNK         0.0600 
    174 H174        0.4381  -14.3324  -46.2718 H         1 UNK         0.3000 
    175 H175       -0.8618  -12.0453  -48.7159 H         1 UNK         0.0600 
    176 H176       -1.4084  -14.3530  -49.4418 H         1 UNK         0.0600 
    177 H177       -1.6425  -14.8508  -47.7691 H         1 UNK         0.0600 
    178 H178       -2.7284  -13.6714  -48.5026 H         1 UNK         0.0600 
    179 H179       -1.0897  -13.0922  -45.9112 H         1 UNK         0.3000 
    180 H180       -1.8470   -9.9254  -44.6533 H         1 UNK         0.0600 
    181 H181       -4.0814  -11.9599  -45.1714 H         1 UNK         0.0600 
    182 H182       -4.1300  -10.2522  -45.5919 H         1 UNK         0.0600 
    183 H183       -4.0767  -10.7325  -43.9039 H         1 UNK         0.0600 
    184 H184       -2.2287  -12.6833  -43.7478 H         1 UNK         0.3000 
    185 H185        1.0191  -13.2604  -42.7464 H         1 UNK         0.0600 
    186 H186        0.5729  -11.6867  -40.8589 H         1 UNK         0.0600 
    187 H187       -1.0477  -12.3514  -40.6828 H         1 UNK         0.0600 
    188 H188        0.3668  -13.3602  -40.3723 H         1 UNK         0.0600 
    189 H189       -1.1030  -14.6703  -41.7572 H         1 UNK         0.3000 
    190 H190       -0.1776  -21.7759  -45.1482 H         1 UNK         0.3000 
    191 H191       -2.7157  -20.9291  -46.1068 H         1 UNK         0.0600 
    192 H192       -1.3986  -19.8607  -44.2230 H         1 UNK         0.0600 
    193 H193       -3.0741  -20.1856  -43.7997 H         1 UNK         0.0600 
    194 H194       -1.7972  -21.2294  -43.1963 H         1 UNK         0.0600 
    195 H195       -1.7774  -23.6848  -43.9741 H         1 UNK         0.3000 
    196 H196       -4.3720  -24.7598  -43.6162 H         1 UNK         0.0600 
    197 H197       -3.1384  -26.8013  -42.8797 H         1 UNK         0.0600 
    198 H198       -2.4446  -25.3485  -42.1770 H         1 UNK         0.0600 
    199 H199       -1.6408  -26.1455  -43.5281 H         1 UNK         0.0600 
    200 H200       -1.9603  -25.3214  -46.1875 H         1 UNK         0.3000 
    201 H201       -3.4580  -27.3136  -47.6202 H         1 UNK         0.0600 
    202 H202       -1.8122  -26.8369  -49.4208 H         1 UNK         0.0600 
    203 H203       -0.9976  -27.0010  -47.8736 H         1 UNK         0.0600 
    204 H204       -1.2581  -25.4023  -48.5703 H         1 UNK         0.0600 
    205 H205       -3.9499  -23.9594  -47.2439 H         1 UNK         0.3000 
    206 H206       -5.3185  -22.4358  -48.0266 H         1 UNK         0.0600 
    207 H207       -7.0162  -24.2442  -47.5836 H         1 UNK         0.0600 
    208 H208       -7.5206  -23.1117  -48.8235 H         1 UNK         0.0600 
    209 H209       -6.9404  -24.7083  -49.2833 H         1 UNK         0.0600 
    210 H210       -3.0552  -22.5466  -49.4345 H         1 UNK         0.3000 
    211 H211       -3.0609  -22.8618  -52.1684 H         1 UNK         0.0600 
    212 H212       -1.1341  -21.2028  -52.1025 H         1 UNK         0.0600 
    213 H213       -1.0312  -22.4598  -50.8787 H         1 UNK         0.0600 
    214 H214       -1.5559  -20.8364  -50.4375 H         1 UNK         0.0600 
    215 H215       -4.2362  -20.0078  -50.4067 H         1 UNK         0.3000 
    216 H216       -4.6273  -18.3261  -52.6987 H         1 UNK         0.0600 
    217 H217       -4.3644  -17.4172  -50.4114 H         1 UNK         0.0600 
    218 H218       -5.8505  -18.2127  -49.8907 H         1 UNK         0.0600 
    219 H219       -5.9085  -16.9198  -51.0836 H         1 UNK         0.0600 
    220 H220       -6.6837  -20.7403  -51.0911 H         1 UNK         0.3000 
    221 H221       -9.1025  -20.0107  -52.5742 H         1 UNK         0.0600 
    222 H222       -8.5174  -22.4566  -50.8270 H         1 UNK         0.0600 
    223 H223       -9.2058  -20.9417  -50.2385 H         1 UNK         0.0600 
    224 H224      -10.0921  -21.9256  -51.3942 H         1 UNK         0.0600 
    225 H225       -6.5214  -22.4557  -52.6967 H         1 UNK         0.3000 
    226 H226       -7.5182  -23.9601  -54.9248 H         1 UNK         0.0600 
    227 H227       -5.8519  -24.8163  -53.2607 H         1 UNK         0.0600 
    228 H228       -5.2253  -24.9262  -54.8992 H         1 UNK         0.0600 
    229 H229       -4.6686  -23.6425  -53.8339 H         1 UNK         0.0600 
    230 H230       -6.0935  -20.8613  -54.7549 H         1 UNK         0.3000 
    231 H231       -5.4230  -19.3042  -56.1542 H         1 UNK         0.0600 
    232 H232       -6.5284  -20.9745  -58.4720 H         1 UNK         0.0600 
    233 H233       -6.1707  -19.2545  -58.4904 H         1 UNK         0.0600 
    234 H234       -7.4754  -19.8620  -57.4845 H         1 UNK         0.0600 
    235 H235       -3.5927  -21.2323  -55.2655 H         1 UNK         0.3000 
    236 H236       -1.7111  -21.9291  -57.3827 H         1 UNK         0.0600 
    237 H237       -1.4534  -21.9710  -54.3286 H         1 UNK         0.0600 
    238 H238       -1.9841  -23.3217  -55.3286 H         1 UNK         0.0600 
    239 H239       -0.3379  -22.7204  -55.4630 H         1 UNK         0.0600 
    240 H240       -2.3875  -19.1136  -55.5465 H         1 UNK         0.3000 
    241 H241        0.1877  -17.9111  -55.4250 H         1 UNK         0.0600 
    242 H242       -1.7592  -18.3084  -58.2781 H         1 UNK         0.3800 
    243 H243       -0.9940  -17.0377  -59.1968 H         1 UNK         0.3800 
    244 H244       -1.0223  -15.8620  -54.7455 H         1 UNK         0.0800 
    245 H245       -2.5340  -16.5255  -55.3057 H         1 UNK         0.0800 
    246 H246        0.3530  -16.7341  -52.8234 H         1 UNK         0.0800 
    247 H247       -0.8521  -15.7671  -52.0012 H         1 UNK         0.0800 
@<TRIPOS>BOND
     1    1    2 1    
     2    1  127 1    
     3    1  128 1    
     4    1  129 1    
     5    2    3 2    
     6    2    4 am   BACKBONE|DICT|INTERRES
     7    4    5 1    
     8    4  130 1    
     9    5    6 1    
    10    5   65 1    
    11    5  131 1    
    12    6    7 1    
    13    6  132 1    
    14    6  133 1    
    15    7    8 1    
    16    8    9 1    
    17    8  134 1    
    18    8  135 1    
    19    9   10 ar   
    20    9   14 ar   
    21   10   11 ar   
    22   10  136 1    
    23   11   12 ar   
    24   11  126 1    
    25   12   13 ar   
    26   12  137 1    
    27   13   14 ar   
    28   13   15 1    
    29   14  138 1    
    30   15   16 1    
    31   15  139 1    
    32   15  140 1    
    33   16   17 1    
    34   17   18 1    
    35   17  141 1    
    36   17  142 1    
    37   18   19 1    
    38   18   67 1    
    39   18  143 1    
    40   19   20 am   BACKBONE|DICT|INTERRES
    41   19  144 1    
    42   20   21 2    
    43   20   22 1    
    44   22   23 1    
    45   22   24 1    
    46   22  145 1    
    47   23  146 1    
    48   23  147 1    
    49   23  148 1    
    50   24   25 am   BACKBONE|DICT|INTERRES
    51   24  149 1    
    52   25   26 2    
    53   25   27 1    
    54   27   28 1    
    55   27   29 1    
    56   27  150 1    
    57   28  151 1    
    58   28  152 1    
    59   28  153 1    
    60   29   30 am   BACKBONE|DICT|INTERRES
    61   29  154 1    
    62   30   31 2    
    63   30   32 1    
    64   32   33 1    
    65   32   34 1    
    66   32  155 1    
    67   33  156 1    
    68   33  157 1    
    69   33  158 1    
    70   34   35 am   BACKBONE|DICT|INTERRES
    71   34  159 1    
    72   35   36 2    
    73   35   37 1    
    74   37   38 1    
    75   37   39 1    
    76   37  160 1    
    77   38  161 1    
    78   38  162 1    
    79   38  163 1    
    80   39   40 am   BACKBONE|DICT|INTERRES
    81   39  164 1    
    82   40   41 2    
    83   40   42 1    
    84   42   43 1    
    85   42   44 1    
    86   42  165 1    
    87   43  166 1    
    88   43  167 1    
    89   43  168 1    
    90   44   45 am   BACKBONE|DICT|INTERRES
    91   44  169 1    
    92   45   46 2    
    93   45   47 1    
    94   47   48 1    
    95   47   49 1    
    96   47  170 1    
    97   48  171 1    
    98   48  172 1    
    99   48  173 1    
   100   49   50 am   BACKBONE|DICT|INTERRES
   101   49  174 1    
   102   50   51 2    
   103   50   52 1    
   104   52   53 1    
   105   52   54 1    
   106   52  175 1    
   107   53  176 1    
   108   53  177 1    
   109   53  178 1    
   110   54   55 am   BACKBONE|DICT|INTERRES
   111   54  179 1    
   112   55   56 2    
   113   55   57 1    
   114   57   58 1    
   115   57   59 1    
   116   57  180 1    
   117   58  181 1    
   118   58  182 1    
   119   58  183 1    
   120   59   60 am   BACKBONE|DICT|INTERRES
   121   59  184 1    
   122   60   61 2    
   123   60   62 1    
   124   62   63 1    
   125   62   64 1    
   126   62  185 1    
   127   63  186 1    
   128   63  187 1    
   129   63  188 1    
   130   64   65 am   BACKBONE|DICT|INTERRES
   131   64  189 1    
   132   65   66 2    
   133   67   68 2    
   134   67   69 am   BACKBONE|DICT|INTERRES
   135   69   70 1    
   136   69  190 1    
   137   70   71 1    
   138   70   72 1    
   139   70  191 1    
   140   71  192 1    
   141   71  193 1    
   142   71  194 1    
   143   72   73 2    
   144   72   74 am   BACKBONE|DICT|INTERRES
   145   74   75 1    
   146   74  195 1    
   147   75   76 1    
   148   75   77 1    
   149   75  196 1    
   150   76  197 1    
   151   76  198 1    
   152   76  199 1    
   153   77   78 2    
   154   77   79 am   BACKBONE|DICT|INTERRES
   155   79   80 1    
   156   79  200 1    
   157   80   81 1    
   158   80   82 1    
   159   80  201 1    
   160   81  202 1    
   161   81  203 1    
   162   81  204 1    
   163   82   83 2    
   164   82   84 am   BACKBONE|DICT|INTERRES
   165   84   85 1    
   166   84  205 1    
   167   85   86 1    
   168   85   87 1    
   169   85  206 1    
   170   86  207 1    
   171   86  208 1    
   172   86  209 1    
   173   87   88 2    
   174   87   89 am   BACKBONE|DICT|INTERRES
   175   89   90 1    
   176   89  210 1    
   177   90   91 1    
   178   90   92 1    
   179   90  211 1    
   180   91  212 1    
   181   91  213 1    
   182   91  214 1    
   183   92   93 2    
   184   92   94 am   BACKBONE|DICT|INTERRES
   185   94   95 1    
   186   94  215 1    
   187   95   96 1    
   188   95   97 1    
   189   95  216 1    
   190   96  217 1    
   191   96  218 1    
   192   96  219 1    
   193   97   98 2    
   194   97   99 am   BACKBONE|DICT|INTERRES
   195   99  100 1    
   196   99  220 1    
   197  100  101 1    
   198  100  102 1    
   199  100  221 1    
   200  101  222 1    
   201  101  223 1    
   202  101  224 1    
   203  102  103 2    
   204  102  104 am   BACKBONE|DICT|INTERRES
   205  104  105 1    
   206  104  225 1    
   207  105  106 1    
   208  105  107 1    
   209  105  226 1    
   210  106  227 1    
   211  106  228 1    
   212  106  229 1    
   213  107  108 2    
   214  107  109 am   BACKBONE|DICT|INTERRES
   215  109  110 1    
   216  109  230 1    
   217  110  111 1    
   218  110  112 1    
   219  110  231 1    
   220  111  232 1    
   221  111  233 1    
   222  111  234 1    
   223  112  113 2    
   224  112  114 am   BACKBONE|DICT|INTERRES
   225  114  115 1    
   226  114  235 1    
   227  115  116 1    
   228  115  117 1    
   229  115  236 1    
   230  116  237 1    
   231  116  238 1    
   232  116  239 1    
   233  117  118 2    
   234  117  119 am   BACKBONE|DICT|INTERRES
   235  119  120 1    
   236  119  240 1    
   237  120  121 1    
   238  120  124 1    
   239  120  241 1    
   240  121  122 am   BACKBONE|DICT|INTERRES
   241  121  123 2    
   242  122  242 1    
   243  122  243 1    
   244  124  125 1    
   245  124  244 1    
   246  124  245 1    
   247  125  126 1    
   248  126  246 1    
   249  126  247 1    
@<TRIPOS>SUBSTRUCTURE
     1 UNK         1 GROUP             0       ****    0 ROOT    
