@<TRIPOS>MOLECULE
3R540
247   249    1
SMALL
USER_CHARGES


@<TRIPOS>ATOM
      1 CA          2.6265  -17.5852  -48.1789 C.3       0 UNK        -0.1800 
      2 C           1.7044  -16.5217  -47.6007 C.2       0 UNK         0.5000 
      3 O           1.8646  -16.1338  -46.4468 O.2       0 UNK        -0.5000 
      4 N           0.7450  -16.0405  -48.4025 N.am      1 UNK        -0.5000 
      5 CA         -0.2496  -15.0300  -48.0146 C.3       1 UNK         0.1400 
      6 C6         -1.3505  -14.8697  -49.0916 C.3       23 UNK        -0.0398 
      7 S7         -2.4368  -16.3316  -49.1852 S.3       23 UNK        -0.2404 
      8 C8         -3.9602  -15.6317  -48.4780 C.3       23 UNK        -0.0205 
      9 C9         -5.0164  -16.6999  -48.2586 C.ar      23 UNK        -0.0193 
     10 C10        -5.9984  -16.9402  -49.2239 C.ar      23 UNK        -0.1150 
     11 C11        -6.9741  -17.9199  -49.0140 C.ar      23 UNK        -0.0193 
     12 C12        -6.9599  -18.6623  -47.8297 C.ar      23 UNK        -0.1150 
     13 C13        -5.9749  -18.4373  -46.8648 C.ar      23 UNK        -0.0193 
     14 C14        -5.0149  -17.4450  -47.0781 C.ar      23 UNK        -0.1150 
     15 C15        -5.9232  -19.2896  -45.6076 C.3       23 UNK        -0.0205 
     16 S16        -5.1275  -20.8933  -45.9331 S.3       23 UNK        -0.2404 
     17 C17        -3.4923  -20.3565  -46.5554 C.3       23 UNK        -0.0398 
     18 CA         -2.3755  -21.4085  -46.3923 C.3       11 UNK         0.1400 
     19 N          -2.2162  -21.8388  -45.0028 N.am      11 UNK        -0.5000 
     20 C          -1.2584  -22.6423  -44.5265 C.2       10 UNK         0.5000 
     21 O          -0.4962  -23.2894  -45.2496 O.2       10 UNK        -0.5000 
     22 CA         -1.1244  -22.7166  -42.9898 C.3       10 UNK         0.1400 
     23 CB          0.2178  -23.3347  -42.5589 C.3       10 UNK        -0.1800 
     24 N          -1.2623  -21.4001  -42.3553 N.am      10 UNK        -0.5000 
     25 C          -2.4195  -20.7902  -42.0620 C.2       9 UNK         0.5000 
     26 O          -3.5220  -21.2837  -42.2988 O.2       9 UNK        -0.5000 
     27 CA         -2.3326  -19.3780  -41.4559 C.3       9 UNK         0.1400 
     28 CB         -1.8498  -19.4255  -39.9979 C.3       9 UNK        -0.1800 
     29 N          -1.4587  -18.5082  -42.2421 N.am      9 UNK        -0.5000 
     30 C          -1.7882  -17.9702  -43.4257 C.2       8 UNK         0.5000 
     31 O          -2.9076  -18.0652  -43.9257 O.2       8 UNK        -0.5000 
     32 CA         -0.6870  -17.2084  -44.1896 C.3       8 UNK         0.1400 
     33 CB         -0.7152  -15.7109  -43.8511 C.3       8 UNK        -0.1800 
     34 N           0.6475  -17.7396  -43.9225 N.am      8 UNK        -0.5000 
     35 C           1.0864  -18.9311  -44.3480 C.2       7 UNK         0.5000 
     36 O           0.4394  -19.6770  -45.0817 O.2       7 UNK        -0.5000 
     37 CA          2.4607  -19.3839  -43.8248 C.3       7 UNK         0.1400 
     38 CB          3.5923  -18.8845  -44.7354 C.3       7 UNK        -0.1800 
     39 N           2.6994  -18.9413  -42.4501 N.am      7 UNK        -0.5000 
     40 C           2.0968  -19.4695  -41.3755 C.2       6 UNK         0.5000 
     41 O           1.2922  -20.3979  -41.4361 O.2       6 UNK        -0.5000 
     42 CA          2.4154  -18.8327  -40.0095 C.3       6 UNK         0.1400 
     43 CB          3.6936  -19.4424  -39.4155 C.3       6 UNK        -0.1800 
     44 N           2.5627  -17.3790  -40.0844 N.am      6 UNK        -0.5000 
     45 C           1.5631  -16.5281  -40.3576 C.2       5 UNK         0.5000 
     46 O           0.3945  -16.8782  -40.5149 O.2       5 UNK        -0.5000 
     47 CA          1.9464  -15.0455  -40.5433 C.3       5 UNK         0.1400 
     48 CB          1.8968  -14.3031  -39.1998 C.3       5 UNK        -0.1800 
     49 N           3.2671  -14.8550  -41.1566 N.am      5 UNK        -0.5000 
     50 C           3.6146  -15.3230  -42.3626 C.2       4 UNK         0.5000 
     51 O           2.8426  -15.9518  -43.0872 O.2       4 UNK        -0.5000 
     52 CA          5.0746  -15.0951  -42.7998 C.3       4 UNK         0.1400 
     53 CB          6.0294  -15.9042  -41.9053 C.3       4 UNK        -0.1800 
     54 N           5.2982  -15.5126  -44.1869 N.am      4 UNK        -0.5000 
     55 C           4.9718  -14.8605  -45.3112 C.2       3 UNK         0.5000 
     56 O           5.1368  -15.3777  -46.4183 O.2       3 UNK        -0.5000 
     57 CA          4.4474  -13.4127  -45.2427 C.3       3 UNK         0.1400 
     58 CB          5.6341  -12.4281  -45.1590 C.3       3 UNK        -0.1800 
     59 N           3.6574  -13.1674  -46.4453 N.am      3 UNK        -0.5000 
     60 C           2.9693  -12.0625  -46.7519 C.2       2 UNK         0.5000 
     61 O           2.8882  -11.0727  -46.0237 O.2       2 UNK        -0.5000 
     62 CA          2.2353  -12.0746  -48.1051 C.3       2 UNK         0.1400 
     63 CB          3.2194  -11.8468  -49.2636 C.3       2 UNK        -0.1800 
     64 N           1.5018  -13.3212  -48.3285 N.am      2 UNK        -0.5000 
     65 C           0.3744  -13.6562  -47.6843 C.2       1 UNK         0.5000 
     66 O          -0.1838  -12.9265  -46.8639 O.2       1 UNK        -0.5000 
     67 C          -2.5439  -22.5493  -47.4096 C.2       11 UNK         0.5000 
     68 O          -2.0589  -22.4211  -48.5321 O.2       11 UNK        -0.5000 
     69 N          -3.1952  -23.6473  -47.0090 N.am      12 UNK        -0.5000 
     70 CA         -3.4175  -24.8210  -47.8541 C.3       12 UNK         0.1400 
     71 CB         -4.3973  -25.7677  -47.1455 C.3       12 UNK        -0.1800 
     72 C          -2.1193  -25.5646  -48.2256 C.2       12 UNK         0.5000 
     73 O          -2.0777  -26.2120  -49.2721 O.2       12 UNK        -0.5000 
     74 N          -1.0937  -25.4554  -47.3711 N.am      13 UNK        -0.5000 
     75 CA          0.2019  -26.1038  -47.5427 C.3       13 UNK         0.1400 
     76 CB          0.5959  -26.7922  -46.2249 C.3       13 UNK        -0.1800 
     77 C           1.2762  -25.0935  -47.9685 C.2       13 UNK         0.5000 
     78 O           1.9674  -25.3253  -48.9604 O.2       13 UNK        -0.5000 
     79 N           1.4160  -24.0045  -47.2019 N.am      14 UNK        -0.5000 
     80 CA          2.5265  -23.0617  -47.3223 C.3       14 UNK         0.1400 
     81 CB          2.7465  -22.3795  -45.9671 C.3       14 UNK        -0.1800 
     82 C           2.3167  -22.0202  -48.4321 C.2       14 UNK         0.5000 
     83 O           3.2653  -21.7125  -49.1543 O.2       14 UNK        -0.5000 
     84 N           1.0866  -21.5041  -48.5571 N.am      15 UNK        -0.5000 
     85 CA          0.7135  -20.5288  -49.5874 C.3       15 UNK         0.1400 
     86 CB         -0.3087  -19.5344  -49.0083 C.3       15 UNK        -0.1800 
     87 C           0.1505  -21.2000  -50.8533 C.2       15 UNK         0.5000 
     88 O          -0.0686  -20.5076  -51.8463 O.2       15 UNK        -0.5000 
     89 N          -0.1164  -22.5139  -50.7839 N.am      16 UNK        -0.5000 
     90 CA         -0.7679  -23.3484  -51.7993 C.3       16 UNK         0.1400 
     91 CB          0.1688  -23.5515  -53.0080 C.3       16 UNK        -0.1800 
     92 C          -2.1628  -22.8171  -52.1980 C.2       16 UNK         0.5000 
     93 O          -2.5142  -22.8340  -53.3791 O.2       16 UNK        -0.5000 
     94 N          -2.9086  -22.3107  -51.2016 N.am      17 UNK        -0.5000 
     95 CA         -4.2031  -21.6300  -51.3163 C.3       17 UNK         0.1400 
     96 CB         -5.3023  -22.6362  -51.7031 C.3       17 UNK        -0.1800 
     97 C          -4.1146  -20.4066  -52.2529 C.2       17 UNK         0.5000 
     98 O          -4.7927  -20.3432  -53.2821 O.2       17 UNK        -0.5000 
     99 N          -3.1910  -19.4966  -51.9061 N.am      18 UNK        -0.5000 
    100 CA        -2.8044  -18.2885  -52.6489 C.3       18 UNK         0.1400 
    101 CB        -3.9710  -17.2798  -52.6800 C.3       18 UNK        -0.1800 
    102 C         -2.2377  -18.5802  -54.0579 C.2       18 UNK         0.5000 
    103 O         -2.2794  -17.7098  -54.9285 O.2       18 UNK        -0.5000 
    104 N         -1.7396  -19.8104  -54.2553 N.am      19 UNK        -0.5000 
    105 CA        -1.2410  -20.4065  -55.4980 C.3       19 UNK         0.1400 
    106 CB         0.0765  -19.7295  -55.9267 C.3       19 UNK        -0.1800 
    107 C         -2.2871  -20.4544  -56.6350 C.2       19 UNK         0.5000 
    108 O         -1.9070  -20.5238  -57.8056 O.2       19 UNK        -0.5000 
    109 N         -3.5804  -20.4087  -56.2852 N.am      20 UNK        -0.5000 
    110 CA        -4.6870  -20.2683  -57.2336 C.3       20 UNK         0.1400 
    111 CB        -4.9235  -18.7703  -57.5105 C.3       20 UNK        -0.1800 
    112 C         -5.9688  -20.9719  -56.7544 C.2       20 UNK         0.5000 
    113 O         -7.0493  -20.6581  -57.2584 O.2       20 UNK        -0.5000 
    114 N         -5.8498  -21.8813  -55.7728 N.am      21 UNK        -0.5000 
    115 CA        -6.9476  -22.6142  -55.1212 C.3       21 UNK         0.1400 
    116 CB        -7.5663  -23.6354  -56.0988 C.3       21 UNK        -0.1800 
    117 C         -8.0068  -21.6863  -54.4791 C.2       21 UNK         0.5000 
    118 O         -9.1861  -22.0402  -54.4263 O.2       21 UNK        -0.5000 
    119 N         -7.5650  -20.4984  -54.0419 N.am      22 UNK        -0.5000 
    120 CA        -8.3856  -19.3641  -53.5851 C.3       22 UNK         0.1400 
    121 C         -9.3609  -18.7852  -54.6601 C.2       22 UNK         0.5000 
    122 N         -9.1712  -19.0496  -55.9483 N.am      22 UNK        -0.7600 
    123 O        -10.2880  -18.0494  -54.3319 O.2       22 UNK        -0.5000 
    124 C124       -9.0679  -19.6322  -52.2147 C.3       23 UNK        -0.0398 
    125 S125       -7.8372  -19.7813  -50.8752 S.3       23 UNK        -0.2404 
    126 C126       -8.0496  -18.1691  -50.0587 C.3       23 UNK        -0.0205 
    127 H127        3.6654  -17.3450  -47.9524 H         1 UNK         0.0600 
    128 H128        2.5246  -17.6635  -49.2612 H         1 UNK         0.0600 
    129 H129        2.3979  -18.5565  -47.7415 H         1 UNK         0.0600 
    130 H130        0.6545  -16.4017  -49.3407 H         1 UNK         0.3000 
    131 H131       -0.7233  -15.3785  -47.0939 H         1 UNK         0.0600 
    132 H132       -0.9061  -14.7025  -50.0742 H         1 UNK         0.0800 
    133 H133       -1.9661  -13.9898  -48.8938 H         1 UNK         0.0800 
    134 H134       -3.7310  -15.1454  -47.5282 H         1 UNK         0.0800 
    135 H135       -4.3430  -14.8535  -49.1403 H         1 UNK         0.0800 
    136 H136       -6.0049  -16.3607  -50.1360 H         1 UNK         0.1150 
    137 H137       -7.7032  -19.4308  -47.6696 H         1 UNK         0.1150 
    138 H138       -4.2513  -17.2662  -46.3334 H         1 UNK         0.1150 
    139 H139       -5.3862  -18.7722  -44.8111 H         1 UNK         0.0800 
    140 H140       -6.9341  -19.4608  -45.2351 H         1 UNK         0.0800 
    141 H141       -3.1954  -19.4543  -46.0244 H         1 UNK         0.0800 
    142 H142       -3.5950  -20.0556  -47.6001 H         1 UNK         0.0800 
    143 H143       -1.4364  -20.9169  -46.6508 H         1 UNK         0.0600 
    144 H144       -2.8312  -21.3958  -44.3310 H         1 UNK         0.3000 
    145 H145       -1.9222  -23.3688  -42.6295 H         1 UNK         0.0600 
    146 H146        0.3021  -23.3788  -41.4730 H         1 UNK         0.0600 
    147 H147        0.3211  -24.3536  -42.9340 H         1 UNK         0.0600 
    148 H148        1.0628  -22.7575  -42.9368 H         1 UNK         0.0600 
    149 H149       -0.3905  -20.9278  -42.1289 H         1 UNK         0.3000 
    150 H150       -3.3375  -18.9503  -41.4586 H         1 UNK         0.0600 
    151 H151       -2.5064  -20.0497  -39.3907 H         1 UNK         0.0600 
    152 H152       -1.8450  -18.4300  -39.5535 H         1 UNK         0.0600 
    153 H153       -0.8423  -19.8318  -39.9137 H         1 UNK         0.0600 
    154 H154       -0.5418  -18.3130  -41.8605 H         1 UNK         0.3000 
    155 H155       -0.8858  -17.3184  -45.2581 H         1 UNK         0.0600 
    156 H156       -1.6830  -15.2736  -44.0993 H         1 UNK         0.0600 
    157 H157        0.0430  -15.1659  -44.4147 H         1 UNK         0.0600 
    158 H158       -0.5356  -15.5350  -42.7905 H         1 UNK         0.0600 
    159 H159        1.2908  -17.1423  -43.4128 H         1 UNK         0.3000 
    160 H160        2.4781  -20.4749  -43.8292 H         1 UNK         0.0600 
    161 H161        3.5904  -17.7985  -44.8256 H         1 UNK         0.0600 
    162 H162        3.4859  -19.2894  -45.7412 H         1 UNK         0.0600 
    163 H163        4.5689  -19.1929  -44.3625 H         1 UNK         0.0600 
    164 H164        3.2818  -18.1254  -42.3340 H         1 UNK         0.3000 
    165 H165        1.5854  -19.0568  -39.3361 H         1 UNK         0.0600 
    166 H166        3.8871  -19.0550  -38.4150 H         1 UNK         0.0600 
    167 H167        3.6056  -20.5265  -39.3315 H         1 UNK         0.0600 
    168 H168        4.5675  -19.2307  -40.0330 H         1 UNK         0.0600 
    169 H169        3.4920  -17.0059  -39.9607 H         1 UNK         0.3000 
    170 H170        1.2054  -14.5970  -41.2081 H         1 UNK         0.0600 
    171 H171        0.9179  -14.4108  -38.7306 H         1 UNK         0.0600 
    172 H172        2.6404  -14.6859  -38.4997 H         1 UNK         0.0600 
    173 H173        2.0763  -13.2360  -39.3316 H         1 UNK         0.0600 
    174 H174        3.9477  -14.3497  -40.6073 H         1 UNK         0.3000 
    175 H175        5.3095  -14.0364  -42.6853 H         1 UNK         0.0600 
    176 H176        5.9585  -15.5958  -40.8617 H         1 UNK         0.0600 
    177 H177        7.0668  -15.7610  -42.2087 H         1 UNK         0.0600 
    178 H178        5.8149  -16.9731  -41.9476 H         1 UNK         0.0600 
    179 H179        5.6420  -16.4543  -44.2914 H         1 UNK         0.3000 
    180 H180        3.7905  -13.2883  -44.3818 H         1 UNK         0.0600 
    181 H181        6.2316  -12.4471  -46.0714 H         1 UNK         0.0600 
    182 H182        6.3004  -12.6738  -44.3320 H         1 UNK         0.0600 
    183 H183        5.2997  -11.4034  -45.0003 H         1 UNK         0.0600 
    184 H184        3.6475  -13.9545  -47.0823 H         1 UNK         0.3000 
    185 H185        1.5203  -11.2488  -48.1050 H         1 UNK         0.0600 
    186 H186        3.7735  -10.9172  -49.1266 H         1 UNK         0.0600 
    187 H187        3.9482  -12.6545  -49.3417 H         1 UNK         0.0600 
    188 H188        2.6955  -11.7741  -50.2168 H         1 UNK         0.0600 
    189 H189        1.8983  -13.9790  -48.9832 H         1 UNK         0.3000 
    190 H190       -3.5681  -23.6737  -46.0711 H         1 UNK         0.3000 
    191 H191       -3.8797  -24.4837  -48.7846 H         1 UNK         0.0600 
    192 H192       -5.3489  -25.2742  -46.9472 H         1 UNK         0.0600 
    193 H193       -4.6087  -26.6435  -47.7605 H         1 UNK         0.0600 
    194 H194       -3.9972  -26.1225  -46.1948 H         1 UNK         0.0600 
    195 H195       -1.1949  -24.8515  -46.5644 H         1 UNK         0.3000 
    196 H196        0.1469  -26.8748  -48.3143 H         1 UNK         0.0600 
    197 H197        1.5732  -27.2690  -46.3095 H         1 UNK         0.0600 
    198 H198       -0.1220  -27.5684  -45.9597 H         1 UNK         0.0600 
    199 H199        0.6442  -26.0864  -45.3944 H         1 UNK         0.0600 
    200 H200        0.7789  -23.8538  -46.4222 H         1 UNK         0.3000 
    201 H201        3.4350  -23.6197  -47.5605 H         1 UNK         0.0600 
    202 H202        2.9643  -23.1095  -45.1873 H         1 UNK         0.0600 
    203 H203        1.8632  -21.8204  -45.6615 H         1 UNK         0.0600 
    204 H204        3.5871  -21.6868  -46.0093 H         1 UNK         0.0600 
    205 H205        0.3568  -21.8186  -47.9341 H         1 UNK         0.3000 
    206 H206        1.5944  -19.9584  -49.8879 H         1 UNK         0.0600 
    207 H207        0.0034  -19.1536  -48.0358 H         1 UNK         0.0600 
    208 H208       -0.4244  -18.6767  -49.6713 H         1 UNK         0.0600 
    209 H209       -1.2954  -19.9784  -48.8909 H         1 UNK         0.0600 
    210 H210        0.0639  -22.9672  -49.9001 H         1 UNK         0.3000 
    211 H211       -0.9343  -24.3233  -51.3386 H         1 UNK         0.0600 
    212 H212        0.3614  -22.6161  -53.5338 H         1 UNK         0.0600 
    213 H213       -0.2624  -24.2496  -53.7264 H         1 UNK         0.0600 
    214 H214        1.1287  -23.9620  -52.6947 H         1 UNK         0.0600 
    215 H215       -2.5173  -22.3447  -50.2609 H         1 UNK         0.3000 
    216 H216       -4.4491  -21.2413  -50.3267 H         1 UNK         0.0600 
    217 H217       -6.2637  -22.1422  -51.8410 H         1 UNK         0.0600 
    218 H218       -5.4327  -23.3867  -50.9236 H         1 UNK         0.0600 
    219 H219       -5.0586  -23.1594  -52.6256 H         1 UNK         0.0600 
    220 H220       -2.6470  -19.6757  -51.0751 H         1 UNK         0.3000 
    221 H221       -1.9884  -17.8346  -52.0848 H         1 UNK         0.0600 
    222 H222       -4.8048  -17.6403  -53.2831 H         1 UNK         0.0600 
    223 H223       -4.3427  -17.0843  -51.6755 H         1 UNK         0.0600 
    224 H224       -3.6533  -16.3237  -53.0970 H         1 UNK         0.0600 
    225 H225       -1.7145  -20.4247  -53.4513 H         1 UNK         0.3000 
    226 H226       -1.0132  -21.4462  -55.2619 H         1 UNK         0.0600 
    227 H227        0.7985  -19.7243  -55.1098 H         1 UNK         0.0600 
    228 H228        0.5378  -20.2588  -56.7611 H         1 UNK         0.0600 
    229 H229       -0.0830  -18.6977  -56.2410 H         1 UNK         0.0600 
    230 H230       -3.8161  -20.3409  -55.3013 H         1 UNK         0.3000 
    231 H231       -4.4230  -20.7544  -58.1748 H         1 UNK         0.0600 
    232 H232       -5.2215  -18.2414  -56.6041 H         1 UNK         0.0600 
    233 H233       -5.7069  -18.6207  -58.2544 H         1 UNK         0.0600 
    234 H234       -4.0225  -18.2913  -57.8941 H         1 UNK         0.0600 
    235 H235       -4.9268  -22.0603  -55.4022 H         1 UNK         0.3000 
    236 H236       -6.5054  -23.1824  -54.3058 H         1 UNK         0.0600 
    237 H237       -6.8011  -24.2790  -56.5327 H         1 UNK         0.0600 
    238 H238       -8.2807  -24.2828  -55.5890 H         1 UNK         0.0600 
    239 H239       -8.0956  -23.1452  -56.9164 H         1 UNK         0.0600 
    240 H240       -6.5617  -20.3374  -54.0429 H         1 UNK         0.3000 
    241 H241       -7.6749  -18.5512  -53.4310 H         1 UNK         0.0600 
    242 H242       -9.8031  -18.6571  -56.6278 H         1 UNK         0.3800 
    243 H243       -8.4146  -19.6498  -56.2618 H         1 UNK         0.3800 
    244 H244       -9.7644  -18.8340  -51.9543 H         1 UNK         0.0800 
    245 H245       -9.6650  -20.5438  -52.2500 H         1 UNK         0.0800 
    246 H246       -8.0359  -17.3801  -50.8124 H         1 UNK         0.0800 
    247 H247       -9.0313  -18.1294  -49.5843 H         1 UNK         0.0800 
@<TRIPOS>BOND
     1    1    2 1    
     2    1  127 1    
     3    1  128 1    
     4    1  129 1    
     5    2    3 2    
     6    2    4 am   BACKBONE|DICT|INTERRES
     7    4    5 1    
     8    4  130 1    
     9    5    6 1    
    10    5   65 1    
    11    5  131 1    
    12    6    7 1    
    13    6  132 1    
    14    6  133 1    
    15    7    8 1    
    16    8    9 1    
    17    8  134 1    
    18    8  135 1    
    19    9   10 ar   
    20    9   14 ar   
    21   10   11 ar   
    22   10  136 1    
    23   11   12 ar   
    24   11  126 1    
    25   12   13 ar   
    26   12  137 1    
    27   13   14 ar   
    28   13   15 1    
    29   14  138 1    
    30   15   16 1    
    31   15  139 1    
    32   15  140 1    
    33   16   17 1    
    34   17   18 1    
    35   17  141 1    
    36   17  142 1    
    37   18   19 1    
    38   18   67 1    
    39   18  143 1    
    40   19   20 am   BACKBONE|DICT|INTERRES
    41   19  144 1    
    42   20   21 2    
    43   20   22 1    
    44   22   23 1    
    45   22   24 1    
    46   22  145 1    
    47   23  146 1    
    48   23  147 1    
    49   23  148 1    
    50   24   25 am   BACKBONE|DICT|INTERRES
    51   24  149 1    
    52   25   26 2    
    53   25   27 1    
    54   27   28 1    
    55   27   29 1    
    56   27  150 1    
    57   28  151 1    
    58   28  152 1    
    59   28  153 1    
    60   29   30 am   BACKBONE|DICT|INTERRES
    61   29  154 1    
    62   30   31 2    
    63   30   32 1    
    64   32   33 1    
    65   32   34 1    
    66   32  155 1    
    67   33  156 1    
    68   33  157 1    
    69   33  158 1    
    70   34   35 am   BACKBONE|DICT|INTERRES
    71   34  159 1    
    72   35   36 2    
    73   35   37 1    
    74   37   38 1    
    75   37   39 1    
    76   37  160 1    
    77   38  161 1    
    78   38  162 1    
    79   38  163 1    
    80   39   40 am   BACKBONE|DICT|INTERRES
    81   39  164 1    
    82   40   41 2    
    83   40   42 1    
    84   42   43 1    
    85   42   44 1    
    86   42  165 1    
    87   43  166 1    
    88   43  167 1    
    89   43  168 1    
    90   44   45 am   BACKBONE|DICT|INTERRES
    91   44  169 1    
    92   45   46 2    
    93   45   47 1    
    94   47   48 1    
    95   47   49 1    
    96   47  170 1    
    97   48  171 1    
    98   48  172 1    
    99   48  173 1    
   100   49   50 am   BACKBONE|DICT|INTERRES
   101   49  174 1    
   102   50   51 2    
   103   50   52 1    
   104   52   53 1    
   105   52   54 1    
   106   52  175 1    
   107   53  176 1    
   108   53  177 1    
   109   53  178 1    
   110   54   55 am   BACKBONE|DICT|INTERRES
   111   54  179 1    
   112   55   56 2    
   113   55   57 1    
   114   57   58 1    
   115   57   59 1    
   116   57  180 1    
   117   58  181 1    
   118   58  182 1    
   119   58  183 1    
   120   59   60 am   BACKBONE|DICT|INTERRES
   121   59  184 1    
   122   60   61 2    
   123   60   62 1    
   124   62   63 1    
   125   62   64 1    
   126   62  185 1    
   127   63  186 1    
   128   63  187 1    
   129   63  188 1    
   130   64   65 am   BACKBONE|DICT|INTERRES
   131   64  189 1    
   132   65   66 2    
   133   67   68 2    
   134   67   69 am   BACKBONE|DICT|INTERRES
   135   69   70 1    
   136   69  190 1    
   137   70   71 1    
   138   70   72 1    
   139   70  191 1    
   140   71  192 1    
   141   71  193 1    
   142   71  194 1    
   143   72   73 2    
   144   72   74 am   BACKBONE|DICT|INTERRES
   145   74   75 1    
   146   74  195 1    
   147   75   76 1    
   148   75   77 1    
   149   75  196 1    
   150   76  197 1    
   151   76  198 1    
   152   76  199 1    
   153   77   78 2    
   154   77   79 am   BACKBONE|DICT|INTERRES
   155   79   80 1    
   156   79  200 1    
   157   80   81 1    
   158   80   82 1    
   159   80  201 1    
   160   81  202 1    
   161   81  203 1    
   162   81  204 1    
   163   82   83 2    
   164   82   84 am   BACKBONE|DICT|INTERRES
   165   84   85 1    
   166   84  205 1    
   167   85   86 1    
   168   85   87 1    
   169   85  206 1    
   170   86  207 1    
   171   86  208 1    
   172   86  209 1    
   173   87   88 2    
   174   87   89 am   BACKBONE|DICT|INTERRES
   175   89   90 1    
   176   89  210 1    
   177   90   91 1    
   178   90   92 1    
   179   90  211 1    
   180   91  212 1    
   181   91  213 1    
   182   91  214 1    
   183   92   93 2    
   184   92   94 am   BACKBONE|DICT|INTERRES
   185   94   95 1    
   186   94  215 1    
   187   95   96 1    
   188   95   97 1    
   189   95  216 1    
   190   96  217 1    
   191   96  218 1    
   192   96  219 1    
   193   97   98 2    
   194   97   99 am   BACKBONE|DICT|INTERRES
   195   99  100 1    
   196   99  220 1    
   197  100  101 1    
   198  100  102 1    
   199  100  221 1    
   200  101  222 1    
   201  101  223 1    
   202  101  224 1    
   203  102  103 2    
   204  102  104 am   BACKBONE|DICT|INTERRES
   205  104  105 1    
   206  104  225 1    
   207  105  106 1    
   208  105  107 1    
   209  105  226 1    
   210  106  227 1    
   211  106  228 1    
   212  106  229 1    
   213  107  108 2    
   214  107  109 am   BACKBONE|DICT|INTERRES
   215  109  110 1    
   216  109  230 1    
   217  110  111 1    
   218  110  112 1    
   219  110  231 1    
   220  111  232 1    
   221  111  233 1    
   222  111  234 1    
   223  112  113 2    
   224  112  114 am   BACKBONE|DICT|INTERRES
   225  114  115 1    
   226  114  235 1    
   227  115  116 1    
   228  115  117 1    
   229  115  236 1    
   230  116  237 1    
   231  116  238 1    
   232  116  239 1    
   233  117  118 2    
   234  117  119 am   BACKBONE|DICT|INTERRES
   235  119  120 1    
   236  119  240 1    
   237  120  121 1    
   238  120  124 1    
   239  120  241 1    
   240  121  122 am   BACKBONE|DICT|INTERRES
   241  121  123 2    
   242  122  242 1    
   243  122  243 1    
   244  124  125 1    
   245  124  244 1    
   246  124  245 1    
   247  125  126 1    
   248  126  246 1    
   249  126  247 1    
@<TRIPOS>SUBSTRUCTURE
     1 UNK         1 GROUP             0       ****    0 ROOT    
