@<TRIPOS>MOLECULE
3R540
247   249    1
SMALL
USER_CHARGES


@<TRIPOS>ATOM
      1 CA          6.2112  -13.3423  -47.6833 C.3       0 UNK        -0.1800 
      2 C           4.9240  -13.6201  -46.9202 C.2       0 UNK         0.5000 
      3 O           4.9486  -13.7235  -45.6957 O.2       0 UNK        -0.5000 
      4 N           3.8037  -13.7429  -47.6415 N.am      1 UNK        -0.5000 
      5 CA          2.4634  -13.9703  -47.0866 C.3       1 UNK         0.1400 
      6 C6          1.5296  -14.6455  -48.1225 C.3       23 UNK        -0.0398 
      7 S7          1.3108  -13.6895  -49.6671 S.3       23 UNK        -0.2404 
      8 C8          2.2920  -14.6568  -50.8574 C.3       23 UNK        -0.0205 
      9 C9          1.6363  -15.9867  -51.1962 C.ar      23 UNK        -0.0193 
     10 C10         0.4469  -16.0133  -51.9282 C.ar      23 UNK        -0.1150 
     11 C11        -0.1507  -17.2284  -52.2742 C.ar      23 UNK        -0.0193 
     12 C12         0.4499  -18.4262  -51.8744 C.ar      23 UNK        -0.1150 
     13 C13         1.6329  -18.4134  -51.1282 C.ar      23 UNK        -0.0193 
     14 C14         2.2241  -17.1904  -50.7975 C.ar      23 UNK        -0.1150 
     15 C15         2.2854  -19.7158  -50.6865 C.3       23 UNK        -0.0205 
     16 S16         2.0718  -20.0085  -48.9012 S.3       23 UNK        -0.2404 
     17 C17         0.3014  -20.4348  -48.7995 C.3       23 UNK        -0.0398 
     18 CA          0.0664  -21.7518  -48.0214 C.3       11 UNK         0.1400 
     19 N           0.3414  -21.6218  -46.5851 N.am      11 UNK        -0.5000 
     20 C           0.3362  -22.6423  -45.7141 C.2       10 UNK         0.5000 
     21 O           0.1594  -23.8168  -46.0373 O.2       10 UNK        -0.5000 
     22 CA          0.4973  -22.2942  -44.2235 C.3       10 UNK         0.1400 
     23 CB          1.9732  -22.0626  -43.8683 C.3       10 UNK        -0.1800 
     24 N          -0.3085  -21.1390  -43.8227 N.am      10 UNK        -0.5000 
     25 C          -1.6490  -21.1042  -43.8622 C.2       9 UNK         0.5000 
     26 O          -2.3444  -22.0609  -44.1966 O.2       9 UNK        -0.5000 
     27 CA         -2.3350  -19.7713  -43.5170 C.3       9 UNK         0.1400 
     28 CB         -2.4664  -19.6009  -41.9967 C.3       9 UNK        -0.1800 
     29 N          -1.6445  -18.6161  -44.0859 N.am      9 UNK        -0.5000 
     30 C          -1.4765  -18.3899  -45.3968 C.2       8 UNK         0.5000 
     31 O          -1.9306  -19.1138  -46.2841 O.2       8 UNK        -0.5000 
     32 CA         -0.5981  -17.1808  -45.7697 C.3       8 UNK         0.1400 
     33 CB         -1.3880  -15.8689  -45.6333 C.3       8 UNK        -0.1800 
     34 N           0.6162  -17.1190  -44.9516 N.am      8 UNK        -0.5000 
     35 C           1.5748  -18.0580  -44.9588 C.2       7 UNK         0.5000 
     36 O           1.5640  -19.0360  -45.7044 O.2       7 UNK        -0.5000 
     37 CA          2.6958  -17.9188  -43.9155 C.3       7 UNK         0.1400 
     38 CB          3.8139  -16.9940  -44.4182 C.3       7 UNK        -0.1800 
     39 N           2.1828  -17.4373  -42.6322 N.am      7 UNK        -0.5000 
     40 C           1.4715  -18.1969  -41.7848 C.2       6 UNK         0.5000 
     41 O           1.2193  -19.3835  -41.9890 O.2       6 UNK        -0.5000 
     42 CA          0.9115  -17.5188  -40.5180 C.3       6 UNK         0.1400 
     43 CB          1.9355  -17.5854  -39.3755 C.3       6 UNK        -0.1800 
     44 N           0.5217  -16.1257  -40.7336 N.am      6 UNK        -0.5000 
     45 C          -0.4252  -15.7184  -41.5899 C.2       5 UNK         0.5000 
     46 O          -1.1437  -16.4916  -42.2216 O.2       5 UNK        -0.5000 
     47 CA         -0.5591  -14.2003  -41.8256 C.3       5 UNK         0.1400 
     48 CB         -1.7287  -13.6315  -41.0097 C.3       5 UNK        -0.1800 
     49 N           0.6515  -13.4255  -41.5303 N.am      5 UNK        -0.5000 
     50 C           1.8560  -13.6077  -42.0880 C.2       4 UNK         0.5000 
     51 O           2.0995  -14.5002  -42.9018 O.2       4 UNK        -0.5000 
     52 CA          2.9582  -12.6246  -41.6516 C.3       4 UNK         0.1400 
     53 CB          4.3660  -13.1115  -42.0341 C.3       4 UNK        -0.1800 
     54 N           2.7352  -11.3127  -42.2495 N.am      4 UNK        -0.5000 
     55 C           1.8423  -10.4019  -41.8482 C.2       3 UNK         0.5000 
     56 O           1.1392  -10.5402  -40.8459 O.2       3 UNK        -0.5000 
     57 CA          1.6774   -9.1439  -42.7258 C.3       3 UNK         0.1400 
     58 CB          2.8062   -8.1271  -42.4688 C.3       3 UNK        -0.1800 
     59 N           1.5151   -9.4284  -44.1607 N.am      3 UNK        -0.5000 
     60 C           2.3991   -9.9565  -45.0186 C.2       2 UNK         0.5000 
     61 O           3.5600  -10.2523  -44.7249 O.2       2 UNK        -0.5000 
     62 CA          1.8974  -10.2007  -46.4516 C.3       2 UNK         0.1400 
     63 CB          2.4285   -9.1198  -47.4052 C.3       2 UNK        -0.1800 
     64 N           2.3196  -11.5133  -46.9343 N.am      2 UNK        -0.5000 
     65 C           1.8365  -12.6855  -46.4968 C.2       1 UNK         0.5000 
     66 O           0.9259  -12.7783  -45.6728 O.2       1 UNK        -0.5000 
     67 C          -1.3534  -22.2931  -48.2817 C.2       11 UNK         0.5000 
     68 O          -1.5054  -23.2243  -49.0722 O.2       11 UNK        -0.5000 
     69 N          -2.3571  -21.7368  -47.5878 N.am      12 UNK        -0.5000 
     70 CA         -3.7493  -22.1832  -47.6593 C.3       12 UNK         0.1400 
     71 CB         -4.6473  -21.2106  -46.8815 C.3       12 UNK        -0.1800 
     72 C          -3.9406  -23.6274  -47.1604 C.2       12 UNK         0.5000 
     73 O          -4.6475  -24.3991  -47.8069 O.2       12 UNK        -0.5000 
     74 N          -3.2873  -23.9821  -46.0454 N.am      13 UNK        -0.5000 
     75 CA         -3.2919  -25.3273  -45.4692 C.3       13 UNK         0.1400 
     76 CB         -2.6053  -25.3113  -44.0954 C.3       13 UNK        -0.1800 
     77 C          -2.6411  -26.3691  -46.3947 C.2       13 UNK         0.5000 
     78 O          -3.2212  -27.4348  -46.6041 O.2       13 UNK        -0.5000 
     79 N          -1.4812  -26.0265  -46.9746 N.am      14 UNK        -0.5000 
     80 CA         -0.7655  -26.8468  -47.9567 C.3       14 UNK         0.1400 
     81 CB          0.5947  -26.2036  -48.2657 C.3       14 UNK        -0.1800 
     82 C          -1.5668  -27.0685  -49.2540 C.2       14 UNK         0.5000 
     83 O          -1.4913  -28.1476  -49.8421 O.2       14 UNK        -0.5000 
     84 N          -2.3476  -26.0562  -49.6504 N.am      15 UNK        -0.5000 
     85 CA         -3.2649  -26.0892  -50.7878 C.3       15 UNK         0.1400 
     86 CB         -3.4776  -24.6491  -51.2741 C.3       15 UNK        -0.1800 
     87 C          -4.6165  -26.7658  -50.4767 C.2       15 UNK         0.5000 
     88 O          -5.4568  -26.8422  -51.3721 O.2       15 UNK        -0.5000 
     89 N          -4.8235  -27.2225  -49.2319 N.am      16 UNK        -0.5000 
     90 CA         -6.0404  -27.8574  -48.7132 C.3       16 UNK         0.1400 
     91 CB         -6.2691  -29.2313  -49.3776 C.3       16 UNK        -0.1800 
     92 C          -7.2734  -26.9304  -48.7844 C.2       16 UNK         0.5000 
     93 O          -8.3534  -27.3579  -49.1954 O.2       16 UNK        -0.5000 
     94 N          -7.0690  -25.6679  -48.3836 N.am      17 UNK        -0.5000 
     95 CA         -8.0293  -24.5602  -48.3314 C.3       17 UNK         0.1400 
     96 CB         -9.2551  -24.9054  -47.4594 C.3       17 UNK        -0.1800 
     97 C          -8.4163  -23.9851  -49.7100 C.2       17 UNK         0.5000 
     98 O          -9.3542  -23.1891  -49.7888 O.2       17 UNK        -0.5000 
     99 N          -7.6768  -24.3520  -50.7655 N.am      18 UNK        -0.5000 
    100 CA        -7.7590  -23.7302  -52.0876 C.3       18 UNK         0.1400 
    101 CB        -7.2436  -24.7242  -53.1421 C.3       18 UNK        -0.1800 
    102 C         -6.9764  -22.3997  -52.1321 C.2       18 UNK         0.5000 
    103 O         -6.3432  -22.0088  -51.1483 O.2       18 UNK        -0.5000 
    104 N         -7.0189  -21.7317  -53.2926 N.am      19 UNK        -0.5000 
    105 CA        -6.4115  -20.4196  -53.5491 C.3       19 UNK         0.1400 
    106 CB        -6.9850  -19.8665  -54.8640 C.3       19 UNK        -0.1800 
    107 C         -4.8670  -20.3980  -53.5833 C.2       19 UNK         0.5000 
    108 O         -4.2925  -19.3188  -53.7280 O.2       19 UNK        -0.5000 
    109 N         -4.2217  -21.5703  -53.4802 N.am      20 UNK        -0.5000 
    110 CA        -2.7690  -21.7760  -53.4018 C.3       20 UNK         0.1400 
    111 CB        -2.2291  -21.2712  -52.0467 C.3       20 UNK        -0.1800 
    112 C         -2.0082  -21.2074  -54.6181 C.2       20 UNK         0.5000 
    113 O         -0.9513  -20.5958  -54.4642 O.2       20 UNK        -0.5000 
    114 N         -2.5950  -21.4195  -55.8055 N.am      21 UNK        -0.5000 
    115 CA        -2.1472  -20.9859  -57.1352 C.3       21 UNK         0.1400 
    116 CB        -0.7278  -21.5013  -57.4537 C.3       21 UNK        -0.1800 
    117 C         -2.2946  -19.4731  -57.4099 C.2       21 UNK         0.5000 
    118 O         -1.9224  -19.0310  -58.4982 O.2       21 UNK        -0.5000 
    119 N         -2.8674  -18.7113  -56.4682 N.am      22 UNK        -0.5000 
    120 CA        -3.1742  -17.2780  -56.6272 C.3       22 UNK         0.1400 
    121 C         -4.5798  -16.9998  -57.2396 C.2       22 UNK         0.5000 
    122 N         -5.3787  -18.0065  -57.5729 N.am      22 UNK        -0.7600 
    123 O         -4.9494  -15.8451  -57.4355 O.2       22 UNK        -0.5000 
    124 C124       -2.9670  -16.4902  -55.3091 C.3       23 UNK        -0.0398 
    125 S125       -1.2371  -16.5430  -54.7293 S.3       23 UNK        -0.2404 
    126 C126       -1.4524  -17.2365  -53.0618 C.3       23 UNK        -0.0205 
    127 H127        6.6430  -12.3962  -47.3569 H         1 UNK         0.0600 
    128 H128        6.0422  -13.2865  -48.7589 H         1 UNK         0.0600 
    129 H129        6.9372  -14.1331  -47.4939 H         1 UNK         0.0600 
    130 H130        3.8449  -13.6421  -48.6451 H         1 UNK         0.3000 
    131 H131        2.5599  -14.6657  -46.2511 H         1 UNK         0.0600 
    132 H132        1.9120  -15.6393  -48.3572 H         1 UNK         0.0800 
    133 H133        0.5424  -14.8158  -47.6940 H         1 UNK         0.0800 
    134 H134        3.3002  -14.8065  -50.4688 H         1 UNK         0.0800 
    135 H135        2.4026  -14.0754  -51.7739 H         1 UNK         0.0800 
    136 H136       -0.0126  -15.0842  -52.2356 H         1 UNK         0.1150 
    137 H137       -0.0033  -19.3686  -52.1452 H         1 UNK         0.1150 
    138 H138        3.1425  -17.1801  -50.2272 H         1 UNK         0.1150 
    139 H139        1.8915  -20.5634  -51.2498 H         1 UNK         0.0800 
    140 H140        3.3525  -19.6732  -50.9094 H         1 UNK         0.0800 
    141 H141       -0.0955  -20.5150  -49.8126 H         1 UNK         0.0800 
    142 H142       -0.2302  -19.6047  -48.3326 H         1 UNK         0.0800 
    143 H143        0.7582  -22.5008  -48.4132 H         1 UNK         0.0600 
    144 H144        0.5503  -20.6873  -46.2462 H         1 UNK         0.3000 
    145 H145        0.1475  -23.1524  -43.6461 H         1 UNK         0.0600 
    146 H146        2.0994  -21.8885  -42.7998 H         1 UNK         0.0600 
    147 H147        2.5765  -22.9332  -44.1286 H         1 UNK         0.0600 
    148 H148        2.3890  -21.2072  -44.3995 H         1 UNK         0.0600 
    149 H149        0.1951  -20.3305  -43.4750 H         1 UNK         0.3000 
    150 H150       -3.3401  -19.7955  -43.9427 H         1 UNK         0.0600 
    151 H151       -3.0190  -20.4324  -41.5577 H         1 UNK         0.0600 
    152 H152       -3.0026  -18.6851  -41.7472 H         1 UNK         0.0600 
    153 H153       -1.4922  -19.5612  -41.5100 H         1 UNK         0.0600 
    154 H154       -1.2849  -17.9323  -43.4246 H         1 UNK         0.3000 
    155 H155       -0.2918  -17.2913  -46.8122 H         1 UNK         0.0600 
    156 H156       -1.8371  -15.7620  -44.6464 H         1 UNK         0.0600 
    157 H157       -0.7564  -14.9976  -45.8000 H         1 UNK         0.0600 
    158 H158       -2.1980  -15.8304  -46.3624 H         1 UNK         0.0600 
    159 H159        0.6882  -16.3611  -44.2879 H         1 UNK         0.3000 
    160 H160        3.1313  -18.9086  -43.7633 H         1 UNK         0.0600 
    161 H161        3.4641  -15.9733  -44.5642 H         1 UNK         0.0600 
    162 H162        4.2106  -17.3430  -45.3724 H         1 UNK         0.0600 
    163 H163        4.6440  -16.9612  -43.7127 H         1 UNK         0.0600 
    164 H164        2.2922  -16.4457  -42.4459 H         1 UNK         0.3000 
    165 H165        0.0208  -18.0710  -40.2120 H         1 UNK         0.0600 
    166 H166        1.5222  -17.1820  -38.4509 H         1 UNK         0.0600 
    167 H167        2.2302  -18.6166  -39.1757 H         1 UNK         0.0600 
    168 H168        2.8408  -17.0251  -39.6126 H         1 UNK         0.0600 
    169 H169        1.0628  -15.4220  -40.2540 H         1 UNK         0.3000 
    170 H170       -0.7808  -14.0598  -42.8856 H         1 UNK         0.0600 
    171 H171       -2.6549  -14.1649  -41.2286 H         1 UNK         0.0600 
    172 H172       -1.5474  -13.7133  -39.9373 H         1 UNK         0.0600 
    173 H173       -1.8981  -12.5800  -41.2430 H         1 UNK         0.0600 
    174 H174        0.5394  -12.6308  -40.9118 H         1 UNK         0.3000 
    175 H175        2.9192  -12.5354  -40.5639 H         1 UNK         0.0600 
    176 H176        4.4852  -13.1838  -43.1155 H         1 UNK         0.0600 
    177 H177        5.1328  -12.4337  -41.6589 H         1 UNK         0.0600 
    178 H178        4.5679  -14.0976  -41.6141 H         1 UNK         0.0600 
    179 H179        3.2347  -11.1165  -43.1138 H         1 UNK         0.3000 
    180 H180        0.7437   -8.6718  -42.4157 H         1 UNK         0.0600 
    181 H181        3.7875   -8.5275  -42.7245 H         1 UNK         0.0600 
    182 H182        2.8378   -7.8423  -41.4165 H         1 UNK         0.0600 
    183 H183        2.6547   -7.2159  -43.0475 H         1 UNK         0.0600 
    184 H184        0.5851   -9.2468  -44.5128 H         1 UNK         0.3000 
    185 H185        0.8058  -10.1662  -46.4627 H         1 UNK         0.0600 
    186 H186        2.1116   -8.1267  -47.0841 H         1 UNK         0.0600 
    187 H187        3.5186   -9.1191  -47.4465 H         1 UNK         0.0600 
    188 H188        2.0539   -9.2685  -48.4182 H         1 UNK         0.0600 
    189 H189        3.0913  -11.5295  -47.5837 H         1 UNK         0.3000 
    190 H190       -2.1581  -20.9518  -46.9741 H         1 UNK         0.3000 
    191 H191       -4.0524  -22.1549  -48.7084 H         1 UNK         0.0600 
    192 H192       -4.3877  -21.1795  -45.8233 H         1 UNK         0.0600 
    193 H193       -5.6952  -21.5042  -46.9554 H         1 UNK         0.0600 
    194 H194       -4.5640  -20.1976  -47.2756 H         1 UNK         0.0600 
    195 H195       -2.7720  -23.2713  -45.5308 H         1 UNK         0.3000 
    196 H196       -4.3334  -25.6205  -45.3219 H         1 UNK         0.0600 
    197 H197       -2.6053  -26.3051  -43.6461 H         1 UNK         0.0600 
    198 H198       -3.1212  -24.6430  -43.4059 H         1 UNK         0.0600 
    199 H199       -1.5684  -24.9821  -44.1666 H         1 UNK         0.0600 
    200 H200       -1.0490  -25.1402  -46.7249 H         1 UNK         0.3000 
    201 H201       -0.5868  -27.8255  -47.5069 H         1 UNK         0.0600 
    202 H202        1.2044  -26.1205  -47.3658 H         1 UNK         0.0600 
    203 H203        0.4797  -25.2033  -48.6847 H         1 UNK         0.0600 
    204 H204        1.1562  -26.8003  -48.9855 H         1 UNK         0.0600 
    205 H205       -2.3018  -25.1818  -49.1382 H         1 UNK         0.3000 
    206 H206       -2.7983  -26.6535  -51.5976 H         1 UNK         0.0600 
    207 H207       -2.5206  -24.1652  -51.4648 H         1 UNK         0.0600 
    208 H208       -4.0426  -24.6260  -52.2048 H         1 UNK         0.0600 
    209 H209       -4.0177  -24.0480  -50.5413 H         1 UNK         0.0600 
    210 H210       -4.0836  -27.0946  -48.5519 H         1 UNK         0.3000 
    211 H211       -5.8589  -28.0353  -47.6524 H         1 UNK         0.0600 
    212 H212       -6.5089  -29.1368  -50.4370 H         1 UNK         0.0600 
    213 H213       -7.0953  -29.7612  -48.9023 H         1 UNK         0.0600 
    214 H214       -5.3854  -29.8630  -49.2886 H         1 UNK         0.0600 
    215 H215       -6.1195  -25.4000  -48.1253 H         1 UNK         0.3000 
    216 H216       -7.4986  -23.7521  -47.8258 H         1 UNK         0.0600 
    217 H217       -9.8593  -24.0181  -47.2672 H         1 UNK         0.0600 
    218 H218       -8.9519  -25.3044  -46.4914 H         1 UNK         0.0600 
    219 H219       -9.9033  -25.6389  -47.9391 H         1 UNK         0.0600 
    220 H220       -6.9216  -25.0075  -50.6204 H         1 UNK         0.3000 
    221 H221       -8.8053  -23.5116  -52.3107 H         1 UNK         0.0600 
    222 H222       -6.1706  -24.8876  -53.0562 H         1 UNK         0.0600 
    223 H223       -7.7354  -25.6925  -53.0446 H         1 UNK         0.0600 
    224 H224       -7.4390  -24.3677  -54.1537 H         1 UNK         0.0600 
    225 H225       -7.5487  -22.1259  -54.0567 H         1 UNK         0.3000 
    226 H226       -6.7142  -19.7503  -52.7414 H         1 UNK         0.0600 
    227 H227       -8.0729  -19.8080  -54.8276 H         1 UNK         0.0600 
    228 H228       -6.6178  -18.8579  -55.0591 H         1 UNK         0.0600 
    229 H229       -6.7091  -20.4881  -55.7165 H         1 UNK         0.0600 
    230 H230       -4.7903  -22.3977  -53.3806 H         1 UNK         0.3000 
    231 H231       -2.6087  -22.8534  -53.4393 H         1 UNK         0.0600 
    232 H232       -1.1783  -21.5339  -51.9210 H         1 UNK         0.0600 
    233 H233       -2.7744  -21.7171  -51.2151 H         1 UNK         0.0600 
    234 H234       -2.3171  -20.1899  -51.9506 H         1 UNK         0.0600 
    235 H235       -3.4736  -21.9185  -55.7960 H         1 UNK         0.3000 
    236 H236       -2.8258  -21.4727  -57.8371 H         1 UNK         0.0600 
    237 H237       -0.6427  -22.5709  -57.2625 H         1 UNK         0.0600 
    238 H238       -0.4812  -21.3408  -58.5038 H         1 UNK         0.0600 
    239 H239        0.0335  -20.9911  -56.8633 H         1 UNK         0.0600 
    240 H240       -3.1478  -19.1288  -55.5892 H         1 UNK         0.3000 
    241 H241       -2.4725  -16.8559  -57.3490 H         1 UNK         0.0600 
    242 H242       -5.0851  -18.9594  -57.4387 H         1 UNK         0.3800 
    243 H243       -6.2804  -17.8096  -57.9781 H         1 UNK         0.3800 
    244 H244       -3.2217  -15.4378  -55.4454 H         1 UNK         0.0800 
    245 H245       -3.6384  -16.8633  -54.5348 H         1 UNK         0.0800 
    246 H246       -1.8448  -18.2490  -53.1540 H         1 UNK         0.0800 
    247 H247       -2.2001  -16.6584  -52.5170 H         1 UNK         0.0800 
@<TRIPOS>BOND
     1    1    2 1    
     2    1  127 1    
     3    1  128 1    
     4    1  129 1    
     5    2    3 2    
     6    2    4 am   BACKBONE|DICT|INTERRES
     7    4    5 1    
     8    4  130 1    
     9    5    6 1    
    10    5   65 1    
    11    5  131 1    
    12    6    7 1    
    13    6  132 1    
    14    6  133 1    
    15    7    8 1    
    16    8    9 1    
    17    8  134 1    
    18    8  135 1    
    19    9   10 ar   
    20    9   14 ar   
    21   10   11 ar   
    22   10  136 1    
    23   11   12 ar   
    24   11  126 1    
    25   12   13 ar   
    26   12  137 1    
    27   13   14 ar   
    28   13   15 1    
    29   14  138 1    
    30   15   16 1    
    31   15  139 1    
    32   15  140 1    
    33   16   17 1    
    34   17   18 1    
    35   17  141 1    
    36   17  142 1    
    37   18   19 1    
    38   18   67 1    
    39   18  143 1    
    40   19   20 am   BACKBONE|DICT|INTERRES
    41   19  144 1    
    42   20   21 2    
    43   20   22 1    
    44   22   23 1    
    45   22   24 1    
    46   22  145 1    
    47   23  146 1    
    48   23  147 1    
    49   23  148 1    
    50   24   25 am   BACKBONE|DICT|INTERRES
    51   24  149 1    
    52   25   26 2    
    53   25   27 1    
    54   27   28 1    
    55   27   29 1    
    56   27  150 1    
    57   28  151 1    
    58   28  152 1    
    59   28  153 1    
    60   29   30 am   BACKBONE|DICT|INTERRES
    61   29  154 1    
    62   30   31 2    
    63   30   32 1    
    64   32   33 1    
    65   32   34 1    
    66   32  155 1    
    67   33  156 1    
    68   33  157 1    
    69   33  158 1    
    70   34   35 am   BACKBONE|DICT|INTERRES
    71   34  159 1    
    72   35   36 2    
    73   35   37 1    
    74   37   38 1    
    75   37   39 1    
    76   37  160 1    
    77   38  161 1    
    78   38  162 1    
    79   38  163 1    
    80   39   40 am   BACKBONE|DICT|INTERRES
    81   39  164 1    
    82   40   41 2    
    83   40   42 1    
    84   42   43 1    
    85   42   44 1    
    86   42  165 1    
    87   43  166 1    
    88   43  167 1    
    89   43  168 1    
    90   44   45 am   BACKBONE|DICT|INTERRES
    91   44  169 1    
    92   45   46 2    
    93   45   47 1    
    94   47   48 1    
    95   47   49 1    
    96   47  170 1    
    97   48  171 1    
    98   48  172 1    
    99   48  173 1    
   100   49   50 am   BACKBONE|DICT|INTERRES
   101   49  174 1    
   102   50   51 2    
   103   50   52 1    
   104   52   53 1    
   105   52   54 1    
   106   52  175 1    
   107   53  176 1    
   108   53  177 1    
   109   53  178 1    
   110   54   55 am   BACKBONE|DICT|INTERRES
   111   54  179 1    
   112   55   56 2    
   113   55   57 1    
   114   57   58 1    
   115   57   59 1    
   116   57  180 1    
   117   58  181 1    
   118   58  182 1    
   119   58  183 1    
   120   59   60 am   BACKBONE|DICT|INTERRES
   121   59  184 1    
   122   60   61 2    
   123   60   62 1    
   124   62   63 1    
   125   62   64 1    
   126   62  185 1    
   127   63  186 1    
   128   63  187 1    
   129   63  188 1    
   130   64   65 am   BACKBONE|DICT|INTERRES
   131   64  189 1    
   132   65   66 2    
   133   67   68 2    
   134   67   69 am   BACKBONE|DICT|INTERRES
   135   69   70 1    
   136   69  190 1    
   137   70   71 1    
   138   70   72 1    
   139   70  191 1    
   140   71  192 1    
   141   71  193 1    
   142   71  194 1    
   143   72   73 2    
   144   72   74 am   BACKBONE|DICT|INTERRES
   145   74   75 1    
   146   74  195 1    
   147   75   76 1    
   148   75   77 1    
   149   75  196 1    
   150   76  197 1    
   151   76  198 1    
   152   76  199 1    
   153   77   78 2    
   154   77   79 am   BACKBONE|DICT|INTERRES
   155   79   80 1    
   156   79  200 1    
   157   80   81 1    
   158   80   82 1    
   159   80  201 1    
   160   81  202 1    
   161   81  203 1    
   162   81  204 1    
   163   82   83 2    
   164   82   84 am   BACKBONE|DICT|INTERRES
   165   84   85 1    
   166   84  205 1    
   167   85   86 1    
   168   85   87 1    
   169   85  206 1    
   170   86  207 1    
   171   86  208 1    
   172   86  209 1    
   173   87   88 2    
   174   87   89 am   BACKBONE|DICT|INTERRES
   175   89   90 1    
   176   89  210 1    
   177   90   91 1    
   178   90   92 1    
   179   90  211 1    
   180   91  212 1    
   181   91  213 1    
   182   91  214 1    
   183   92   93 2    
   184   92   94 am   BACKBONE|DICT|INTERRES
   185   94   95 1    
   186   94  215 1    
   187   95   96 1    
   188   95   97 1    
   189   95  216 1    
   190   96  217 1    
   191   96  218 1    
   192   96  219 1    
   193   97   98 2    
   194   97   99 am   BACKBONE|DICT|INTERRES
   195   99  100 1    
   196   99  220 1    
   197  100  101 1    
   198  100  102 1    
   199  100  221 1    
   200  101  222 1    
   201  101  223 1    
   202  101  224 1    
   203  102  103 2    
   204  102  104 am   BACKBONE|DICT|INTERRES
   205  104  105 1    
   206  104  225 1    
   207  105  106 1    
   208  105  107 1    
   209  105  226 1    
   210  106  227 1    
   211  106  228 1    
   212  106  229 1    
   213  107  108 2    
   214  107  109 am   BACKBONE|DICT|INTERRES
   215  109  110 1    
   216  109  230 1    
   217  110  111 1    
   218  110  112 1    
   219  110  231 1    
   220  111  232 1    
   221  111  233 1    
   222  111  234 1    
   223  112  113 2    
   224  112  114 am   BACKBONE|DICT|INTERRES
   225  114  115 1    
   226  114  235 1    
   227  115  116 1    
   228  115  117 1    
   229  115  236 1    
   230  116  237 1    
   231  116  238 1    
   232  116  239 1    
   233  117  118 2    
   234  117  119 am   BACKBONE|DICT|INTERRES
   235  119  120 1    
   236  119  240 1    
   237  120  121 1    
   238  120  124 1    
   239  120  241 1    
   240  121  122 am   BACKBONE|DICT|INTERRES
   241  121  123 2    
   242  122  242 1    
   243  122  243 1    
   244  124  125 1    
   245  124  244 1    
   246  124  245 1    
   247  125  126 1    
   248  126  246 1    
   249  126  247 1    
@<TRIPOS>SUBSTRUCTURE
     1 UNK         1 GROUP             0       ****    0 ROOT    
