@<TRIPOS>MOLECULE
3R540
247   249    1
SMALL
USER_CHARGES


@<TRIPOS>ATOM
      1 CA         -2.5591  -14.7066  -43.0856 C.3       0 UNK        -0.1800 
      2 C          -2.7935  -13.3405  -43.7154 C.2       0 UNK         0.5000 
      3 O          -2.8878  -12.3434  -43.0003 O.2       0 UNK        -0.5000 
      4 N          -2.9048  -13.2944  -45.0490 N.am      1 UNK        -0.5000 
      5 CA         -3.1826  -12.0780  -45.8249 C.3       1 UNK         0.1400 
      6 C6         -3.8866  -12.4022  -47.1684 C.3       23 UNK        -0.0398 
      7 S7         -2.8894  -13.3833  -48.3471 S.3       23 UNK        -0.2404 
      8 C8         -3.5342  -15.0602  -48.0580 C.3       23 UNK        -0.0205 
      9 C9         -2.8740  -16.0853  -48.9681 C.ar      23 UNK        -0.0193 
     10 C10        -3.6382  -16.8192  -49.8801 C.ar      23 UNK        -0.1150 
     11 C11        -3.0408  -17.7945  -50.6849 C.ar      23 UNK        -0.0193 
     12 C12        -1.6635  -18.0141  -50.5928 C.ar      23 UNK        -0.1150 
     13 C13        -0.8879  -17.2808  -49.6913 C.ar      23 UNK        -0.0193 
     14 C14        -1.5005  -16.3266  -48.8751 C.ar      23 UNK        -0.1150 
     15 C15         0.6131  -17.5000  -49.6024 C.3       23 UNK        -0.0205 
     16 S16         1.0739  -18.4792  -48.1409 S.3       23 UNK        -0.2404 
     17 C17         0.8464  -20.1949  -48.7139 C.3       23 UNK        -0.0398 
     18 CA         -0.1788  -21.0300  -47.9088 C.3       11 UNK         0.1400 
     19 N           0.0913  -21.0740  -46.4664 N.am      11 UNK        -0.5000 
     20 C          -0.2444  -22.1167  -45.6916 C.2       10 UNK         0.5000 
     21 O          -0.7392  -23.1560  -46.1272 O.2       10 UNK        -0.5000 
     22 CA         -0.0229  -21.9792  -44.1746 C.3       10 UNK         0.1400 
     23 CB          1.4202  -22.3434  -43.7939 C.3       10 UNK        -0.1800 
     24 N          -0.3509  -20.6519  -43.6559 N.am      10 UNK        -0.5000 
     25 C          -1.5715  -20.0993  -43.6825 C.2       9 UNK         0.5000 
     26 O          -2.5585  -20.6512  -44.1678 O.2       9 UNK        -0.5000 
     27 CA         -1.7054  -18.6805  -43.1027 C.3       9 UNK         0.1400 
     28 CB         -1.8897  -18.7176  -41.5785 C.3       9 UNK        -0.1800 
     29 N          -0.5493  -17.8523  -43.4399 N.am      9 UNK        -0.5000 
     30 C          -0.3472  -17.3104  -44.6485 C.2       8 UNK         0.5000 
     31 O          -1.1595  -17.3817  -45.5683 O.2       8 UNK        -0.5000 
     32 CA          0.9827  -16.5677  -44.8680 C.3       8 UNK         0.1400 
     33 CB          0.8131  -15.0707  -44.5770 C.3       8 UNK        -0.1800 
     34 N           2.0831  -17.1051  -44.0648 N.am      8 UNK        -0.5000 
     35 C           2.6140  -18.3253  -44.2342 C.2       7 UNK         0.5000 
     36 O           2.2289  -19.1296  -45.0825 O.2       7 UNK        -0.5000 
     37 CA          3.7260  -18.7408  -43.2556 C.3       7 UNK         0.1400 
     38 CB          5.0600  -18.0785  -43.6284 C.3       7 UNK        -0.1800 
     39 N           3.4104  -18.4393  -41.8595 N.am      7 UNK        -0.5000 
     40 C           2.3668  -18.9165  -41.1712 C.2       6 UNK         0.5000 
     41 O           1.5178  -19.6598  -41.6612 O.2       6 UNK        -0.5000 
     42 CA          2.2159  -18.4728  -39.7019 C.3       6 UNK         0.1400 
     43 CB          3.0726  -19.3441  -38.7642 C.3       6 UNK        -0.1800 
     44 N           2.4440  -17.0380  -39.4787 N.am      6 UNK        -0.5000 
     45 C           3.5802  -16.3379  -39.5976 C.2       5 UNK         0.5000 
     46 O           4.6804  -16.8319  -39.8565 O.2       5 UNK        -0.5000 
     47 CA          3.4486  -14.8112  -39.4453 C.3       5 UNK         0.1400 
     48 CB          4.0317  -14.3496  -38.1011 C.3       5 UNK        -0.1800 
     49 N           4.0973  -14.0711  -40.5313 N.am      5 UNK        -0.5000 
     50 C           3.8862  -14.2547  -41.8422 C.2       4 UNK         0.5000 
     51 O           3.1067  -15.0880  -42.3084 O.2       4 UNK        -0.5000 
     52 CA          4.6132  -13.2851  -42.7802 C.3       4 UNK         0.1400 
     53 CB          4.9658  -13.9157  -44.1397 C.3       4 UNK        -0.1800 
     54 N           3.7227  -12.1511  -42.9850 N.am      4 UNK        -0.5000 
     55 C           4.0805  -10.8649  -43.0083 C.2       3 UNK         0.5000 
     56 O           5.2484  -10.4827  -42.9106 O.2       3 UNK        -0.5000 
     57 CA          2.9346   -9.8427  -43.1807 C.3       3 UNK         0.1400 
     58 CB          3.4334   -8.3859  -43.1879 C.3       3 UNK        -0.1800 
     59 N           2.1573  -10.0765  -44.4006 N.am      3 UNK        -0.5000 
     60 C           1.2230  -11.0209  -44.5612 C.2       2 UNK         0.5000 
     61 O           0.9198  -11.8370  -43.6865 O.2       2 UNK        -0.5000 
     62 CA          0.5509  -11.0811  -45.9405 C.3       2 UNK         0.1400 
     63 CB          1.4266  -11.8649  -46.9319 C.3       2 UNK        -0.1800 
     64 N          -0.7408  -11.7519  -45.8293 N.am      2 UNK        -0.5000 
     65 C          -1.9367  -11.1836  -46.0233 C.2       1 UNK         0.5000 
     66 O          -2.0883  -10.0053  -46.3502 O.2       1 UNK        -0.5000 
     67 C          -1.6403  -20.6587  -48.2352 C.2       11 UNK         0.5000 
     68 O          -2.1115  -21.0158  -49.3140 O.2       11 UNK        -0.5000 
     69 N          -2.3470  -19.9862  -47.3144 N.am      12 UNK        -0.5000 
     70 CA         -3.7735  -19.6894  -47.4527 C.3       12 UNK         0.1400 
     71 CB         -4.1821  -18.5773  -46.4765 C.3       12 UNK        -0.1800 
     72 C          -4.6467  -20.9384  -47.2481 C.2       12 UNK         0.5000 
     73 O          -5.6195  -21.1198  -47.9822 O.2       12 UNK        -0.5000 
     74 N          -4.2765  -21.7772  -46.2683 N.am      13 UNK        -0.5000 
     75 CA         -4.9351  -23.0321  -45.9003 C.3       13 UNK         0.1400 
     76 CB         -4.1616  -23.6858  -44.7444 C.3       13 UNK        -0.1800 
     77 C          -5.0674  -23.9930  -47.0968 C.2       13 UNK         0.5000 
     78 O          -4.0613  -24.5232  -47.5735 O.2       13 UNK        -0.5000 
     79 N          -6.3038  -24.1331  -47.6001 N.am      14 UNK        -0.5000 
     80 CA         -6.6988  -24.8863  -48.7993 C.3       14 UNK         0.1400 
     81 CB         -6.5524  -26.4024  -48.5501 C.3       14 UNK        -0.1800 
     82 C          -5.9701  -24.4335  -50.0856 C.2       14 UNK         0.5000 
     83 O          -5.8069  -25.2340  -51.0076 O.2       14 UNK        -0.5000 
     84 N          -5.4926  -23.1789  -50.1045 N.am      15 UNK        -0.5000 
     85 CA         -4.5945  -22.5939  -51.1042 C.3       15 UNK         0.1400 
     86 CB         -5.3504  -22.3226  -52.4207 C.3       15 UNK        -0.1800 
     87 C          -3.3033  -23.4198  -51.3027 C.2       15 UNK         0.5000 
     88 O          -2.8738  -23.6226  -52.4391 O.2       15 UNK        -0.5000 
     89 N          -2.7410  -23.9219  -50.1916 N.am      16 UNK        -0.5000 
     90 CA         -1.5778  -24.8111  -50.1103 C.3       16 UNK         0.1400 
     91 CB         -0.3154  -24.1239  -50.6764 C.3       16 UNK        -0.1800 
     92 C          -1.8576  -26.1804  -50.7637 C.2       16 UNK         0.5000 
     93 O          -0.9958  -26.7214  -51.4557 O.2       16 UNK        -0.5000 
     94 N          -3.0833  -26.6913  -50.5685 N.am      17 UNK        -0.5000 
     95 CA         -3.6743  -27.8484  -51.2538 C.3       17 UNK         0.1400 
     96 CB         -2.9582  -29.1577  -50.8625 C.3       17 UNK        -0.1800 
     97 C          -3.7458  -27.6148  -52.7788 C.2       17 UNK         0.5000 
     98 O          -3.3003  -28.4502  -53.5667 O.2       17 UNK        -0.5000 
     99 N          -4.2695  -26.4362  -53.1430 N.am      18 UNK        -0.5000 
    100 CA        -4.4088  -25.8547  -54.4827 C.3       18 UNK         0.1400 
    101 CB        -5.2836  -26.7473  -55.3856 C.3       18 UNK        -0.1800 
    102 C         -3.0887  -25.4565  -55.1801 C.2       18 UNK         0.5000 
    103 O         -3.1492  -24.8977  -56.2766 O.2       18 UNK        -0.5000 
    104 N         -1.9270  -25.7039  -54.5571 N.am      19 UNK        -0.5000 
    105 CA        -0.6045  -25.4311  -55.1268 C.3       19 UNK         0.1400 
    106 CB         0.4733  -26.1399  -54.2944 C.3       19 UNK        -0.1800 
    107 C         -0.2734  -23.9330  -55.2713 C.2       19 UNK         0.5000 
    108 O          0.5376  -23.5845  -56.1306 O.2       19 UNK        -0.5000 
    109 N         -0.9004  -23.0706  -54.4570 N.am      20 UNK        -0.5000 
    110 CA        -0.7563  -21.6142  -54.5477 C.3       20 UNK         0.1400 
    111 CB        -1.1797  -20.9711  -53.2191 C.3       20 UNK        -0.1800 
    112 C         -1.5604  -21.0070  -55.7146 C.2       20 UNK         0.5000 
    113 O         -1.2690  -19.8822  -56.1217 O.2       20 UNK        -0.5000 
    114 N         -2.5511  -21.7575  -56.2238 N.am      21 UNK        -0.5000 
    115 CA        -3.4360  -21.4289  -57.3471 C.3       21 UNK         0.1400 
    116 CB        -2.6365  -21.3607  -58.6652 C.3       21 UNK        -0.1800 
    117 C         -4.3203  -20.1828  -57.1146 C.2       21 UNK         0.5000 
    118 O         -4.7100  -19.5196  -58.0781 O.2       21 UNK        -0.5000 
    119 N         -4.6343  -19.8919  -55.8451 N.am      22 UNK        -0.5000 
    120 CA        -5.5603  -18.8265  -55.4310 C.3       22 UNK         0.1400 
    121 C         -7.0217  -19.1021  -55.8865 C.2       22 UNK         0.5000 
    122 N         -7.7616  -18.0730  -56.2763 N.am      22 UNK        -0.7600 
    123 O         -7.5033  -20.2324  -55.8472 O.2       22 UNK        -0.5000 
    124 C124       -5.5195  -18.5918  -53.9006 C.3       23 UNK        -0.0398 
    125 S125       -3.9077  -17.9731  -53.3103 S.3       23 UNK        -0.2404 
    126 C126       -3.8936  -18.6383  -51.6181 C.3       23 UNK        -0.0205 
    127 H127       -1.6009  -14.7262  -42.5675 H         1 UNK         0.0600 
    128 H128       -2.5655  -15.5009  -43.8315 H         1 UNK         0.0600 
    129 H129       -3.3419  -14.9232  -42.3588 H         1 UNK         0.0600 
    130 H130       -2.8099  -14.1424  -45.5877 H         1 UNK         0.3000 
    131 H131       -3.8883  -11.4771  -45.2468 H         1 UNK         0.0600 
    132 H132       -4.1729  -11.4752  -47.6682 H         1 UNK         0.0800 
    133 H133       -4.8261  -12.9208  -46.9729 H         1 UNK         0.0800 
    134 H134       -3.3579  -15.3463  -47.0213 H         1 UNK         0.0800 
    135 H135       -4.6156  -15.0588  -48.2029 H         1 UNK         0.0800 
    136 H136       -4.7033  -16.6488  -49.9488 H         1 UNK         0.1150 
    137 H137       -1.1993  -18.7683  -51.2103 H         1 UNK         0.1150 
    138 H138       -0.9063  -15.7702  -48.1636 H         1 UNK         0.1150 
    139 H139        0.9963  -17.9712  -50.5087 H         1 UNK         0.0800 
    140 H140        1.1080  -16.5299  -49.5371 H         1 UNK         0.0800 
    141 H141        1.8208  -20.6807  -48.6506 H         1 UNK         0.0800 
    142 H142        0.5910  -20.2037  -49.7749 H         1 UNK         0.0800 
    143 H143       -0.0627  -22.0493  -48.2799 H         1 UNK         0.0600 
    144 H144        0.5413  -20.2635  -46.0549 H         1 UNK         0.3000 
    145 H145       -0.6882  -22.6921  -43.6829 H         1 UNK         0.0600 
    146 H146        1.5616  -22.3182  -42.7133 H         1 UNK         0.0600 
    147 H147        1.6698  -23.3500  -44.1312 H         1 UNK         0.0600 
    148 H148        2.1414  -21.6600  -44.2416 H         1 UNK         0.0600 
    149 H149        0.3995  -20.1529  -43.1880 H         1 UNK         0.3000 
    150 H150       -2.5991  -18.2249  -43.5343 H         1 UNK         0.0600 
    151 H151       -2.7746  -19.2957  -41.3097 H         1 UNK         0.0600 
    152 H152       -2.0220  -17.7140  -41.1739 H         1 UNK         0.0600 
    153 H153       -1.0373  -19.1733  -41.0749 H         1 UNK         0.0600 
    154 H154        0.1833  -17.7792  -42.7496 H         1 UNK         0.3000 
    155 H155        1.2520  -16.6716  -45.9192 H         1 UNK         0.0600 
    156 H156        0.0033  -14.6465  -45.1707 H         1 UNK         0.0600 
    157 H157        1.7191  -14.5181  -44.8209 H         1 UNK         0.0600 
    158 H158        0.5884  -14.8862  -43.5264 H         1 UNK         0.0600 
    159 H159        2.4644  -16.4908  -43.3475 H         1 UNK         0.3000 
    160 H160        3.8489  -19.8226  -43.3379 H         1 UNK         0.0600 
    161 H161        5.8740  -18.4571  -43.0101 H         1 UNK         0.0600 
    162 H162        5.0178  -16.9973  -43.4993 H         1 UNK         0.0600 
    163 H163        5.3203  -18.2778  -44.6688 H         1 UNK         0.0600 
    164 H164        4.0465  -17.8205  -41.3651 H         1 UNK         0.3000 
    165 H165        1.1718  -18.6450  -39.4353 H         1 UNK         0.0600 
    166 H166        4.1368  -19.2656  -38.9873 H         1 UNK         0.0600 
    167 H167        2.9263  -19.0627  -37.7214 H         1 UNK         0.0600 
    168 H168        2.8000  -20.3960  -38.8585 H         1 UNK         0.0600 
    169 H169        1.6019  -16.5136  -39.2862 H         1 UNK         0.3000 
    170 H170        2.3895  -14.5465  -39.4671 H         1 UNK         0.0600 
    171 H171        3.5536  -14.8680  -37.2688 H         1 UNK         0.0600 
    172 H172        5.1027  -14.5476  -38.0390 H         1 UNK         0.0600 
    173 H173        3.8775  -13.2813  -37.9483 H         1 UNK         0.0600 
    174 H174        4.7497  -13.3554  -40.2470 H         1 UNK         0.3000 
    175 H175        5.5389  -12.9661  -42.2962 H         1 UNK         0.0600 
    176 H176        4.0826  -14.2779  -44.6661 H         1 UNK         0.0600 
    177 H177        5.4648  -13.1948  -44.7873 H         1 UNK         0.0600 
    178 H178        5.6446  -14.7586  -44.0115 H         1 UNK         0.0600 
    179 H179        2.7337  -12.3713  -43.0696 H         1 UNK         0.3000 
    180 H180        2.2739   -9.9581  -42.3188 H         1 UNK         0.0600 
    181 H181        4.0999   -8.1918  -44.0292 H         1 UNK         0.0600 
    182 H182        3.9808   -8.1543  -42.2733 H         1 UNK         0.0600 
    183 H183        2.6010   -7.6847  -43.2506 H         1 UNK         0.0600 
    184 H184        2.3781   -9.4765  -45.1823 H         1 UNK         0.3000 
    185 H185        0.4278  -10.0610  -46.3100 H         1 UNK         0.0600 
    186 H186        2.4010  -11.3913  -47.0569 H         1 UNK         0.0600 
    187 H187        1.6000  -12.8887  -46.6000 H         1 UNK         0.0600 
    188 H188        0.9594  -11.9097  -47.9159 H         1 UNK         0.0600 
    189 H189       -0.7156  -12.6928  -45.4664 H         1 UNK         0.3000 
    190 H190       -1.8956  -19.6915  -46.4601 H         1 UNK         0.3000 
    191 H191       -3.9513  -19.3258  -48.4656 H         1 UNK         0.0600 
    192 H192       -4.0803  -18.8873  -45.4372 H         1 UNK         0.0600 
    193 H193       -3.5727  -17.6875  -46.6202 H         1 UNK         0.0600 
    194 H194       -5.2219  -18.2875  -46.6316 H         1 UNK         0.0600 
    195 H195       -3.4849  -21.5087  -45.6918 H         1 UNK         0.3000 
    196 H196       -5.9335  -22.7830  -45.5360 H         1 UNK         0.0600 
    197 H197       -4.1310  -23.0340  -43.8711 H         1 UNK         0.0600 
    198 H198       -3.1331  -23.9135  -45.0264 H         1 UNK         0.0600 
    199 H199       -4.6328  -24.6203  -44.4376 H         1 UNK         0.0600 
    200 H200       -7.0503  -23.6112  -47.1617 H         1 UNK         0.3000 
    201 H201       -7.7565  -24.6760  -48.9626 H         1 UNK         0.0600 
    202 H202       -6.9630  -26.9797  -49.3794 H         1 UNK         0.0600 
    203 H203       -7.0882  -26.7065  -47.6511 H         1 UNK         0.0600 
    204 H204       -5.5089  -26.6958  -48.4323 H         1 UNK         0.0600 
    205 H205       -5.6728  -22.5903  -49.2957 H         1 UNK         0.3000 
    206 H206       -4.2810  -21.6331  -50.6986 H         1 UNK         0.0600 
    207 H207       -6.2126  -21.6785  -52.2499 H         1 UNK         0.0600 
    208 H208       -5.7115  -23.2432  -52.8773 H         1 UNK         0.0600 
    209 H209       -4.7098  -21.8237  -53.1482 H         1 UNK         0.0600 
    210 H210       -3.1977  -23.7417  -49.3040 H         1 UNK         0.3000 
    211 H211       -1.4100  -24.9971  -49.0485 H         1 UNK         0.0600 
    212 H212       -0.1912  -23.1208  -50.2736 H         1 UNK         0.0600 
    213 H213        0.5813  -24.6923  -50.4278 H         1 UNK         0.0600 
    214 H214       -0.3526  -24.0354  -51.7616 H         1 UNK         0.0600 
    215 H215       -3.7249  -26.1468  -50.0090 H         1 UNK         0.3000 
    216 H216       -4.7054  -27.9212  -50.9048 H         1 UNK         0.0600 
    217 H217       -3.4752  -30.0218  -51.2812 H         1 UNK         0.0600 
    218 H218       -1.9305  -29.1875  -51.2250 H         1 UNK         0.0600 
    219 H219       -2.9361  -29.2856  -49.7803 H         1 UNK         0.0600 
    220 H220       -4.6281  -25.8497  -52.3933 H         1 UNK         0.3000 
    221 H221       -4.9494  -24.9201  -54.3346 H         1 UNK         0.0600 
    222 H222       -4.7850  -27.6832  -55.6386 H         1 UNK         0.0600 
    223 H223       -6.2303  -26.9894  -54.9027 H         1 UNK         0.0600 
    224 H224       -5.5194  -26.2429  -56.3234 H         1 UNK         0.0600 
    225 H225       -1.9487  -26.1291  -53.6401 H         1 UNK         0.3000 
    226 H226       -0.5872  -25.8638  -56.1293 H         1 UNK         0.0600 
    227 H227        0.2477  -27.1992  -54.1693 H         1 UNK         0.0600 
    228 H228        1.4474  -26.0690  -54.7796 H         1 UNK         0.0600 
    229 H229        0.5725  -25.6968  -53.3038 H         1 UNK         0.0600 
    230 H230       -1.5636  -23.4223  -53.7685 H         1 UNK         0.3000 
    231 H231        0.2970  -21.3778  -54.7131 H         1 UNK         0.0600 
    232 H232       -0.6316  -21.3909  -52.3755 H         1 UNK         0.0600 
    233 H233       -2.2439  -21.1060  -53.0315 H         1 UNK         0.0600 
    234 H234       -0.9875  -19.8980  -53.2353 H         1 UNK         0.0600 
    235 H235       -2.6791  -22.6836  -55.8362 H         1 UNK         0.3000 
    236 H236       -4.1278  -22.2682  -57.4321 H         1 UNK         0.0600 
    237 H237       -2.0372  -22.2600  -58.8083 H         1 UNK         0.0600 
    238 H238       -3.3024  -21.2772  -59.5248 H         1 UNK         0.0600 
    239 H239       -1.9648  -20.5022  -58.6875 H         1 UNK         0.0600 
    240 H240       -4.2691  -20.4809  -55.1138 H         1 UNK         0.3000 
    241 H241       -5.2297  -17.9078  -55.9200 H         1 UNK         0.0600 
    242 H242       -8.7156  -18.2358  -56.5600 H         1 UNK         0.3800 
    243 H243       -7.3904  -17.1357  -56.3112 H         1 UNK         0.3800 
    244 H244       -6.2694  -17.8550  -53.6063 H         1 UNK         0.0800 
    245 H245       -5.7764  -19.5114  -53.3738 H         1 UNK         0.0800 
    246 H246       -3.5148  -19.6594  -51.6380 H         1 UNK         0.0800 
    247 H247       -4.9119  -18.6955  -51.2302 H         1 UNK         0.0800 
@<TRIPOS>BOND
     1    1    2 1    
     2    1  127 1    
     3    1  128 1    
     4    1  129 1    
     5    2    3 2    
     6    2    4 am   BACKBONE|DICT|INTERRES
     7    4    5 1    
     8    4  130 1    
     9    5    6 1    
    10    5   65 1    
    11    5  131 1    
    12    6    7 1    
    13    6  132 1    
    14    6  133 1    
    15    7    8 1    
    16    8    9 1    
    17    8  134 1    
    18    8  135 1    
    19    9   10 ar   
    20    9   14 ar   
    21   10   11 ar   
    22   10  136 1    
    23   11   12 ar   
    24   11  126 1    
    25   12   13 ar   
    26   12  137 1    
    27   13   14 ar   
    28   13   15 1    
    29   14  138 1    
    30   15   16 1    
    31   15  139 1    
    32   15  140 1    
    33   16   17 1    
    34   17   18 1    
    35   17  141 1    
    36   17  142 1    
    37   18   19 1    
    38   18   67 1    
    39   18  143 1    
    40   19   20 am   BACKBONE|DICT|INTERRES
    41   19  144 1    
    42   20   21 2    
    43   20   22 1    
    44   22   23 1    
    45   22   24 1    
    46   22  145 1    
    47   23  146 1    
    48   23  147 1    
    49   23  148 1    
    50   24   25 am   BACKBONE|DICT|INTERRES
    51   24  149 1    
    52   25   26 2    
    53   25   27 1    
    54   27   28 1    
    55   27   29 1    
    56   27  150 1    
    57   28  151 1    
    58   28  152 1    
    59   28  153 1    
    60   29   30 am   BACKBONE|DICT|INTERRES
    61   29  154 1    
    62   30   31 2    
    63   30   32 1    
    64   32   33 1    
    65   32   34 1    
    66   32  155 1    
    67   33  156 1    
    68   33  157 1    
    69   33  158 1    
    70   34   35 am   BACKBONE|DICT|INTERRES
    71   34  159 1    
    72   35   36 2    
    73   35   37 1    
    74   37   38 1    
    75   37   39 1    
    76   37  160 1    
    77   38  161 1    
    78   38  162 1    
    79   38  163 1    
    80   39   40 am   BACKBONE|DICT|INTERRES
    81   39  164 1    
    82   40   41 2    
    83   40   42 1    
    84   42   43 1    
    85   42   44 1    
    86   42  165 1    
    87   43  166 1    
    88   43  167 1    
    89   43  168 1    
    90   44   45 am   BACKBONE|DICT|INTERRES
    91   44  169 1    
    92   45   46 2    
    93   45   47 1    
    94   47   48 1    
    95   47   49 1    
    96   47  170 1    
    97   48  171 1    
    98   48  172 1    
    99   48  173 1    
   100   49   50 am   BACKBONE|DICT|INTERRES
   101   49  174 1    
   102   50   51 2    
   103   50   52 1    
   104   52   53 1    
   105   52   54 1    
   106   52  175 1    
   107   53  176 1    
   108   53  177 1    
   109   53  178 1    
   110   54   55 am   BACKBONE|DICT|INTERRES
   111   54  179 1    
   112   55   56 2    
   113   55   57 1    
   114   57   58 1    
   115   57   59 1    
   116   57  180 1    
   117   58  181 1    
   118   58  182 1    
   119   58  183 1    
   120   59   60 am   BACKBONE|DICT|INTERRES
   121   59  184 1    
   122   60   61 2    
   123   60   62 1    
   124   62   63 1    
   125   62   64 1    
   126   62  185 1    
   127   63  186 1    
   128   63  187 1    
   129   63  188 1    
   130   64   65 am   BACKBONE|DICT|INTERRES
   131   64  189 1    
   132   65   66 2    
   133   67   68 2    
   134   67   69 am   BACKBONE|DICT|INTERRES
   135   69   70 1    
   136   69  190 1    
   137   70   71 1    
   138   70   72 1    
   139   70  191 1    
   140   71  192 1    
   141   71  193 1    
   142   71  194 1    
   143   72   73 2    
   144   72   74 am   BACKBONE|DICT|INTERRES
   145   74   75 1    
   146   74  195 1    
   147   75   76 1    
   148   75   77 1    
   149   75  196 1    
   150   76  197 1    
   151   76  198 1    
   152   76  199 1    
   153   77   78 2    
   154   77   79 am   BACKBONE|DICT|INTERRES
   155   79   80 1    
   156   79  200 1    
   157   80   81 1    
   158   80   82 1    
   159   80  201 1    
   160   81  202 1    
   161   81  203 1    
   162   81  204 1    
   163   82   83 2    
   164   82   84 am   BACKBONE|DICT|INTERRES
   165   84   85 1    
   166   84  205 1    
   167   85   86 1    
   168   85   87 1    
   169   85  206 1    
   170   86  207 1    
   171   86  208 1    
   172   86  209 1    
   173   87   88 2    
   174   87   89 am   BACKBONE|DICT|INTERRES
   175   89   90 1    
   176   89  210 1    
   177   90   91 1    
   178   90   92 1    
   179   90  211 1    
   180   91  212 1    
   181   91  213 1    
   182   91  214 1    
   183   92   93 2    
   184   92   94 am   BACKBONE|DICT|INTERRES
   185   94   95 1    
   186   94  215 1    
   187   95   96 1    
   188   95   97 1    
   189   95  216 1    
   190   96  217 1    
   191   96  218 1    
   192   96  219 1    
   193   97   98 2    
   194   97   99 am   BACKBONE|DICT|INTERRES
   195   99  100 1    
   196   99  220 1    
   197  100  101 1    
   198  100  102 1    
   199  100  221 1    
   200  101  222 1    
   201  101  223 1    
   202  101  224 1    
   203  102  103 2    
   204  102  104 am   BACKBONE|DICT|INTERRES
   205  104  105 1    
   206  104  225 1    
   207  105  106 1    
   208  105  107 1    
   209  105  226 1    
   210  106  227 1    
   211  106  228 1    
   212  106  229 1    
   213  107  108 2    
   214  107  109 am   BACKBONE|DICT|INTERRES
   215  109  110 1    
   216  109  230 1    
   217  110  111 1    
   218  110  112 1    
   219  110  231 1    
   220  111  232 1    
   221  111  233 1    
   222  111  234 1    
   223  112  113 2    
   224  112  114 am   BACKBONE|DICT|INTERRES
   225  114  115 1    
   226  114  235 1    
   227  115  116 1    
   228  115  117 1    
   229  115  236 1    
   230  116  237 1    
   231  116  238 1    
   232  116  239 1    
   233  117  118 2    
   234  117  119 am   BACKBONE|DICT|INTERRES
   235  119  120 1    
   236  119  240 1    
   237  120  121 1    
   238  120  124 1    
   239  120  241 1    
   240  121  122 am   BACKBONE|DICT|INTERRES
   241  121  123 2    
   242  122  242 1    
   243  122  243 1    
   244  124  125 1    
   245  124  244 1    
   246  124  245 1    
   247  125  126 1    
   248  126  246 1    
   249  126  247 1    
@<TRIPOS>SUBSTRUCTURE
     1 UNK         1 GROUP             0       ****    0 ROOT    
