@<TRIPOS>MOLECULE
3R540
247   249    1
SMALL
USER_CHARGES


@<TRIPOS>ATOM
      1 CA          0.0084  -14.6476  -39.3609 C.3       0 UNK        -0.1800 
      2 C           0.1083  -14.6191  -40.8798 C.2       0 UNK         0.5000 
      3 O           0.9184  -15.3484  -41.4487 O.2       0 UNK        -0.5000 
      4 N          -0.7185  -13.7863  -41.5266 N.am      1 UNK        -0.5000 
      5 CA         -0.7792  -13.5457  -42.9746 C.3       1 UNK         0.1400 
      6 C6         -1.0279  -14.8428  -43.8004 C.3       23 UNK        -0.0398 
      7 S7         -2.0332  -14.5394  -45.2903 S.3       23 UNK        -0.2404 
      8 C8         -3.7133  -14.5967  -44.5943 C.3       23 UNK        -0.0205 
      9 C9         -4.3158  -15.9924  -44.6413 C.ar      23 UNK        -0.0193 
     10 C10        -4.9426  -16.4313  -45.8099 C.ar      23 UNK        -0.1150 
     11 C11        -5.5722  -17.6769  -45.8538 C.ar      23 UNK        -0.0193 
     12 C12        -5.5759  -18.4860  -44.7162 C.ar      23 UNK        -0.1150 
     13 C13        -4.9402  -18.0677  -43.5425 C.ar      23 UNK        -0.0193 
     14 C14        -4.3048  -16.8207  -43.5134 C.ar      23 UNK        -0.1150 
     15 C15        -4.9987  -18.9329  -42.2892 C.3       23 UNK        -0.0205 
     16 S16        -3.5888  -20.0793  -42.1453 S.3       23 UNK        -0.2404 
     17 C17        -3.9117  -21.2628  -43.4990 C.3       23 UNK        -0.0398 
     18 CA         -2.8506  -21.1230  -44.6273 C.3       11 UNK         0.1400 
     19 N          -1.5130  -21.5139  -44.1557 N.am      11 UNK        -0.5000 
     20 C          -1.1069  -22.7651  -43.9004 C.2       10 UNK         0.5000 
     21 O          -1.7470  -23.7635  -44.2374 O.2       10 UNK        -0.5000 
     22 CA          0.2180  -22.9289  -43.1310 C.3       10 UNK         0.1400 
     23 CB          0.6711  -24.4065  -43.0519 C.3       10 UNK        -0.1800 
     24 N           1.2808  -22.0733  -43.6707 N.am      10 UNK        -0.5000 
     25 C           2.4294  -21.8023  -43.0319 C.2       9 UNK         0.5000 
     26 O           2.6844  -22.1875  -41.8900 O.2       9 UNK        -0.5000 
     27 CA          3.4732  -20.9576  -43.7844 C.3       9 UNK         0.1400 
     28 CB          4.1100  -21.7432  -44.9402 C.3       9 UNK        -0.1800 
     29 N           2.9071  -19.7050  -44.2801 N.am      9 UNK        -0.5000 
     30 C           2.6984  -18.6309  -43.5025 C.2       8 UNK         0.5000 
     31 O           3.0182  -18.5844  -42.3140 O.2       8 UNK        -0.5000 
     32 CA          2.0225  -17.3993  -44.1389 C.3       8 UNK         0.1400 
     33 CB          3.0617  -16.3275  -44.4958 C.3       8 UNK        -0.1800 
     34 N           1.2220  -17.7058  -45.3239 N.am      8 UNK        -0.5000 
     35 C           0.1098  -18.4530  -45.3041 C.2       7 UNK         0.5000 
     36 O          -0.3925  -18.8837  -44.2666 O.2       7 UNK        -0.5000 
     37 CA         -0.5237  -18.8365  -46.6566 C.3       7 UNK         0.1400 
     38 CB         -1.7582  -17.9722  -46.9395 C.3       7 UNK        -0.1800 
     39 N           0.3717  -18.7507  -47.8084 N.am      7 UNK        -0.5000 
     40 C           1.5440  -19.3817  -47.9630 C.2       6 UNK         0.5000 
     41 O           2.0263  -20.1429  -47.1251 O.2       6 UNK        -0.5000 
     42 CA          2.3355  -19.0433  -49.2421 C.3       6 UNK         0.1400 
     43 CB          2.0916  -20.1033  -50.3247 C.3       6 UNK        -0.1800 
     44 N           2.0003  -17.7168  -49.7749 N.am      6 UNK        -0.5000 
     45 C           2.2796  -16.5673  -49.1445 C.2       5 UNK         0.5000 
     46 O           2.9072  -16.5088  -48.0845 O.2       5 UNK        -0.5000 
     47 CA          1.6862  -15.2901  -49.7564 C.3       5 UNK         0.1400 
     48 CB          0.3074  -15.0027  -49.1381 C.3       5 UNK        -0.1800 
     49 N           2.5660  -14.1553  -49.4960 N.am      5 UNK        -0.5000 
     50 C           3.5401  -13.7459  -50.3202 C.2       4 UNK         0.5000 
     51 O           3.7474  -14.2441  -51.4276 O.2       4 UNK        -0.5000 
     52 CA          4.4349  -12.5820  -49.8452 C.3       4 UNK         0.1400 
     53 CB          3.9612  -11.2562  -50.4610 C.3       4 UNK        -0.1800 
     54 N           4.4715  -12.4376  -48.3905 N.am      4 UNK        -0.5000 
     55 C           5.0897  -13.2787  -47.5506 C.2       3 UNK         0.5000 
     56 O           5.7988  -14.2139  -47.9233 O.2       3 UNK        -0.5000 
     57 CA          4.8799  -13.0407  -46.0400 C.3       3 UNK         0.1400 
     58 CB          6.1369  -12.4172  -45.4137 C.3       3 UNK        -0.1800 
     59 N           3.7199  -12.2046  -45.7030 N.am      3 UNK        -0.5000 
     60 C           2.4433  -12.5239  -45.9505 C.2       2 UNK         0.5000 
     61 O           2.0974  -13.5262  -46.5763 O.2       2 UNK        -0.5000 
     62 CA          1.3710  -11.5405  -45.4595 C.3       2 UNK         0.1400 
     63 CB          0.7523  -10.7848  -46.6460 C.3       2 UNK        -0.1800 
     64 N           0.3186  -12.2646  -44.7517 N.am      2 UNK        -0.5000 
     65 C           0.4209  -12.7171  -43.4964 C.2       1 UNK         0.5000 
     66 O           1.3870  -12.4687  -42.7699 O.2       1 UNK        -0.5000 
     67 C          -3.2326  -21.7964  -45.9699 C.2       11 UNK         0.5000 
     68 O          -2.3847  -21.8811  -46.8608 O.2       11 UNK        -0.5000 
     69 N          -4.4833  -22.2619  -46.1105 N.am      12 UNK        -0.5000 
     70 CA         -5.0297  -22.8533  -47.3351 C.3       12 UNK         0.1400 
     71 CB         -6.5295  -23.1176  -47.1430 C.3       12 UNK        -0.1800 
     72 C          -4.3106  -24.1364  -47.7984 C.2       12 UNK         0.5000 
     73 O          -4.2973  -24.4196  -48.9982 O.2       12 UNK        -0.5000 
     74 N          -3.7135  -24.8750  -46.8513 N.am      13 UNK        -0.5000 
     75 CA         -2.9102  -26.0665  -47.1189 C.3       13 UNK         0.1400 
     76 CB         -2.6860  -26.8499  -45.8167 C.3       13 UNK        -0.1800 
     77 C          -1.5737  -25.7094  -47.7894 C.2       13 UNK         0.5000 
     78 O          -1.2216  -26.3202  -48.7988 O.2       13 UNK        -0.5000 
     79 N          -0.8816  -24.6902  -47.2584 N.am      14 UNK        -0.5000 
     80 CA          0.3476  -24.1469  -47.8460 C.3       14 UNK         0.1400 
     81 CB          1.0385  -23.2101  -46.8552 C.3       14 UNK        -0.1800 
     82 C           0.0972  -23.4184  -49.1762 C.2       14 UNK         0.5000 
     83 O           0.9390  -23.4820  -50.0715 O.2       14 UNK        -0.5000 
     84 N          -1.0829  -22.7972  -49.3026 N.am      15 UNK        -0.5000 
     85 CA         -1.5959  -22.2132  -50.5410 C.3       15 UNK         0.1400 
     86 CB         -2.7766  -21.2872  -50.2143 C.3       15 UNK        -0.1800 
     87 C          -1.9999  -23.2589  -51.6037 C.2       15 UNK         0.5000 
     88 O          -2.4171  -22.8600  -52.6898 O.2       15 UNK        -0.5000 
     89 N          -1.8867  -24.5593  -51.2899 N.am      16 UNK        -0.5000 
     90 CA         -2.1473  -25.7125  -52.1552 C.3       16 UNK         0.1400 
     91 CB         -1.1406  -25.7551  -53.3242 C.3       16 UNK        -0.1800 
     92 C          -3.6170  -25.7809  -52.6092 C.2       16 UNK         0.5000 
     93 O          -3.8942  -25.8949  -53.8042 O.2       16 UNK        -0.5000 
     94 N          -4.5268  -25.6863  -51.6280 N.am      17 UNK        -0.5000 
     95 CA         -5.9840  -25.6243  -51.7788 C.3       17 UNK         0.1400 
     96 CB         -6.5479  -26.9061  -52.4285 C.3       17 UNK        -0.1800 
     97 C          -6.4258  -24.3252  -52.4806 C.2       17 UNK         0.5000 
     98 O          -7.2837  -24.3502  -53.3648 O.2       17 UNK        -0.5000 
     99 N          -5.8174  -23.2133  -52.0441 N.am      18 UNK        -0.5000 
    100 CA        -6.0445  -21.8382  -52.4929 C.3       18 UNK         0.1400 
    101 CB        -7.4640  -21.3665  -52.1123 C.3       18 UNK        -0.1800 
    102 C         -5.7007  -21.6089  -53.9800 C.2       18 UNK         0.5000 
    103 O         -6.4945  -21.0256  -54.7217 O.2       18 UNK        -0.5000 
    104 N         -4.5139  -22.0747  -54.3839 N.am      19 UNK        -0.5000 
    105 CA        -3.9159  -21.8186  -55.6916 C.3       19 UNK         0.1400 
    106 CB        -3.2969  -23.1201  -56.2255 C.3       19 UNK        -0.1800 
    107 C         -2.8531  -20.7106  -55.5863 C.2       19 UNK         0.5000 
    108 O         -2.8568  -19.7819  -56.3953 O.2       19 UNK        -0.5000 
    109 N         -1.9709  -20.8191  -54.5849 N.am      20 UNK        -0.5000 
    110 CA        -0.9045  -19.8695  -54.2810 C.3       20 UNK         0.1400 
    111 CB         0.3639  -20.6538  -53.8979 C.3       20 UNK        -0.1800 
    112 C         -1.3808  -18.9291  -53.1623 C.2       20 UNK         0.5000 
    113 O         -1.0274  -19.1266  -51.9993 O.2       20 UNK        -0.5000 
    114 N         -2.2018  -17.9442  -53.5499 N.am      21 UNK        -0.5000 
    115 CA        -2.9848  -17.0411  -52.6964 C.3       21 UNK         0.1400 
    116 CB        -2.1174  -16.3416  -51.6245 C.3       21 UNK        -0.1800 
    117 C         -4.2289  -17.7446  -52.1127 C.2       21 UNK         0.5000 
    118 O         -4.5759  -18.8414  -52.5545 O.2       21 UNK        -0.5000 
    119 N         -4.9077  -17.0723  -51.1732 N.am      22 UNK        -0.5000 
    120 CA        -6.2238  -17.4397  -50.6156 C.3       22 UNK         0.1400 
    121 C         -7.3856  -17.3536  -51.6572 C.2       22 UNK         0.5000 
    122 N         -8.5994  -17.7524  -51.2974 N.am      22 UNK        -0.7600 
    123 O         -7.2226  -16.8757  -52.7781 O.2       22 UNK        -0.5000 
    124 C124       -6.2074  -18.7804  -49.8196 C.3       23 UNK        -0.0398 
    125 S125       -5.1098  -18.7227  -48.3686 S.3       23 UNK        -0.2404 
    126 C126       -6.2844  -18.1220  -47.1186 C.3       23 UNK        -0.0205 
    127 H127       -0.7555  -13.9636  -38.9903 H         1 UNK         0.0600 
    128 H128        0.9629  -14.3637  -38.9175 H         1 UNK         0.0600 
    129 H129       -0.2414  -15.6526  -39.0205 H         1 UNK         0.0600 
    130 H130       -1.3343  -13.2030  -40.9776 H         1 UNK         0.3000 
    131 H131       -1.6499  -12.8981  -43.0880 H         1 UNK         0.0600 
    132 H132       -1.5386  -15.5963  -43.1994 H         1 UNK         0.0800 
    133 H133       -0.0866  -15.3006  -44.1046 H         1 UNK         0.0800 
    134 H134       -4.3451  -13.9150  -45.1657 H         1 UNK         0.0800 
    135 H135       -3.7143  -14.2145  -43.5726 H         1 UNK         0.0800 
    136 H136       -4.9531  -15.7958  -46.6844 H         1 UNK         0.1150 
    137 H137       -6.0968  -19.4314  -44.7436 H         1 UNK         0.1150 
    138 H138       -3.8299  -16.4831  -42.6031 H         1 UNK         0.1150 
    139 H139       -5.0133  -18.2922  -41.4062 H         1 UNK         0.0800 
    140 H140       -5.9322  -19.4972  -42.2612 H         1 UNK         0.0800 
    141 H141       -4.9253  -21.0981  -43.8574 H         1 UNK         0.0800 
    142 H142       -3.9058  -22.2728  -43.0864 H         1 UNK         0.0800 
    143 H143       -2.7849  -20.0630  -44.8726 H         1 UNK         0.0600 
    144 H144       -0.9238  -20.7308  -43.8894 H         1 UNK         0.3000 
    145 H145        0.0075  -22.5925  -42.1138 H         1 UNK         0.0600 
    146 H146        1.5635  -24.5291  -42.4394 H         1 UNK         0.0600 
    147 H147       -0.1036  -25.0270  -42.5997 H         1 UNK         0.0600 
    148 H148        0.8832  -24.8223  -44.0359 H         1 UNK         0.0600 
    149 H149        1.1337  -21.6993  -44.5974 H         1 UNK         0.3000 
    150 H150        4.2750  -20.7228  -43.0806 H         1 UNK         0.0600 
    151 H151        4.5421  -22.6795  -44.5848 H         1 UNK         0.0600 
    152 H152        4.9112  -21.1715  -45.4086 H         1 UNK         0.0600 
    153 H153        3.3846  -21.9897  -45.7122 H         1 UNK         0.0600 
    154 H154        2.6137  -19.6860  -45.2518 H         1 UNK         0.3000 
    155 H155        1.3528  -16.9889  -43.3836 H         1 UNK         0.0600 
    156 H156        3.6826  -16.0787  -43.6343 H         1 UNK         0.0600 
    157 H157        2.5737  -15.4082  -44.8150 H         1 UNK         0.0600 
    158 H158        3.7225  -16.6560  -45.2989 H         1 UNK         0.0600 
    159 H159        1.5903  -17.3951  -46.2134 H         1 UNK         0.3000 
    160 H160       -0.8349  -19.8769  -46.5775 H         1 UNK         0.0600 
    161 H161       -2.2693  -18.3068  -47.8414 H         1 UNK         0.0600 
    162 H162       -1.4919  -16.9240  -47.0759 H         1 UNK         0.0600 
    163 H163       -2.4748  -18.0242  -46.1194 H         1 UNK         0.0600 
    164 H164        0.0687  -18.1493  -48.5589 H         1 UNK         0.3000 
    165 H165        3.3970  -19.0517  -48.9860 H         1 UNK         0.0600 
    166 H166        2.6774  -19.8990  -51.2208 H         1 UNK         0.0600 
    167 H167        2.3766  -21.0942  -49.9692 H         1 UNK         0.0600 
    168 H168        1.0416  -20.1484  -50.6123 H         1 UNK         0.0600 
    169 H169        1.4720  -17.6989  -50.6360 H         1 UNK         0.3000 
    170 H170        1.5604  -15.4303  -50.8322 H         1 UNK         0.0600 
    171 H171       -0.3851  -15.8229  -49.3236 H         1 UNK         0.0600 
    172 H172        0.3657  -14.8709  -48.0570 H         1 UNK         0.0600 
    173 H173       -0.1351  -14.1009  -49.5613 H         1 UNK         0.0600 
    174 H174        2.5152  -13.7728  -48.5572 H         1 UNK         0.3000 
    175 H175        5.4494  -12.7800  -50.1975 H         1 UNK         0.0600 
    176 H176        2.9534  -10.9978  -50.1333 H         1 UNK         0.0600 
    177 H177        4.6247  -10.4350  -50.1893 H         1 UNK         0.0600 
    178 H178        3.9474  -11.3142  -51.5502 H         1 UNK         0.0600 
    179 H179        3.9221  -11.6901  -47.9941 H         1 UNK         0.3000 
    180 H180        4.7229  -14.0203  -45.5842 H         1 UNK         0.0600 
    181 H181        6.3320  -11.4208  -45.8121 H         1 UNK         0.0600 
    182 H182        7.0184  -13.0284  -45.6122 H         1 UNK         0.0600 
    183 H183        6.0395  -12.3345  -44.3310 H         1 UNK         0.0600 
    184 H184        3.9195  -11.3538  -45.1966 H         1 UNK         0.3000 
    185 H185        1.8238  -10.8120  -44.7834 H         1 UNK         0.0600 
    186 H186       -0.0029  -10.0742  -46.3099 H         1 UNK         0.0600 
    187 H187        1.5115  -10.2196  -47.1882 H         1 UNK         0.0600 
    188 H188        0.2798  -11.4650  -47.3564 H         1 UNK         0.0600 
    189 H189       -0.4758  -12.5529  -45.3066 H         1 UNK         0.3000 
    190 H190       -5.1261  -22.1851  -45.3373 H         1 UNK         0.3000 
    191 H191       -4.9273  -22.1092  -48.1246 H         1 UNK         0.0600 
    192 H192       -6.9727  -23.5294  -48.0509 H         1 UNK         0.0600 
    193 H193       -7.0657  -22.1968  -46.9119 H         1 UNK         0.0600 
    194 H194       -6.7135  -23.8278  -46.3359 H         1 UNK         0.0600 
    195 H195       -3.7410  -24.5506  -45.8949 H         1 UNK         0.3000 
    196 H196       -3.4685  -26.7073  -47.8050 H         1 UNK         0.0600 
    197 H197       -2.1160  -27.7606  -46.0046 H         1 UNK         0.0600 
    198 H198       -3.6339  -27.1470  -45.3679 H         1 UNK         0.0600 
    199 H199       -2.1348  -26.2662  -45.0792 H         1 UNK         0.0600 
    200 H200       -1.2549  -24.2183  -46.4439 H         1 UNK         0.3000 
    201 H201        1.0241  -24.9798  -48.0496 H         1 UNK         0.0600 
    202 H202        0.3910  -22.3833  -46.5621 H         1 UNK         0.0600 
    203 H203        1.9353  -22.7847  -47.3056 H         1 UNK         0.0600 
    204 H204        1.3529  -23.7455  -45.9626 H         1 UNK         0.0600 
    205 H205       -1.6771  -22.7182  -48.4821 H         1 UNK         0.3000 
    206 H206       -0.8015  -21.6045  -50.9717 H         1 UNK         0.0600 
    207 H207       -2.5255  -20.5790  -49.4241 H         1 UNK         0.0600 
    208 H208       -3.0648  -20.7027  -51.0881 H         1 UNK         0.0600 
    209 H209       -3.6519  -21.8520  -49.9040 H         1 UNK         0.0600 
    210 H210       -1.5694  -24.7930  -50.3578 H         1 UNK         0.3000 
    211 H211       -1.9749  -26.5997  -51.5443 H         1 UNK         0.0600 
    212 H212       -0.1139  -25.7411  -52.9583 H         1 UNK         0.0600 
    213 H213       -1.2648  -24.9106  -54.0019 H         1 UNK         0.0600 
    214 H214       -1.2636  -26.6657  -53.9116 H         1 UNK         0.0600 
    215 H215       -4.1933  -25.5166  -50.6836 H         1 UNK         0.3000 
    216 H216       -6.3879  -25.5717  -50.7665 H         1 UNK         0.0600 
    217 H217       -7.6379  -26.9099  -52.3938 H         1 UNK         0.0600 
    218 H218       -6.2039  -27.7978  -51.9046 H         1 UNK         0.0600 
    219 H219       -6.2578  -26.9978  -53.4753 H         1 UNK         0.0600 
    220 H220       -5.1121  -23.3302  -51.3305 H         1 UNK         0.3000 
    221 H221       -5.3346  -21.2344  -51.9310 H         1 UNK         0.0600 
    222 H222       -8.2350  -21.9215  -52.6471 H         1 UNK         0.0600 
    223 H223       -7.6462  -21.4819  -51.0439 H         1 UNK         0.0600 
    224 H224       -7.5986  -20.3122  -52.3536 H         1 UNK         0.0600 
    225 H225       -3.9070  -22.5236  -53.7022 H         1 UNK         0.3000 
    226 H226       -4.6762  -21.4914  -56.4037 H         1 UNK         0.0600 
    227 H227       -2.8398  -22.9638  -57.2033 H         1 UNK         0.0600 
    228 H228       -2.5256  -23.5056  -55.5580 H         1 UNK         0.0600 
    229 H229       -4.0539  -23.8964  -56.3381 H         1 UNK         0.0600 
    230 H230       -2.0797  -21.5867  -53.9258 H         1 UNK         0.3000 
    231 H231       -0.6669  -19.2639  -55.1581 H         1 UNK         0.0600 
    232 H232        0.7217  -21.2507  -54.7368 H         1 UNK         0.0600 
    233 H233        0.1906  -21.3309  -53.0621 H         1 UNK         0.0600 
    234 H234        1.1703  -19.9774  -53.6120 H         1 UNK         0.0600 
    235 H235       -2.4600  -17.9259  -54.5272 H         1 UNK         0.3000 
    236 H236       -3.3623  -16.2673  -53.3660 H         1 UNK         0.0600 
    237 H237       -1.1738  -15.9911  -52.0429 H         1 UNK         0.0600 
    238 H238       -2.6259  -15.4703  -51.2114 H         1 UNK         0.0600 
    239 H239       -1.8907  -17.0083  -50.7921 H         1 UNK         0.0600 
    240 H240       -4.5569  -16.1716  -50.8844 H         1 UNK         0.3000 
    241 H241       -6.4513  -16.6434  -49.9065 H         1 UNK         0.0600 
    242 H242       -8.8018  -18.1018  -50.3747 H         1 UNK         0.3800 
    243 H243       -9.3496  -17.6731  -51.9664 H         1 UNK         0.3800 
    244 H244       -7.2028  -19.0588  -49.4733 H         1 UNK         0.0800 
    245 H245       -5.8787  -19.6004  -50.4529 H         1 UNK         0.0800 
    246 H246       -6.8533  -17.2822  -47.5199 H         1 UNK         0.0800 
    247 H247       -7.0081  -18.9082  -46.8978 H         1 UNK         0.0800 
@<TRIPOS>BOND
     1    1    2 1    
     2    1  127 1    
     3    1  128 1    
     4    1  129 1    
     5    2    3 2    
     6    2    4 am   BACKBONE|DICT|INTERRES
     7    4    5 1    
     8    4  130 1    
     9    5    6 1    
    10    5   65 1    
    11    5  131 1    
    12    6    7 1    
    13    6  132 1    
    14    6  133 1    
    15    7    8 1    
    16    8    9 1    
    17    8  134 1    
    18    8  135 1    
    19    9   10 ar   
    20    9   14 ar   
    21   10   11 ar   
    22   10  136 1    
    23   11   12 ar   
    24   11  126 1    
    25   12   13 ar   
    26   12  137 1    
    27   13   14 ar   
    28   13   15 1    
    29   14  138 1    
    30   15   16 1    
    31   15  139 1    
    32   15  140 1    
    33   16   17 1    
    34   17   18 1    
    35   17  141 1    
    36   17  142 1    
    37   18   19 1    
    38   18   67 1    
    39   18  143 1    
    40   19   20 am   BACKBONE|DICT|INTERRES
    41   19  144 1    
    42   20   21 2    
    43   20   22 1    
    44   22   23 1    
    45   22   24 1    
    46   22  145 1    
    47   23  146 1    
    48   23  147 1    
    49   23  148 1    
    50   24   25 am   BACKBONE|DICT|INTERRES
    51   24  149 1    
    52   25   26 2    
    53   25   27 1    
    54   27   28 1    
    55   27   29 1    
    56   27  150 1    
    57   28  151 1    
    58   28  152 1    
    59   28  153 1    
    60   29   30 am   BACKBONE|DICT|INTERRES
    61   29  154 1    
    62   30   31 2    
    63   30   32 1    
    64   32   33 1    
    65   32   34 1    
    66   32  155 1    
    67   33  156 1    
    68   33  157 1    
    69   33  158 1    
    70   34   35 am   BACKBONE|DICT|INTERRES
    71   34  159 1    
    72   35   36 2    
    73   35   37 1    
    74   37   38 1    
    75   37   39 1    
    76   37  160 1    
    77   38  161 1    
    78   38  162 1    
    79   38  163 1    
    80   39   40 am   BACKBONE|DICT|INTERRES
    81   39  164 1    
    82   40   41 2    
    83   40   42 1    
    84   42   43 1    
    85   42   44 1    
    86   42  165 1    
    87   43  166 1    
    88   43  167 1    
    89   43  168 1    
    90   44   45 am   BACKBONE|DICT|INTERRES
    91   44  169 1    
    92   45   46 2    
    93   45   47 1    
    94   47   48 1    
    95   47   49 1    
    96   47  170 1    
    97   48  171 1    
    98   48  172 1    
    99   48  173 1    
   100   49   50 am   BACKBONE|DICT|INTERRES
   101   49  174 1    
   102   50   51 2    
   103   50   52 1    
   104   52   53 1    
   105   52   54 1    
   106   52  175 1    
   107   53  176 1    
   108   53  177 1    
   109   53  178 1    
   110   54   55 am   BACKBONE|DICT|INTERRES
   111   54  179 1    
   112   55   56 2    
   113   55   57 1    
   114   57   58 1    
   115   57   59 1    
   116   57  180 1    
   117   58  181 1    
   118   58  182 1    
   119   58  183 1    
   120   59   60 am   BACKBONE|DICT|INTERRES
   121   59  184 1    
   122   60   61 2    
   123   60   62 1    
   124   62   63 1    
   125   62   64 1    
   126   62  185 1    
   127   63  186 1    
   128   63  187 1    
   129   63  188 1    
   130   64   65 am   BACKBONE|DICT|INTERRES
   131   64  189 1    
   132   65   66 2    
   133   67   68 2    
   134   67   69 am   BACKBONE|DICT|INTERRES
   135   69   70 1    
   136   69  190 1    
   137   70   71 1    
   138   70   72 1    
   139   70  191 1    
   140   71  192 1    
   141   71  193 1    
   142   71  194 1    
   143   72   73 2    
   144   72   74 am   BACKBONE|DICT|INTERRES
   145   74   75 1    
   146   74  195 1    
   147   75   76 1    
   148   75   77 1    
   149   75  196 1    
   150   76  197 1    
   151   76  198 1    
   152   76  199 1    
   153   77   78 2    
   154   77   79 am   BACKBONE|DICT|INTERRES
   155   79   80 1    
   156   79  200 1    
   157   80   81 1    
   158   80   82 1    
   159   80  201 1    
   160   81  202 1    
   161   81  203 1    
   162   81  204 1    
   163   82   83 2    
   164   82   84 am   BACKBONE|DICT|INTERRES
   165   84   85 1    
   166   84  205 1    
   167   85   86 1    
   168   85   87 1    
   169   85  206 1    
   170   86  207 1    
   171   86  208 1    
   172   86  209 1    
   173   87   88 2    
   174   87   89 am   BACKBONE|DICT|INTERRES
   175   89   90 1    
   176   89  210 1    
   177   90   91 1    
   178   90   92 1    
   179   90  211 1    
   180   91  212 1    
   181   91  213 1    
   182   91  214 1    
   183   92   93 2    
   184   92   94 am   BACKBONE|DICT|INTERRES
   185   94   95 1    
   186   94  215 1    
   187   95   96 1    
   188   95   97 1    
   189   95  216 1    
   190   96  217 1    
   191   96  218 1    
   192   96  219 1    
   193   97   98 2    
   194   97   99 am   BACKBONE|DICT|INTERRES
   195   99  100 1    
   196   99  220 1    
   197  100  101 1    
   198  100  102 1    
   199  100  221 1    
   200  101  222 1    
   201  101  223 1    
   202  101  224 1    
   203  102  103 2    
   204  102  104 am   BACKBONE|DICT|INTERRES
   205  104  105 1    
   206  104  225 1    
   207  105  106 1    
   208  105  107 1    
   209  105  226 1    
   210  106  227 1    
   211  106  228 1    
   212  106  229 1    
   213  107  108 2    
   214  107  109 am   BACKBONE|DICT|INTERRES
   215  109  110 1    
   216  109  230 1    
   217  110  111 1    
   218  110  112 1    
   219  110  231 1    
   220  111  232 1    
   221  111  233 1    
   222  111  234 1    
   223  112  113 2    
   224  112  114 am   BACKBONE|DICT|INTERRES
   225  114  115 1    
   226  114  235 1    
   227  115  116 1    
   228  115  117 1    
   229  115  236 1    
   230  116  237 1    
   231  116  238 1    
   232  116  239 1    
   233  117  118 2    
   234  117  119 am   BACKBONE|DICT|INTERRES
   235  119  120 1    
   236  119  240 1    
   237  120  121 1    
   238  120  124 1    
   239  120  241 1    
   240  121  122 am   BACKBONE|DICT|INTERRES
   241  121  123 2    
   242  122  242 1    
   243  122  243 1    
   244  124  125 1    
   245  124  244 1    
   246  124  245 1    
   247  125  126 1    
   248  126  246 1    
   249  126  247 1    
@<TRIPOS>SUBSTRUCTURE
     1 UNK         1 GROUP             0       ****    0 ROOT    
