@<TRIPOS>MOLECULE
3R540
247   249    1
SMALL
USER_CHARGES


@<TRIPOS>ATOM
      1 CA          6.2853  -11.1708  -48.3539 C.3       0 UNK        -0.1800 
      2 C           5.4729  -12.3720  -47.8920 C.2       0 UNK         0.5000 
      3 O           5.4185  -12.6501  -46.6938 O.2       0 UNK        -0.5000 
      4 N           4.8365  -13.0788  -48.8362 N.am      1 UNK        -0.5000 
      5 CA          4.0219  -14.2774  -48.5946 C.3       1 UNK         0.1400 
      6 C6          3.5356  -14.9271  -49.9080 C.3       23 UNK        -0.0398 
      7 S7          4.8656  -15.5895  -50.9627 S.3       23 UNK        -0.2404 
      8 C8          3.9814  -15.8086  -52.5473 C.3       23 UNK        -0.0205 
      9 C9          2.6050  -16.4377  -52.3651 C.ar      23 UNK        -0.0193 
     10 C10         1.4569  -15.6409  -52.4311 C.ar      23 UNK        -0.1150 
     11 C11         0.1957  -16.1934  -52.1968 C.ar      23 UNK        -0.0193 
     12 C12         0.0833  -17.5558  -51.9149 C.ar      23 UNK        -0.1150 
     13 C13         1.2203  -18.3645  -51.8565 C.ar      23 UNK        -0.0193 
     14 C14         2.4799  -17.8017  -52.0848 C.ar      23 UNK        -0.1150 
     15 C15         1.0815  -19.8418  -51.5367 C.3       23 UNK        -0.0205 
     16 S16         0.8925  -20.1149  -49.7496 S.3       23 UNK        -0.2404 
     17 C17         0.7541  -21.9321  -49.7539 C.3       23 UNK        -0.0398 
     18 CA          0.5656  -22.5698  -48.3574 C.3       11 UNK         0.1400 
     19 N           1.6107  -22.1694  -47.4139 N.am      11 UNK        -0.5000 
     20 C           1.8824  -22.7915  -46.2612 C.2       10 UNK         0.5000 
     21 O           1.2626  -23.7813  -45.8687 O.2       10 UNK        -0.5000 
     22 CA          2.9817  -22.1874  -45.3609 C.3       10 UNK         0.1400 
     23 CB          3.6881  -20.9539  -45.9695 C.3       10 UNK        -0.1800 
     24 N           2.4622  -21.8668  -44.0262 N.am      10 UNK        -0.5000 
     25 C           1.4077  -21.0862  -43.7552 C.2       9 UNK         0.5000 
     26 O           0.7348  -20.5216  -44.6212 O.2       9 UNK        -0.5000 
     27 CA          1.0487  -20.9117  -42.2732 C.3       9 UNK         0.1400 
     28 CB          2.0123  -19.9414  -41.5718 C.3       9 UNK        -0.1800 
     29 N          -0.3124  -20.3947  -42.1712 N.am      9 UNK        -0.5000 
     30 C          -1.2436  -20.8347  -41.3183 C.2       8 UNK         0.5000 
     31 O          -1.0276  -21.6781  -40.4469 O.2       8 UNK        -0.5000 
     32 CA         -2.6356  -20.1972  -41.4507 C.3       8 UNK         0.1400 
     33 CB         -3.6116  -20.6150  -40.3335 C.3       8 UNK        -0.1800 
     34 N          -2.4978  -18.7441  -41.4750 N.am      8 UNK        -0.5000 
     35 C          -3.2985  -17.8996  -42.1328 C.2       7 UNK         0.5000 
     36 O          -4.2697  -18.2650  -42.7978 O.2       7 UNK        -0.5000 
     37 CA         -2.9795  -16.3958  -42.0254 C.3       7 UNK         0.1400 
     38 CB         -1.6856  -16.0736  -41.2488 C.3       7 UNK        -0.1800 
     39 N          -2.8665  -15.8440  -43.3702 N.am      7 UNK        -0.5000 
     40 C          -3.7734  -15.0655  -43.9748 C.2       6 UNK         0.5000 
     41 O          -4.8108  -14.6811  -43.4323 O.2       6 UNK        -0.5000 
     42 CA         -3.4775  -14.6200  -45.4219 C.3       6 UNK         0.1400 
     43 CB         -3.4229  -13.0863  -45.5216 C.3       6 UNK        -0.1800 
     44 N          -2.2251  -15.1870  -45.9347 N.am      6 UNK        -0.5000 
     45 C          -2.1576  -16.3276  -46.6366 C.2       5 UNK         0.5000 
     46 O          -3.1490  -16.9642  -46.9916 O.2       5 UNK        -0.5000 
     47 CA         -0.7601  -16.8667  -46.9965 C.3       5 UNK         0.1400 
     48 CB         -0.3380  -16.3896  -48.3952 C.3       5 UNK        -0.1800 
     49 N           0.2889  -16.5286  -46.0331 N.am      5 UNK        -0.5000 
     50 C           0.3553  -16.9693  -44.7684 C.2       4 UNK         0.5000 
     51 O          -0.5433  -17.6019  -44.2137 O.2       4 UNK        -0.5000 
     52 CA          1.6295  -16.6222  -43.9831 C.3       4 UNK         0.1400 
     53 CB          2.8239  -17.4520  -44.4795 C.3       4 UNK        -0.1800 
     54 N           1.9508  -15.2061  -44.1194 N.am      4 UNK        -0.5000 
     55 C           1.7949  -14.2852  -43.1597 C.2       3 UNK         0.5000 
     56 O           1.4208  -14.5429  -42.0153 O.2       3 UNK        -0.5000 
     57 CA          2.1026  -12.8200  -43.5357 C.3       3 UNK         0.1400 
     58 CB          3.5164  -12.4337  -43.0751 C.3       3 UNK        -0.1800 
     59 N           1.9784  -12.5305  -44.9662 N.am      3 UNK        -0.5000 
     60 C           0.8489  -12.6436  -45.6781 C.2       2 UNK         0.5000 
     61 O          -0.2280  -12.9976  -45.2018 O.2       2 UNK        -0.5000 
     62 CA          0.9522  -12.3862  -47.1916 C.3       2 UNK         0.1400 
     63 CB          0.6963  -10.9045  -47.5026 C.3       2 UNK        -0.1800 
     64 N           2.2240  -12.7937  -47.7987 N.am      2 UNK        -0.5000 
     65 C           2.7837  -14.0109  -47.7170 C.2       1 UNK         0.5000 
     66 O           2.3490  -14.9199  -47.0099 O.2       1 UNK        -0.5000 
     67 C          -0.8729  -22.4009  -47.8198 C.2       11 UNK         0.5000 
     68 O          -1.7793  -23.0212  -48.3715 O.2       11 UNK        -0.5000 
     69 N          -1.0869  -21.6094  -46.7575 N.am      12 UNK        -0.5000 
     70 CA         -2.3868  -21.5379  -46.0838 C.3       12 UNK         0.1400 
     71 CB         -2.5285  -20.2042  -45.3412 C.3       12 UNK        -0.1800 
     72 C          -2.6128  -22.7302  -45.1351 C.2       12 UNK         0.5000 
     73 O          -3.7624  -23.1083  -44.9124 O.2       12 UNK        -0.5000 
     74 N          -1.5252  -23.3152  -44.6130 N.am      13 UNK        -0.5000 
     75 CA         -1.5590  -24.5218  -43.7866 C.3       13 UNK         0.1400 
     76 CB         -0.3555  -24.5322  -42.8323 C.3       13 UNK        -0.1800 
     77 C          -1.5747  -25.7948  -44.6480 C.2       13 UNK         0.5000 
     78 O          -2.3188  -26.7273  -44.3414 O.2       13 UNK        -0.5000 
     79 N          -0.7585  -25.8132  -45.7107 N.am      14 UNK        -0.5000 
     80 CA         -0.6103  -26.9248  -46.6486 C.3       14 UNK         0.1400 
     81 CB          0.7097  -26.7584  -47.4203 C.3       14 UNK        -0.1800 
     82 C          -1.8261  -27.0443  -47.5873 C.2       14 UNK         0.5000 
     83 O          -1.7860  -26.5661  -48.7221 O.2       14 UNK        -0.5000 
     84 N          -2.8994  -27.6590  -47.0703 N.am      15 UNK        -0.5000 
     85 CA         -4.1585  -27.9977  -47.7489 C.3       15 UNK         0.1400 
     86 CB         -3.9068  -29.0557  -48.8437 C.3       15 UNK        -0.1800 
     87 C          -4.9473  -26.7814  -48.2825 C.2       15 UNK         0.5000 
     88 O          -5.7887  -26.9434  -49.1679 O.2       15 UNK        -0.5000 
     89 N          -4.6620  -25.5906  -47.7341 N.am      16 UNK        -0.5000 
     90 CA         -5.1985  -24.2834  -48.1236 C.3       16 UNK         0.1400 
     91 CB         -6.6942  -24.1719  -47.7631 C.3       16 UNK        -0.1800 
     92 C          -4.9032  -23.9152  -49.5938 C.2       16 UNK         0.5000 
     93 O          -5.7146  -23.2476  -50.2361 O.2       16 UNK        -0.5000 
     94 N          -3.7256  -24.3193  -50.0937 N.am      17 UNK        -0.5000 
     95 CA         -3.2051  -24.0128  -51.4298 C.3       17 UNK         0.1400 
     96 CB         -1.8360  -24.6857  -51.6022 C.3       17 UNK        -0.1800 
     97 C          -3.1139  -22.5056  -51.7464 C.2       17 UNK         0.5000 
     98 O          -3.2120  -22.1294  -52.9141 O.2       17 UNK        -0.5000 
     99 N          -3.0021  -21.6614  -50.7103 N.am      18 UNK        -0.5000 
    100 CA        -3.1017  -20.2008  -50.7922 C.3       18 UNK         0.1400 
    101 CB        -2.9308  -19.5934  -49.3924 C.3       18 UNK        -0.1800 
    102 C         -4.4146  -19.6974  -51.4308 C.2       18 UNK         0.5000 
    103 O         -4.4005  -18.6727  -52.1163 O.2       18 UNK        -0.5000 
    104 N         -5.5152  -20.4414  -51.2390 N.am      19 UNK        -0.5000 
    105 CA        -6.8242  -20.1528  -51.8297 C.3       19 UNK         0.1400 
    106 CB        -7.9087  -20.9463  -51.0852 C.3       19 UNK        -0.1800 
    107 C         -6.8838  -20.4439  -53.3426 C.2       19 UNK         0.5000 
    108 O         -7.7325  -19.8726  -54.0276 O.2       19 UNK        -0.5000 
    109 N         -5.9887  -21.3092  -53.8380 N.am      20 UNK        -0.5000 
    110 CA        -5.8131  -21.5877  -55.2618 C.3       20 UNK         0.1400 
    111 CB        -5.4049  -23.0576  -55.4504 C.3       20 UNK        -0.1800 
    112 C         -4.7688  -20.6440  -55.8824 C.2       20 UNK         0.5000 
    113 O         -4.9701  -20.1744  -57.0028 O.2       20 UNK        -0.5000 
    114 N         -3.6761  -20.3860  -55.1478 N.am      21 UNK        -0.5000 
    115 CA        -2.5657  -19.5294  -55.5657 C.3       21 UNK         0.1400 
    116 CB        -1.4009  -19.6846  -54.5767 C.3       21 UNK        -0.1800 
    117 C         -2.9640  -18.0497  -55.7110 C.2       21 UNK         0.5000 
    118 O         -2.6342  -17.4358  -56.7272 O.2       21 UNK        -0.5000 
    119 N         -3.6729  -17.5186  -54.7077 N.am      22 UNK        -0.5000 
    120 CA        -4.2035  -16.1455  -54.6860 C.3       22 UNK         0.1400 
    121 C         -5.7297  -16.1342  -54.4202 C.2       22 UNK         0.5000 
    122 N         -6.2327  -16.9515  -53.5040 N.am      22 UNK        -0.7600 
    123 O         -6.4653  -15.3799  -55.0509 O.2       22 UNK        -0.5000 
    124 C124       -3.4863  -15.2368  -53.6541 C.3       23 UNK        -0.0398 
    125 S125       -1.6815  -15.1301  -53.9143 S.3       23 UNK        -0.2404 
    126 C126       -1.0452  -15.3195  -52.2197 C.3       23 UNK        -0.0205 
    127 H127        7.3298  -11.2922  -48.0672 H         1 UNK         0.0600 
    128 H128        5.9065  -10.2607  -47.8887 H         1 UNK         0.0600 
    129 H129        6.2422  -11.0434  -49.4358 H         1 UNK         0.0600 
    130 H130        4.9387  -12.8109  -49.8050 H         1 UNK         0.3000 
    131 H131        4.6440  -14.9989  -48.0608 H         1 UNK         0.0600 
    132 H132        2.8640  -15.7615  -49.6913 H         1 UNK         0.0800 
    133 H133        2.9553  -14.2058  -50.4862 H         1 UNK         0.0800 
    134 H134        4.5841  -16.4321  -53.2092 H         1 UNK         0.0800 
    135 H135        3.8933  -14.8388  -53.0395 H         1 UNK         0.0800 
    136 H136        1.5443  -14.5842  -52.6416 H         1 UNK         0.1150 
    137 H137       -0.8902  -17.9833  -51.7254 H         1 UNK         0.1150 
    138 H138        3.3657  -18.4182  -52.0224 H         1 UNK         0.1150 
    139 H139        0.2178  -20.2525  -52.0613 H         1 UNK         0.0800 
    140 H140        1.9527  -20.3901  -51.8984 H         1 UNK         0.0800 
    141 H141        1.6636  -22.3322  -50.2043 H         1 UNK         0.0800 
    142 H142       -0.0561  -22.2217  -50.4248 H         1 UNK         0.0800 
    143 H143        0.6825  -23.6438  -48.5047 H         1 UNK         0.0600 
    144 H144        2.1223  -21.3316  -47.6516 H         1 UNK         0.3000 
    145 H145        3.7304  -22.9692  -45.2268 H         1 UNK         0.0600 
    146 H146        4.1843  -21.2065  -46.9074 H         1 UNK         0.0600 
    147 H147        2.9947  -20.1361  -46.1688 H         1 UNK         0.0600 
    148 H148        4.4563  -20.5743  -45.2957 H         1 UNK         0.0600 
    149 H149        2.9413  -22.3151  -43.2581 H         1 UNK         0.3000 
    150 H150        1.1232  -21.8913  -41.7976 H         1 UNK         0.0600 
    151 H151        3.0457  -20.2805  -41.6519 H         1 UNK         0.0600 
    152 H152        1.7797  -19.8597  -40.5099 H         1 UNK         0.0600 
    153 H153        1.9595  -18.9420  -42.0000 H         1 UNK         0.0600 
    154 H154       -0.5635  -19.7277  -42.8931 H         1 UNK         0.3000 
    155 H155       -3.0421  -20.5430  -42.4030 H         1 UNK         0.0600 
    156 H156       -3.2555  -20.3001  -39.3520 H         1 UNK         0.0600 
    157 H157       -3.7386  -21.6979  -40.3086 H         1 UNK         0.0600 
    158 H158       -4.5985  -20.1785  -40.4876 H         1 UNK         0.0600 
    159 H159       -1.7043  -18.3707  -40.9727 H         1 UNK         0.3000 
    160 H160       -3.8114  -15.9349  -41.4896 H         1 UNK         0.0600 
    161 H161       -0.8076  -16.5361  -41.7007 H         1 UNK         0.0600 
    162 H162       -1.7493  -16.4085  -40.2129 H         1 UNK         0.0600 
    163 H163       -1.5072  -14.9983  -41.2230 H         1 UNK         0.0600 
    164 H164       -2.0864  -16.1914  -43.9152 H         1 UNK         0.3000 
    165 H165       -4.3138  -14.9551  -46.0388 H         1 UNK         0.0600 
    166 H166       -3.1076  -12.7610  -46.5132 H         1 UNK         0.0600 
    167 H167       -4.4054  -12.6517  -45.3341 H         1 UNK         0.0600 
    168 H168       -2.7383  -12.6571  -44.7902 H         1 UNK         0.0600 
    169 H169       -1.3740  -14.6973  -45.6798 H         1 UNK         0.3000 
    170 H170       -0.8291  -17.9557  -47.0277 H         1 UNK         0.0600 
    171 H171       -1.0841  -16.6626  -49.1423 H         1 UNK         0.0600 
    172 H172       -0.2145  -15.3073  -48.4332 H         1 UNK         0.0600 
    173 H173        0.6037  -16.8464  -48.7011 H         1 UNK         0.0600 
    174 H174        1.0702  -15.9895  -46.4008 H         1 UNK         0.3000 
    175 H175        1.4520  -16.8738  -42.9363 H         1 UNK         0.0600 
    176 H176        3.0582  -17.2463  -45.5247 H         1 UNK         0.0600 
    177 H177        3.7172  -17.2449  -43.8902 H         1 UNK         0.0600 
    178 H178        2.6210  -18.5178  -44.3939 H         1 UNK         0.0600 
    179 H179        2.2313  -14.8994  -45.0450 H         1 UNK         0.3000 
    180 H180        1.3841  -12.1912  -43.0060 H         1 UNK         0.0600 
    181 H181        3.7132  -11.3757  -43.2492 H         1 UNK         0.0600 
    182 H182        4.2801  -13.0084  -43.6011 H         1 UNK         0.0600 
    183 H183        3.6443  -12.6156  -42.0072 H         1 UNK         0.0600 
    184 H184        2.8263  -12.2735  -45.4521 H         1 UNK         0.3000 
    185 H185        0.1653  -12.9724  -47.6699 H         1 UNK         0.0600 
    186 H186        0.6510  -10.7283  -48.5775 H         1 UNK         0.0600 
    187 H187       -0.2545  -10.5750  -47.0811 H         1 UNK         0.0600 
    188 H188        1.4782  -10.2662  -47.0892 H         1 UNK         0.0600 
    189 H189        2.6722  -12.1117  -48.3929 H         1 UNK         0.3000 
    190 H190       -0.3125  -21.1240  -46.3157 H         1 UNK         0.3000 
    191 H191       -3.1785  -21.5674  -46.8353 H         1 UNK         0.0600 
    192 H192       -3.5128  -20.1167  -44.8802 H         1 UNK         0.0600 
    193 H193       -2.4203  -19.3652  -46.0248 H         1 UNK         0.0600 
    194 H194       -1.7880  -20.0906  -44.5533 H         1 UNK         0.0600 
    195 H195       -0.6128  -22.9831  -44.8953 H         1 UNK         0.3000 
    196 H196       -2.4654  -24.5190  -43.1771 H         1 UNK         0.0600 
    197 H197        0.5931  -24.4751  -43.3665 H         1 UNK         0.0600 
    198 H198       -0.4023  -23.6961  -42.1378 H         1 UNK         0.0600 
    199 H199       -0.3401  -25.4440  -42.2340 H         1 UNK         0.0600 
    200 H200       -0.1413  -25.0192  -45.8598 H         1 UNK         0.3000 
    201 H201       -0.5367  -27.8521  -46.0764 H         1 UNK         0.0600 
    202 H202        1.5615  -26.7182  -46.7411 H         1 UNK         0.0600 
    203 H203        0.7174  -25.8489  -48.0185 H         1 UNK         0.0600 
    204 H204        0.8720  -27.5969  -48.0985 H         1 UNK         0.0600 
    205 H205       -2.8542  -27.9085  -46.0886 H         1 UNK         0.3000 
    206 H206       -4.7953  -28.4547  -46.9903 H         1 UNK         0.0600 
    207 H207       -3.3629  -29.9128  -48.4468 H         1 UNK         0.0600 
    208 H208       -4.8457  -29.4319  -49.2516 H         1 UNK         0.0600 
    209 H209       -3.3303  -28.6473  -49.6744 H         1 UNK         0.0600 
    210 H210       -3.9492  -25.5736  -47.0190 H         1 UNK         0.3000 
    211 H211       -4.6631  -23.5473  -47.5236 H         1 UNK         0.0600 
    212 H212       -7.0608  -23.1572  -47.9236 H         1 UNK         0.0600 
    213 H213       -6.8652  -24.4143  -46.7142 H         1 UNK         0.0600 
    214 H214       -7.3083  -24.8397  -48.3678 H         1 UNK         0.0600 
    215 H215       -3.0997  -24.8343  -49.4850 H         1 UNK         0.3000 
    216 H216       -3.8944  -24.4491  -52.1550 H         1 UNK         0.0600 
    217 H217       -1.1290  -24.3597  -50.8391 H         1 UNK         0.0600 
    218 H218       -1.4028  -24.4572  -52.5769 H         1 UNK         0.0600 
    219 H219       -1.9217  -25.7702  -51.5306 H         1 UNK         0.0600 
    220 H220       -2.8729  -22.0683  -49.7901 H         1 UNK         0.3000 
    221 H221       -2.2772  -19.8552  -51.4144 H         1 UNK         0.0600 
    222 H222       -1.9625  -19.8438  -48.9628 H         1 UNK         0.0600 
    223 H223       -3.7031  -19.9397  -48.7049 H         1 UNK         0.0600 
    224 H224       -2.9902  -18.5048  -49.4293 H         1 UNK         0.0600 
    225 H225       -5.4458  -21.3071  -50.7130 H         1 UNK         0.3000 
    226 H226       -7.0328  -19.0909  -51.6871 H         1 UNK         0.0600 
    227 H227       -7.8090  -22.0193  -51.2502 H         1 UNK         0.0600 
    228 H228       -7.8672  -20.7651  -50.0111 H         1 UNK         0.0600 
    229 H229       -8.9035  -20.6570  -51.4262 H         1 UNK         0.0600 
    230 H230       -5.3033  -21.7118  -53.2123 H         1 UNK         0.3000 
    231 H231       -6.7584  -21.4365  -55.7875 H         1 UNK         0.0600 
    232 H232       -4.4522  -23.2830  -54.9710 H         1 UNK         0.0600 
    233 H233       -5.3026  -23.2988  -56.5091 H         1 UNK         0.0600 
    234 H234       -6.1555  -23.7302  -55.0350 H         1 UNK         0.0600 
    235 H235       -3.5598  -20.8779  -54.2664 H         1 UNK         0.3000 
    236 H236       -2.2261  -19.8803  -56.5424 H         1 UNK         0.0600 
    237 H237       -1.6855  -19.3609  -53.5773 H         1 UNK         0.0600 
    238 H238       -1.0692  -20.7210  -54.5126 H         1 UNK         0.0600 
    239 H239       -0.5435  -19.0834  -54.8824 H         1 UNK         0.0600 
    240 H240       -3.9067  -18.0953  -53.9069 H         1 UNK         0.3000 
    241 H241       -4.0671  -15.6888  -55.6682 H         1 UNK         0.0600 
    242 H242       -7.2274  -16.9567  -53.3459 H         1 UNK         0.3800 
    243 H243       -5.6265  -17.5512  -52.9526 H         1 UNK         0.3800 
    244 H244       -3.6984  -15.5923  -52.6451 H         1 UNK         0.0800 
    245 H245       -3.8845  -14.2218  -53.7046 H         1 UNK         0.0800 
    246 H246       -0.8182  -14.3340  -51.8106 H         1 UNK         0.0800 
    247 H247       -1.7986  -15.7527  -51.5612 H         1 UNK         0.0800 
@<TRIPOS>BOND
     1    1    2 1    
     2    1  127 1    
     3    1  128 1    
     4    1  129 1    
     5    2    3 2    
     6    2    4 am   BACKBONE|DICT|INTERRES
     7    4    5 1    
     8    4  130 1    
     9    5    6 1    
    10    5   65 1    
    11    5  131 1    
    12    6    7 1    
    13    6  132 1    
    14    6  133 1    
    15    7    8 1    
    16    8    9 1    
    17    8  134 1    
    18    8  135 1    
    19    9   10 ar   
    20    9   14 ar   
    21   10   11 ar   
    22   10  136 1    
    23   11   12 ar   
    24   11  126 1    
    25   12   13 ar   
    26   12  137 1    
    27   13   14 ar   
    28   13   15 1    
    29   14  138 1    
    30   15   16 1    
    31   15  139 1    
    32   15  140 1    
    33   16   17 1    
    34   17   18 1    
    35   17  141 1    
    36   17  142 1    
    37   18   19 1    
    38   18   67 1    
    39   18  143 1    
    40   19   20 am   BACKBONE|DICT|INTERRES
    41   19  144 1    
    42   20   21 2    
    43   20   22 1    
    44   22   23 1    
    45   22   24 1    
    46   22  145 1    
    47   23  146 1    
    48   23  147 1    
    49   23  148 1    
    50   24   25 am   BACKBONE|DICT|INTERRES
    51   24  149 1    
    52   25   26 2    
    53   25   27 1    
    54   27   28 1    
    55   27   29 1    
    56   27  150 1    
    57   28  151 1    
    58   28  152 1    
    59   28  153 1    
    60   29   30 am   BACKBONE|DICT|INTERRES
    61   29  154 1    
    62   30   31 2    
    63   30   32 1    
    64   32   33 1    
    65   32   34 1    
    66   32  155 1    
    67   33  156 1    
    68   33  157 1    
    69   33  158 1    
    70   34   35 am   BACKBONE|DICT|INTERRES
    71   34  159 1    
    72   35   36 2    
    73   35   37 1    
    74   37   38 1    
    75   37   39 1    
    76   37  160 1    
    77   38  161 1    
    78   38  162 1    
    79   38  163 1    
    80   39   40 am   BACKBONE|DICT|INTERRES
    81   39  164 1    
    82   40   41 2    
    83   40   42 1    
    84   42   43 1    
    85   42   44 1    
    86   42  165 1    
    87   43  166 1    
    88   43  167 1    
    89   43  168 1    
    90   44   45 am   BACKBONE|DICT|INTERRES
    91   44  169 1    
    92   45   46 2    
    93   45   47 1    
    94   47   48 1    
    95   47   49 1    
    96   47  170 1    
    97   48  171 1    
    98   48  172 1    
    99   48  173 1    
   100   49   50 am   BACKBONE|DICT|INTERRES
   101   49  174 1    
   102   50   51 2    
   103   50   52 1    
   104   52   53 1    
   105   52   54 1    
   106   52  175 1    
   107   53  176 1    
   108   53  177 1    
   109   53  178 1    
   110   54   55 am   BACKBONE|DICT|INTERRES
   111   54  179 1    
   112   55   56 2    
   113   55   57 1    
   114   57   58 1    
   115   57   59 1    
   116   57  180 1    
   117   58  181 1    
   118   58  182 1    
   119   58  183 1    
   120   59   60 am   BACKBONE|DICT|INTERRES
   121   59  184 1    
   122   60   61 2    
   123   60   62 1    
   124   62   63 1    
   125   62   64 1    
   126   62  185 1    
   127   63  186 1    
   128   63  187 1    
   129   63  188 1    
   130   64   65 am   BACKBONE|DICT|INTERRES
   131   64  189 1    
   132   65   66 2    
   133   67   68 2    
   134   67   69 am   BACKBONE|DICT|INTERRES
   135   69   70 1    
   136   69  190 1    
   137   70   71 1    
   138   70   72 1    
   139   70  191 1    
   140   71  192 1    
   141   71  193 1    
   142   71  194 1    
   143   72   73 2    
   144   72   74 am   BACKBONE|DICT|INTERRES
   145   74   75 1    
   146   74  195 1    
   147   75   76 1    
   148   75   77 1    
   149   75  196 1    
   150   76  197 1    
   151   76  198 1    
   152   76  199 1    
   153   77   78 2    
   154   77   79 am   BACKBONE|DICT|INTERRES
   155   79   80 1    
   156   79  200 1    
   157   80   81 1    
   158   80   82 1    
   159   80  201 1    
   160   81  202 1    
   161   81  203 1    
   162   81  204 1    
   163   82   83 2    
   164   82   84 am   BACKBONE|DICT|INTERRES
   165   84   85 1    
   166   84  205 1    
   167   85   86 1    
   168   85   87 1    
   169   85  206 1    
   170   86  207 1    
   171   86  208 1    
   172   86  209 1    
   173   87   88 2    
   174   87   89 am   BACKBONE|DICT|INTERRES
   175   89   90 1    
   176   89  210 1    
   177   90   91 1    
   178   90   92 1    
   179   90  211 1    
   180   91  212 1    
   181   91  213 1    
   182   91  214 1    
   183   92   93 2    
   184   92   94 am   BACKBONE|DICT|INTERRES
   185   94   95 1    
   186   94  215 1    
   187   95   96 1    
   188   95   97 1    
   189   95  216 1    
   190   96  217 1    
   191   96  218 1    
   192   96  219 1    
   193   97   98 2    
   194   97   99 am   BACKBONE|DICT|INTERRES
   195   99  100 1    
   196   99  220 1    
   197  100  101 1    
   198  100  102 1    
   199  100  221 1    
   200  101  222 1    
   201  101  223 1    
   202  101  224 1    
   203  102  103 2    
   204  102  104 am   BACKBONE|DICT|INTERRES
   205  104  105 1    
   206  104  225 1    
   207  105  106 1    
   208  105  107 1    
   209  105  226 1    
   210  106  227 1    
   211  106  228 1    
   212  106  229 1    
   213  107  108 2    
   214  107  109 am   BACKBONE|DICT|INTERRES
   215  109  110 1    
   216  109  230 1    
   217  110  111 1    
   218  110  112 1    
   219  110  231 1    
   220  111  232 1    
   221  111  233 1    
   222  111  234 1    
   223  112  113 2    
   224  112  114 am   BACKBONE|DICT|INTERRES
   225  114  115 1    
   226  114  235 1    
   227  115  116 1    
   228  115  117 1    
   229  115  236 1    
   230  116  237 1    
   231  116  238 1    
   232  116  239 1    
   233  117  118 2    
   234  117  119 am   BACKBONE|DICT|INTERRES
   235  119  120 1    
   236  119  240 1    
   237  120  121 1    
   238  120  124 1    
   239  120  241 1    
   240  121  122 am   BACKBONE|DICT|INTERRES
   241  121  123 2    
   242  122  242 1    
   243  122  243 1    
   244  124  125 1    
   245  124  244 1    
   246  124  245 1    
   247  125  126 1    
   248  126  246 1    
   249  126  247 1    
@<TRIPOS>SUBSTRUCTURE
     1 UNK         1 GROUP             0       ****    0 ROOT    
