@<TRIPOS>MOLECULE
3R540
247   249    1
SMALL
USER_CHARGES


@<TRIPOS>ATOM
      1 CA         -5.1955  -17.7569  -42.9229 C.3       0 UNK        -0.1800 
      2 C          -4.2084  -16.6627  -42.5481 C.2       0 UNK         0.5000 
      3 O          -3.5380  -16.7527  -41.5193 O.2       0 UNK        -0.5000 
      4 N          -4.1120  -15.6302  -43.3918 N.am      1 UNK        -0.5000 
      5 CA         -3.2482  -14.4473  -43.2693 C.3       1 UNK         0.1400 
      6 C6         -3.7971  -13.2301  -44.0800 C.3       23 UNK        -0.0398 
      7 S7         -4.6543  -13.6477  -45.6428 S.3       23 UNK        -0.2404 
      8 C8         -3.3382  -13.4886  -46.8995 C.3       23 UNK        -0.0205 
      9 C9         -3.4588  -14.4359  -48.0983 C.ar      23 UNK        -0.0193 
     10 C10        -2.5486  -14.2937  -49.1502 C.ar      23 UNK        -0.1150 
     11 C11        -2.5811  -15.1561  -50.2500 C.ar      23 UNK        -0.0193 
     12 C12        -3.5321  -16.1782  -50.2957 C.ar      23 UNK        -0.1150 
     13 C13        -4.4481  -16.3443  -49.2546 C.ar      23 UNK        -0.0193 
     14 C14        -4.4145  -15.4598  -48.1712 C.ar      23 UNK        -0.1150 
     15 C15        -5.4584  -17.4899  -49.3121 C.3       23 UNK        -0.0205 
     16 S16        -5.7282  -18.3268  -47.7095 S.3       23 UNK        -0.2404 
     17 C17        -4.0289  -18.7939  -47.2355 C.3       23 UNK        -0.0398 
     18 CA         -3.8677  -20.3199  -47.0558 C.3       11 UNK         0.1400 
     19 N          -2.5090  -20.7739  -47.3471 N.am      11 UNK        -0.5000 
     20 C          -2.1551  -22.0442  -47.5888 C.2       10 UNK         0.5000 
     21 O          -2.9613  -22.9731  -47.6673 O.2       10 UNK        -0.5000 
     22 CA         -0.6469  -22.3275  -47.7381 C.3       10 UNK         0.1400 
     23 CB         -0.2390  -22.2729  -49.2174 C.3       10 UNK        -0.1800 
     24 N           0.1804  -21.3958  -46.9658 N.am      10 UNK        -0.5000 
     25 C           0.1898  -21.3321  -45.6235 C.2       9 UNK         0.5000 
     26 O          -0.4308  -22.1151  -44.9073 O.2       9 UNK        -0.5000 
     27 CA          0.9420  -20.1568  -44.9670 C.3       9 UNK         0.1400 
     28 CB          2.3629  -20.5758  -44.5697 C.3       9 UNK        -0.1800 
     29 N           0.9962  -18.9695  -45.8216 N.am      9 UNK        -0.5000 
     30 C          -0.0824  -18.2980  -46.2535 C.2       8 UNK         0.5000 
     31 O          -1.2196  -18.5322  -45.8449 O.2       8 UNK        -0.5000 
     32 CA          0.1160  -17.2561  -47.3723 C.3       8 UNK         0.1400 
     33 CB         -0.2396  -15.8419  -46.8978 C.3       8 UNK        -0.1800 
     34 N           1.4640  -17.2651  -47.9448 N.am      8 UNK        -0.5000 
     35 C           1.9372  -18.2308  -48.7471 C.2       7 UNK         0.5000 
     36 O           1.2901  -19.2334  -49.0491 O.2       7 UNK        -0.5000 
     37 CA          3.3847  -18.0815  -49.2548 C.3       7 UNK         0.1400 
     38 CB          3.4042  -17.3339  -50.5934 C.3       7 UNK        -0.1800 
     39 N           4.2599  -17.3795  -48.3170 N.am      7 UNK        -0.5000 
     40 C           4.6190  -17.8329  -47.1084 C.2       6 UNK         0.5000 
     41 O           4.3007  -18.9383  -46.6730 O.2       6 UNK        -0.5000 
     42 CA          5.4283  -16.8646  -46.2215 C.3       6 UNK         0.1400 
     43 CB          6.9354  -17.0997  -46.4021 C.3       6 UNK        -0.1800 
     44 N           5.1248  -15.4497  -46.4724 N.am      6 UNK        -0.5000 
     45 C           3.9182  -14.8961  -46.2961 C.2       5 UNK         0.5000 
     46 O           2.9289  -15.5245  -45.9161 O.2       5 UNK        -0.5000 
     47 CA          3.7673  -13.4204  -46.6761 C.3       5 UNK         0.1400 
     48 CB          3.4607  -13.2926  -48.1817 C.3       5 UNK        -0.1800 
     49 N           2.6765  -12.8640  -45.8853 N.am      5 UNK        -0.5000 
     50 C           2.3834  -11.5677  -45.7432 C.2       4 UNK         0.5000 
     51 O           3.0176  -10.6565  -46.2769 O.2       4 UNK        -0.5000 
     52 CA          1.1810  -11.2307  -44.8439 C.3       4 UNK         0.1400 
     53 CB         -0.1233  -11.2844  -45.6555 C.3       4 UNK        -0.1800 
     54 N           1.0739  -12.1151  -43.6796 N.am      4 UNK        -0.5000 
     55 C           1.8969  -12.0636  -42.6190 C.2       3 UNK         0.5000 
     56 O           2.8404  -11.2763  -42.5342 O.2       3 UNK        -0.5000 
     57 CA          1.6236  -13.0209  -41.4392 C.3       3 UNK         0.1400 
     58 CB          0.9318  -12.2694  -40.2911 C.3       3 UNK        -0.1800 
     59 N           0.8012  -14.1721  -41.8046 N.am      3 UNK        -0.5000 
     60 C           1.2305  -15.2295  -42.5047 C.2       2 UNK         0.5000 
     61 O           2.4094  -15.4013  -42.8116 O.2       2 UNK        -0.5000 
     62 CA          0.1692  -16.2618  -42.9444 C.3       2 UNK         0.1400 
     63 CB          0.2967  -17.5532  -42.1234 C.3       2 UNK        -0.1800 
     64 N          -1.2206  -15.7927  -42.8665 N.am      2 UNK        -0.5000 
     65 C          -1.7519  -14.7565  -43.5291 C.2       1 UNK         0.5000 
     66 O          -1.0856  -14.0379  -44.2723 O.2       1 UNK        -0.5000 
     67 C          -4.3198  -20.7934  -45.6636 C.2       11 UNK         0.5000 
     68 O          -5.4243  -21.3194  -45.5267 O.2       11 UNK        -0.5000 
     69 N          -3.4333  -20.6503  -44.6691 N.am      12 UNK        -0.5000 
     70 CA         -3.6480  -21.1422  -43.3082 C.3       12 UNK         0.1400 
     71 CB         -2.5529  -20.5858  -42.3862 C.3       12 UNK        -0.1800 
     72 C          -3.7127  -22.6801  -43.2344 C.2       12 UNK         0.5000 
     73 O          -4.5231  -23.2156  -42.4775 O.2       12 UNK        -0.5000 
     74 N          -2.8702  -23.3563  -44.0268 N.am      13 UNK        -0.5000 
     75 CA         -2.7959  -24.8119  -44.1077 C.3       13 UNK         0.1400 
     76 CB         -1.4926  -25.2257  -44.8090 C.3       13 UNK        -0.1800 
     77 C          -4.0105  -25.4467  -44.8067 C.2       13 UNK         0.5000 
     78 O          -4.6071  -26.3671  -44.2454 O.2       13 UNK        -0.5000 
     79 N          -4.3363  -24.9830  -46.0226 N.am      14 UNK        -0.5000 
     80 CA         -5.2981  -25.6511  -46.9027 C.3       14 UNK         0.1400 
     81 CB         -4.6329  -26.8808  -47.5577 C.3       14 UNK        -0.1800 
     82 C          -5.9110  -24.6952  -47.9406 C.2       14 UNK         0.5000 
     83 O          -6.1029  -25.0915  -49.0922 O.2       14 UNK        -0.5000 
     84 N          -6.1966  -23.4464  -47.5381 N.am      15 UNK        -0.5000 
     85 CA         -6.9013  -22.4110  -48.3163 C.3       15 UNK         0.1400 
     86 CB         -8.3807  -22.8090  -48.4982 C.3       15 UNK        -0.1800 
     87 C          -6.2352  -22.0409  -49.6630 C.2       15 UNK         0.5000 
     88 O          -6.9033  -21.5025  -50.5463 O.2       15 UNK        -0.5000 
     89 N          -4.9380  -22.3591  -49.7994 N.am      16 UNK        -0.5000 
     90 CA         -4.1143  -22.2708  -51.0075 C.3       16 UNK         0.1400 
     91 CB         -3.9062  -20.8019  -51.4285 C.3       16 UNK        -0.1800 
     92 C          -4.6146  -23.1783  -52.1555 C.2       16 UNK         0.5000 
     93 O          -4.2772  -22.9412  -53.3154 O.2       16 UNK        -0.5000 
     94 N          -5.3934  -24.2174  -51.8170 N.am      17 UNK        -0.5000 
     95 CA         -5.8860  -25.2250  -52.7553 C.3       17 UNK         0.1400 
     96 CB         -7.2092  -25.8031  -52.2309 C.3       17 UNK        -0.1800 
     97 C          -4.8529  -26.3436  -52.9705 C.2       17 UNK         0.5000 
     98 O          -4.7793  -26.8976  -54.0678 O.2       17 UNK        -0.5000 
     99 N          -4.0644  -26.6457  -51.9273 N.am      18 UNK        -0.5000 
    100 CA        -2.9730  -27.6226  -51.9651 C.3       18 UNK         0.1400 
    101 CB        -2.5332  -27.9473  -50.5296 C.3       18 UNK        -0.1800 
    102 C         -1.7738  -27.1358  -52.8001 C.2       18 UNK         0.5000 
    103 O         -1.1244  -27.9442  -53.4645 O.2       18 UNK        -0.5000 
    104 N         -1.5205  -25.8233  -52.7639 N.am      19 UNK        -0.5000 
    105 CA        -0.5086  -25.1274  -53.5444 C.3       19 UNK         0.1400 
    106 CB         0.8842  -25.3062  -52.9128 C.3       19 UNK        -0.1800 
    107 C         -0.9081  -23.6505  -53.5913 C.2       19 UNK         0.5000 
    108 O         -1.0468  -23.0289  -52.5357 O.2       19 UNK        -0.5000 
    109 N         -1.0735  -23.1043  -54.8001 N.am      20 UNK        -0.5000 
    110 CA        -1.4366  -21.7066  -55.0431 C.3       20 UNK         0.1400 
    111 CB        -2.2083  -21.6178  -56.3719 C.3       20 UNK        -0.1800 
    112 C         -0.1888  -20.8008  -55.0134 C.2       20 UNK         0.5000 
    113 O          0.0868  -20.0929  -55.9839 O.2       20 UNK        -0.5000 
    114 N          0.5549  -20.8596  -53.8996 N.am      21 UNK        -0.5000 
    115 CA         1.8770  -20.2557  -53.6922 C.3       21 UNK         0.1400 
    116 CB         2.3622  -20.6166  -52.2799 C.3       21 UNK        -0.1800 
    117 C          1.9538  -18.7320  -53.9206 C.2       21 UNK         0.5000 
    118 O          3.0166  -18.2288  -54.2869 O.2       21 UNK        -0.5000 
    119 N          0.8306  -18.0381  -53.7207 N.am      22 UNK        -0.5000 
    120 CA         0.6344  -16.6111  -54.0133 C.3       22 UNK         0.1400 
    121 C         -0.6400  -16.3498  -54.8681 C.2       22 UNK         0.5000 
    122 N         -1.1548  -17.3358  -55.5954 N.am      22 UNK        -0.7600 
    123 O         -1.1587  -15.2375  -54.9022 O.2       22 UNK        -0.5000 
    124 C124        0.7564  -15.7200  -52.7459 C.3       23 UNK        -0.0398 
    125 S125       -0.2805  -16.2394  -51.3321 S.3       23 UNK        -0.2404 
    126 C126       -1.5948  -14.9843  -51.3933 C.3       23 UNK        -0.0205 
    127 H127       -4.8719  -18.2637  -43.8314 H         1 UNK         0.0600 
    128 H128       -6.1865  -17.3373  -43.0960 H         1 UNK         0.0600 
    129 H129       -5.2744  -18.4958  -42.1256 H         1 UNK         0.0600 
    130 H130       -4.6801  -15.6312  -44.2281 H         1 UNK         0.3000 
    131 H131       -3.2788  -14.1460  -42.2200 H         1 UNK         0.0600 
    132 H132       -4.5431  -12.7269  -43.4636 H         1 UNK         0.0800 
    133 H133       -3.0391  -12.4668  -44.2630 H         1 UNK         0.0800 
    134 H134       -2.3706  -13.6637  -46.4334 H         1 UNK         0.0800 
    135 H135       -3.3252  -12.4570  -47.2537 H         1 UNK         0.0800 
    136 H136       -1.8031  -13.5118  -49.1071 H         1 UNK         0.1150 
    137 H137       -3.5486  -16.8506  -51.1422 H         1 UNK         0.1150 
    138 H138       -5.1303  -15.5990  -47.3763 H         1 UNK         0.1150 
    139 H139       -5.1437  -18.2400  -50.0393 H         1 UNK         0.0800 
    140 H140       -6.4115  -17.0966  -49.6671 H         1 UNK         0.0800 
    141 H141       -3.7553  -18.2426  -46.3343 H         1 UNK         0.0800 
    142 H142       -3.3418  -18.4469  -48.0078 H         1 UNK         0.0800 
    143 H143       -4.5146  -20.8018  -47.7815 H         1 UNK         0.0600 
    144 H144       -1.7801  -20.0827  -47.2336 H         1 UNK         0.3000 
    145 H145       -0.4555  -23.3365  -47.3694 H         1 UNK         0.0600 
    146 H146        0.8254  -22.4710  -49.3445 H         1 UNK         0.0600 
    147 H147       -0.7786  -23.0233  -49.7962 H         1 UNK         0.0600 
    148 H148       -0.4532  -21.3002  -49.6624 H         1 UNK         0.0600 
    149 H149        0.7019  -20.7087  -47.4979 H         1 UNK         0.3000 
    150 H150        0.4002  -19.8888  -44.0590 H         1 UNK         0.0600 
    151 H151        2.9424  -20.9003  -45.4345 H         1 UNK         0.0600 
    152 H152        2.3397  -21.4052  -43.8618 H         1 UNK         0.0600 
    153 H153        2.8993  -19.7550  -44.0929 H         1 UNK         0.0600 
    154 H154        1.9017  -18.7246  -46.1996 H         1 UNK         0.3000 
    155 H155       -0.5854  -17.5147  -48.1689 H         1 UNK         0.0600 
    156 H156       -1.2683  -15.8069  -46.5383 H         1 UNK         0.0600 
    157 H157       -0.1519  -15.1195  -47.7089 H         1 UNK         0.0600 
    158 H158        0.3990  -15.5065  -46.0837 H         1 UNK         0.0600 
    159 H159        2.0790  -16.5177  -47.6494 H         1 UNK         0.3000 
    160 H160        3.7837  -19.0856  -49.4130 H         1 UNK         0.0600 
    161 H161        3.1108  -16.2906  -50.4724 H         1 UNK         0.0600 
    162 H162        2.7115  -17.7876  -51.3005 H         1 UNK         0.0600 
    163 H163        4.3950  -17.3566  -51.0472 H         1 UNK         0.0600 
    164 H164        4.5759  -16.4619  -48.5925 H         1 UNK         0.3000 
    165 H165        5.1692  -17.0812  -45.1828 H         1 UNK         0.0600 
    166 H166        7.5163  -16.4822  -45.7168 H         1 UNK         0.0600 
    167 H167        7.2598  -16.8721  -47.4183 H         1 UNK         0.0600 
    168 H168        7.1951  -18.1397  -46.1996 H         1 UNK         0.0600 
    169 H169        5.8885  -14.8762  -46.8011 H         1 UNK         0.3000 
    170 H170        4.6918  -12.8924  -46.4337 H         1 UNK         0.0600 
    171 H171        4.2519  -13.7404  -48.7839 H         1 UNK         0.0600 
    172 H172        2.5258  -13.7904  -48.4438 H         1 UNK         0.0600 
    173 H173        3.3792  -12.2497  -48.4873 H         1 UNK         0.0600 
    174 H174        2.1290  -13.5590  -45.3919 H         1 UNK         0.3000 
    175 H175        1.3095  -10.2079  -44.4830 H         1 UNK         0.0600 
    176 H176       -0.2839  -12.2694  -46.0949 H         1 UNK         0.0600 
    177 H177       -0.9875  -11.0476  -45.0349 H         1 UNK         0.0600 
    178 H178       -0.1020  -10.5634  -46.4735 H         1 UNK         0.0600 
    179 H179        0.3309  -12.8069  -43.7076 H         1 UNK         0.3000 
    180 H180        2.5888  -13.3821  -41.0777 H         1 UNK         0.0600 
    181 H181       -0.0448  -11.8871  -40.5909 H         1 UNK         0.0600 
    182 H182        1.5307  -11.4186  -39.9634 H         1 UNK         0.0600 
    183 H183        0.7890  -12.9163  -39.4253 H         1 UNK         0.0600 
    184 H184       -0.1808  -14.1191  -41.5802 H         1 UNK         0.3000 
    185 H185        0.3776  -16.5027  -43.9862 H         1 UNK         0.0600 
    186 H186       -0.4104  -18.3073  -42.4667 H         1 UNK         0.0600 
    187 H187        1.2967  -17.9794  -42.2154 H         1 UNK         0.0600 
    188 H188        0.1081  -17.3753  -41.0640 H         1 UNK         0.0600 
    189 H189       -1.8446  -16.3140  -42.2563 H         1 UNK         0.3000 
    190 H190       -2.5466  -20.2050  -44.8656 H         1 UNK         0.3000 
    191 H191       -4.6095  -20.7595  -42.9605 H         1 UNK         0.0600 
    192 H192       -2.7052  -20.9153  -41.3577 H         1 UNK         0.0600 
    193 H193       -2.5605  -19.4959  -42.3810 H         1 UNK         0.0600 
    194 H194       -1.5596  -20.9147  -42.6921 H         1 UNK         0.0600 
    195 H195       -2.1701  -22.8367  -44.5479 H         1 UNK         0.3000 
    196 H196       -2.7594  -25.2017  -43.0881 H         1 UNK         0.0600 
    197 H197       -1.4469  -24.8488  -45.8305 H         1 UNK         0.0600 
    198 H198       -0.6202  -24.8504  -44.2739 H         1 UNK         0.0600 
    199 H199       -1.4023  -26.3116  -44.8563 H         1 UNK         0.0600 
    200 H200       -3.8049  -24.2218  -46.4373 H         1 UNK         0.3000 
    201 H201       -6.1413  -26.0010  -46.3038 H         1 UNK         0.0600 
    202 H202       -3.7717  -26.5864  -48.1572 H         1 UNK         0.0600 
    203 H203       -5.3273  -27.4121  -48.2098 H         1 UNK         0.0600 
    204 H204       -4.2902  -27.5970  -46.8111 H         1 UNK         0.0600 
    205 H205       -5.9583  -23.1767  -46.5906 H         1 UNK         0.3000 
    206 H206       -6.8843  -21.5019  -47.7152 H         1 UNK         0.0600 
    207 H207       -8.8442  -23.0508  -47.5417 H         1 UNK         0.0600 
    208 H208       -8.9574  -21.9940  -48.9371 H         1 UNK         0.0600 
    209 H209       -8.4884  -23.6751  -49.1522 H         1 UNK         0.0600 
    210 H210       -4.4786  -22.7899  -49.0034 H         1 UNK         0.3000 
    211 H211       -3.1378  -22.6662  -50.7262 H         1 UNK         0.0600 
    212 H212       -3.1574  -20.7250  -52.2164 H         1 UNK         0.0600 
    213 H213       -3.5529  -20.2000  -50.5910 H         1 UNK         0.0600 
    214 H214       -4.8252  -20.3522  -51.8045 H         1 UNK         0.0600 
    215 H215       -5.6450  -24.3508  -50.8413 H         1 UNK         0.3000 
    216 H216       -6.0826  -24.7543  -53.7210 H         1 UNK         0.0600 
    217 H217       -7.0750  -26.3308  -51.2860 H         1 UNK         0.0600 
    218 H218       -7.6337  -26.5112  -52.9436 H         1 UNK         0.0600 
    219 H219       -7.9476  -25.0168  -52.0727 H         1 UNK         0.0600 
    220 H220       -4.2160  -26.1598  -51.0557 H         1 UNK         0.3000 
    221 H221       -3.3486  -28.5402  -52.4230 H         1 UNK         0.0600 
    222 H222       -3.3575  -28.3627  -49.9499 H         1 UNK         0.0600 
    223 H223       -2.1647  -27.0620  -50.0099 H         1 UNK         0.0600 
    224 H224       -1.7312  -28.6866  -50.5257 H         1 UNK         0.0600 
    225 H225       -2.1116  -25.2231  -52.2062 H         1 UNK         0.3000 
    226 H226       -0.4977  -25.5301  -54.5595 H         1 UNK         0.0600 
    227 H227        0.9067  -24.9500  -51.8820 H         1 UNK         0.0600 
    228 H228        1.1888  -26.3527  -52.9112 H         1 UNK         0.0600 
    229 H229        1.6387  -24.7494  -53.4698 H         1 UNK         0.0600 
    230 H230       -0.9149  -23.6702  -55.6212 H         1 UNK         0.3000 
    231 H231       -2.1060  -21.3625  -54.2530 H         1 UNK         0.0600 
    232 H232       -1.5999  -21.9441  -57.2162 H         1 UNK         0.0600 
    233 H233       -2.5288  -20.5944  -56.5711 H         1 UNK         0.0600 
    234 H234       -3.1057  -22.2365  -56.3447 H         1 UNK         0.0600 
    235 H235        0.2199  -21.4665  -53.1595 H         1 UNK         0.3000 
    236 H236        2.5552  -20.7180  -54.4120 H         1 UNK         0.0600 
    237 H237        2.4312  -21.6967  -52.1492 H         1 UNK         0.0600 
    238 H238        3.3521  -20.2024  -52.0844 H         1 UNK         0.0600 
    239 H239        1.6859  -20.2310  -51.5167 H         1 UNK         0.0600 
    240 H240        0.0080  -18.5317  -53.4069 H         1 UNK         0.3000 
    241 H241        1.4349  -16.2902  -54.6821 H         1 UNK         0.0600 
    242 H242       -1.9720  -17.1548  -56.1564 H         1 UNK         0.3800 
    243 H243       -0.6833  -18.2300  -55.6706 H         1 UNK         0.3800 
    244 H244        0.5631  -14.6735  -52.9862 H         1 UNK         0.0800 
    245 H245        1.7921  -15.7389  -52.4092 H         1 UNK         0.0800 
    246 H246       -2.1256  -15.0577  -52.3432 H         1 UNK         0.0800 
    247 H247       -1.1482  -13.9893  -51.3630 H         1 UNK         0.0800 
@<TRIPOS>BOND
     1    1    2 1    
     2    1  127 1    
     3    1  128 1    
     4    1  129 1    
     5    2    3 2    
     6    2    4 am   BACKBONE|DICT|INTERRES
     7    4    5 1    
     8    4  130 1    
     9    5    6 1    
    10    5   65 1    
    11    5  131 1    
    12    6    7 1    
    13    6  132 1    
    14    6  133 1    
    15    7    8 1    
    16    8    9 1    
    17    8  134 1    
    18    8  135 1    
    19    9   10 ar   
    20    9   14 ar   
    21   10   11 ar   
    22   10  136 1    
    23   11   12 ar   
    24   11  126 1    
    25   12   13 ar   
    26   12  137 1    
    27   13   14 ar   
    28   13   15 1    
    29   14  138 1    
    30   15   16 1    
    31   15  139 1    
    32   15  140 1    
    33   16   17 1    
    34   17   18 1    
    35   17  141 1    
    36   17  142 1    
    37   18   19 1    
    38   18   67 1    
    39   18  143 1    
    40   19   20 am   BACKBONE|DICT|INTERRES
    41   19  144 1    
    42   20   21 2    
    43   20   22 1    
    44   22   23 1    
    45   22   24 1    
    46   22  145 1    
    47   23  146 1    
    48   23  147 1    
    49   23  148 1    
    50   24   25 am   BACKBONE|DICT|INTERRES
    51   24  149 1    
    52   25   26 2    
    53   25   27 1    
    54   27   28 1    
    55   27   29 1    
    56   27  150 1    
    57   28  151 1    
    58   28  152 1    
    59   28  153 1    
    60   29   30 am   BACKBONE|DICT|INTERRES
    61   29  154 1    
    62   30   31 2    
    63   30   32 1    
    64   32   33 1    
    65   32   34 1    
    66   32  155 1    
    67   33  156 1    
    68   33  157 1    
    69   33  158 1    
    70   34   35 am   BACKBONE|DICT|INTERRES
    71   34  159 1    
    72   35   36 2    
    73   35   37 1    
    74   37   38 1    
    75   37   39 1    
    76   37  160 1    
    77   38  161 1    
    78   38  162 1    
    79   38  163 1    
    80   39   40 am   BACKBONE|DICT|INTERRES
    81   39  164 1    
    82   40   41 2    
    83   40   42 1    
    84   42   43 1    
    85   42   44 1    
    86   42  165 1    
    87   43  166 1    
    88   43  167 1    
    89   43  168 1    
    90   44   45 am   BACKBONE|DICT|INTERRES
    91   44  169 1    
    92   45   46 2    
    93   45   47 1    
    94   47   48 1    
    95   47   49 1    
    96   47  170 1    
    97   48  171 1    
    98   48  172 1    
    99   48  173 1    
   100   49   50 am   BACKBONE|DICT|INTERRES
   101   49  174 1    
   102   50   51 2    
   103   50   52 1    
   104   52   53 1    
   105   52   54 1    
   106   52  175 1    
   107   53  176 1    
   108   53  177 1    
   109   53  178 1    
   110   54   55 am   BACKBONE|DICT|INTERRES
   111   54  179 1    
   112   55   56 2    
   113   55   57 1    
   114   57   58 1    
   115   57   59 1    
   116   57  180 1    
   117   58  181 1    
   118   58  182 1    
   119   58  183 1    
   120   59   60 am   BACKBONE|DICT|INTERRES
   121   59  184 1    
   122   60   61 2    
   123   60   62 1    
   124   62   63 1    
   125   62   64 1    
   126   62  185 1    
   127   63  186 1    
   128   63  187 1    
   129   63  188 1    
   130   64   65 am   BACKBONE|DICT|INTERRES
   131   64  189 1    
   132   65   66 2    
   133   67   68 2    
   134   67   69 am   BACKBONE|DICT|INTERRES
   135   69   70 1    
   136   69  190 1    
   137   70   71 1    
   138   70   72 1    
   139   70  191 1    
   140   71  192 1    
   141   71  193 1    
   142   71  194 1    
   143   72   73 2    
   144   72   74 am   BACKBONE|DICT|INTERRES
   145   74   75 1    
   146   74  195 1    
   147   75   76 1    
   148   75   77 1    
   149   75  196 1    
   150   76  197 1    
   151   76  198 1    
   152   76  199 1    
   153   77   78 2    
   154   77   79 am   BACKBONE|DICT|INTERRES
   155   79   80 1    
   156   79  200 1    
   157   80   81 1    
   158   80   82 1    
   159   80  201 1    
   160   81  202 1    
   161   81  203 1    
   162   81  204 1    
   163   82   83 2    
   164   82   84 am   BACKBONE|DICT|INTERRES
   165   84   85 1    
   166   84  205 1    
   167   85   86 1    
   168   85   87 1    
   169   85  206 1    
   170   86  207 1    
   171   86  208 1    
   172   86  209 1    
   173   87   88 2    
   174   87   89 am   BACKBONE|DICT|INTERRES
   175   89   90 1    
   176   89  210 1    
   177   90   91 1    
   178   90   92 1    
   179   90  211 1    
   180   91  212 1    
   181   91  213 1    
   182   91  214 1    
   183   92   93 2    
   184   92   94 am   BACKBONE|DICT|INTERRES
   185   94   95 1    
   186   94  215 1    
   187   95   96 1    
   188   95   97 1    
   189   95  216 1    
   190   96  217 1    
   191   96  218 1    
   192   96  219 1    
   193   97   98 2    
   194   97   99 am   BACKBONE|DICT|INTERRES
   195   99  100 1    
   196   99  220 1    
   197  100  101 1    
   198  100  102 1    
   199  100  221 1    
   200  101  222 1    
   201  101  223 1    
   202  101  224 1    
   203  102  103 2    
   204  102  104 am   BACKBONE|DICT|INTERRES
   205  104  105 1    
   206  104  225 1    
   207  105  106 1    
   208  105  107 1    
   209  105  226 1    
   210  106  227 1    
   211  106  228 1    
   212  106  229 1    
   213  107  108 2    
   214  107  109 am   BACKBONE|DICT|INTERRES
   215  109  110 1    
   216  109  230 1    
   217  110  111 1    
   218  110  112 1    
   219  110  231 1    
   220  111  232 1    
   221  111  233 1    
   222  111  234 1    
   223  112  113 2    
   224  112  114 am   BACKBONE|DICT|INTERRES
   225  114  115 1    
   226  114  235 1    
   227  115  116 1    
   228  115  117 1    
   229  115  236 1    
   230  116  237 1    
   231  116  238 1    
   232  116  239 1    
   233  117  118 2    
   234  117  119 am   BACKBONE|DICT|INTERRES
   235  119  120 1    
   236  119  240 1    
   237  120  121 1    
   238  120  124 1    
   239  120  241 1    
   240  121  122 am   BACKBONE|DICT|INTERRES
   241  121  123 2    
   242  122  242 1    
   243  122  243 1    
   244  124  125 1    
   245  124  244 1    
   246  124  245 1    
   247  125  126 1    
   248  126  246 1    
   249  126  247 1    
@<TRIPOS>SUBSTRUCTURE
     1 UNK         1 GROUP             0       ****    0 ROOT    
