@<TRIPOS>MOLECULE
3R540
247   249    1
SMALL
USER_CHARGES


@<TRIPOS>ATOM
      1 CA         -3.3855  -13.7103  -46.2376 C.3       0 UNK        -0.1800 
      2 C          -1.9135  -13.3527  -46.0864 C.2       0 UNK         0.5000 
      3 O          -1.3568  -13.5215  -45.0032 O.2       0 UNK        -0.5000 
      4 N          -1.2902  -12.8654  -47.1701 N.am      1 UNK        -0.5000 
      5 CA          0.1377  -12.5179  -47.2820 C.3       1 UNK         0.1400 
      6 C6          1.0819  -13.7497  -47.2208 C.3       23 UNK        -0.0398 
      7 S7          0.6626  -15.0459  -48.4365 S.3       23 UNK        -0.2404 
      8 C8          2.0667  -14.9568  -49.5851 C.3       23 UNK        -0.0205 
      9 C9          2.0553  -16.1458  -50.5314 C.ar      23 UNK        -0.0193 
     10 C10         1.1784  -16.1697  -51.6212 C.ar      23 UNK        -0.1150 
     11 C11         1.1441  -17.2747  -52.4760 C.ar      23 UNK        -0.0193 
     12 C12         2.0041  -18.3493  -52.2435 C.ar      23 UNK        -0.1150 
     13 C13         2.8847  -18.3387  -51.1595 C.ar      23 UNK        -0.0193 
     14 C14         2.9072  -17.2323  -50.3060 C.ar      23 UNK        -0.1150 
     15 C15         3.7953  -19.5335  -50.9090 C.3       23 UNK        -0.0205 
     16 S16         3.2902  -20.5007  -49.4490 S.3       23 UNK        -0.2404 
     17 C17         1.5125  -20.7722  -49.7668 C.3       23 UNK        -0.0398 
     18 CA          1.0049  -22.1486  -49.2753 C.3       11 UNK         0.1400 
     19 N           1.1276  -22.2781  -47.8190 N.am      11 UNK        -0.5000 
     20 C           1.1847  -23.4333  -47.1458 C.2       10 UNK         0.5000 
     21 O           1.1679  -24.5401  -47.6847 O.2       10 UNK        -0.5000 
     22 CA          1.2330  -23.3345  -45.6083 C.3       10 UNK         0.1400 
     23 CB          2.6685  -23.0829  -45.1227 C.3       10 UNK        -0.1800 
     24 N           0.3436  -22.3031  -45.0649 N.am      10 UNK        -0.5000 
     25 C          -0.9945  -22.3255  -45.1568 C.2       9 UNK         0.5000 
     26 O          -1.6255  -23.2185  -45.7217 O.2       9 UNK        -0.5000 
     27 CA         -1.7572  -21.1326  -44.5522 C.3       9 UNK         0.1400 
     28 CB         -1.8514  -21.2538  -43.0243 C.3       9 UNK        -0.1800 
     29 N          -1.1548  -19.8492  -44.9056 N.am      9 UNK        -0.5000 
     30 C          -1.1025  -19.3555  -46.1494 C.2       8 UNK         0.5000 
     31 O          -1.6319  -19.8940  -47.1200 O.2       8 UNK        -0.5000 
     32 CA         -0.3015  -18.0591  -46.3527 C.3       8 UNK         0.1400 
     33 CB         -1.1546  -16.8457  -45.9714 C.3       8 UNK        -0.1800 
     34 N           0.9495  -18.0373  -45.5960 N.am      8 UNK        -0.5000 
     35 C           1.9348  -18.9352  -45.7343 C.2       7 UNK         0.5000 
     36 O           1.8974  -19.8751  -46.5241 O.2       7 UNK        -0.5000 
     37 CA          3.1291  -18.8028  -44.7786 C.3       7 UNK         0.1400 
     38 CB          4.1095  -17.7271  -45.2701 C.3       7 UNK        -0.1800 
     39 N           2.6846  -18.5018  -43.4181 N.am      7 UNK        -0.5000 
     40 C           2.0320  -19.3727  -42.6337 C.2       6 UNK         0.5000 
     41 O           1.7969  -20.5387  -42.9534 O.2       6 UNK        -0.5000 
     42 CA          1.5153  -18.8339  -41.2867 C.3       6 UNK         0.1400 
     43 CB          2.6318  -18.8435  -40.2321 C.3       6 UNK        -0.1800 
     44 N           0.9636  -17.4823  -41.4000 N.am      6 UNK        -0.5000 
     45 C          -0.1495  -17.1761  -42.0820 C.2       5 UNK         0.5000 
     46 O          -0.8556  -18.0152  -42.6402 O.2       5 UNK        -0.5000 
     47 CA         -0.5147  -15.6828  -42.1922 C.3       5 UNK         0.1400 
     48 CB         -1.4451  -15.2665  -41.0442 C.3       5 UNK        -0.1800 
     49 N           0.6452  -14.7882  -42.2203 N.am      5 UNK        -0.5000 
     50 C           1.6017  -14.7916  -43.1571 C.2       4 UNK         0.5000 
     51 O           1.6402  -15.6095  -44.0779 O.2       4 UNK        -0.5000 
     52 CA          2.7053  -13.7226  -43.0170 C.3       4 UNK         0.1400 
     53 CB          3.7088  -13.7414  -44.1836 C.3       4 UNK        -0.1800 
     54 N           2.1639  -12.3679  -42.8722 N.am      4 UNK        -0.5000 
     55 C           1.7425  -11.8303  -41.7180 C.2       3 UNK         0.5000 
     56 O           1.6733  -12.4706  -40.6676 O.2       3 UNK        -0.5000 
     57 CA          1.3448  -10.3411  -41.7105 C.3       3 UNK         0.1400 
     58 CB          2.4709   -9.4947  -41.0965 C.3       3 UNK        -0.1800 
     59 N           1.0399   -9.8169  -43.0409 N.am      3 UNK        -0.5000 
     60 C          -0.1465   -9.9336  -43.6487 C.2       2 UNK         0.5000 
     61 O          -1.1280  -10.4697  -43.1326 O.2       2 UNK        -0.5000 
     62 CA         -0.2678   -9.3637  -45.0778 C.3       2 UNK         0.1400 
     63 CB          0.8384   -8.3523  -45.4571 C.3       2 UNK        -0.1800 
     64 N          -0.3521  -10.4422  -46.0654 N.am      2 UNK        -0.5000 
     65 C           0.5519  -11.4105  -46.2823 C.2       1 UNK         0.5000 
     66 O           1.6488  -11.4561  -45.7203 O.2       1 UNK        -0.5000 
     67 C          -0.4393  -22.3777  -49.7781 C.2       11 UNK         0.5000 
     68 O          -0.6460  -22.3917  -50.9934 O.2       11 UNK        -0.5000 
     69 N          -1.4095  -22.5005  -48.8562 N.am      12 UNK        -0.5000 
     70 CA         -2.8568  -22.6059  -49.0861 C.3       12 UNK         0.1400 
     71 CB         -3.1979  -23.9292  -49.7982 C.3       12 UNK        -0.1800 
     72 C          -3.4570  -21.3654  -49.7891 C.2       12 UNK         0.5000 
     73 O          -4.4965  -21.4584  -50.4415 O.2       12 UNK        -0.5000 
     74 N          -2.7827  -20.2193  -49.6390 N.am      13 UNK        -0.5000 
     75 CA         -3.1498  -18.9241  -50.2017 C.3       13 UNK         0.1400 
     76 CB         -1.8703  -18.0936  -50.3916 C.3       13 UNK        -0.1800 
     77 C          -4.1623  -18.1737  -49.3187 C.2       13 UNK         0.5000 
     78 O          -4.8910  -17.3269  -49.8356 O.2       13 UNK        -0.5000 
     79 N          -4.1929  -18.4918  -48.0151 N.am      14 UNK        -0.5000 
     80 CA         -5.1650  -17.9764  -47.0512 C.3       14 UNK         0.1400 
     81 CB         -4.6790  -18.2617  -45.6174 C.3       14 UNK        -0.1800 
     82 C          -6.5639  -18.5634  -47.3152 C.2       14 UNK         0.5000 
     83 O          -7.4189  -17.8816  -47.8816 O.2       14 UNK        -0.5000 
     84 N          -6.7579  -19.8236  -46.9144 N.am      15 UNK        -0.5000 
     85 CA         -7.9709  -20.6145  -47.0856 C.3       15 UNK         0.1400 
     86 CB         -9.1160  -20.0599  -46.2138 C.3       15 UNK        -0.1800 
     87 C          -7.6554  -22.0623  -46.6874 C.2       15 UNK         0.5000 
     88 O          -6.7522  -22.2836  -45.8748 O.2       15 UNK        -0.5000 
     89 N          -8.4321  -23.0041  -47.2400 N.am      16 UNK        -0.5000 
     90 CA         -8.3825  -24.4505  -46.9945 C.3       16 UNK         0.1400 
     91 CB         -8.8450  -24.7584  -45.5519 C.3       16 UNK        -0.1800 
     92 C          -7.0200  -25.0915  -47.3497 C.2       16 UNK         0.5000 
     93 O          -6.2663  -24.5330  -48.1480 O.2       16 UNK        -0.5000 
     94 N          -6.7506  -26.2719  -46.7748 N.am      17 UNK        -0.5000 
     95 CA         -5.5579  -27.1179  -46.9099 C.3       17 UNK         0.1400 
     96 CB         -4.2740  -26.3721  -46.4925 C.3       17 UNK        -0.1800 
     97 C          -5.4000  -27.7877  -48.2890 C.2       17 UNK         0.5000 
     98 O          -5.2583  -29.0100  -48.3469 O.2       17 UNK        -0.5000 
     99 N          -5.4287  -26.9970  -49.3655 N.am      18 UNK        -0.5000 
    100 CA        -5.2290  -27.4149  -50.7520 C.3       18 UNK         0.1400 
    101 CB        -3.7523  -27.8162  -50.9759 C.3       18 UNK        -0.1800 
    102 C         -5.6545  -26.2712  -51.6907 C.2       18 UNK         0.5000 
    103 O         -6.2551  -25.2928  -51.2411 O.2       18 UNK        -0.5000 
    104 N         -5.3146  -26.3945  -52.9793 N.am      19 UNK        -0.5000 
    105 CA        -5.2922  -25.2741  -53.9196 C.3       19 UNK         0.1400 
    106 CB        -5.2894  -25.8207  -55.3554 C.3       19 UNK        -0.1800 
    107 C         -4.0387  -24.4165  -53.6603 C.2       19 UNK         0.5000 
    108 O         -2.9910  -24.9701  -53.3155 O.2       19 UNK        -0.5000 
    109 N         -4.1644  -23.0943  -53.8281 N.am      20 UNK        -0.5000 
    110 CA        -3.0978  -22.1231  -53.5777 C.3       20 UNK         0.1400 
    111 CB        -3.6540  -20.7010  -53.7513 C.3       20 UNK        -0.1800 
    112 C         -1.8809  -22.3296  -54.4953 C.2       20 UNK         0.5000 
    113 O         -2.0536  -22.5259  -55.7010 O.2       20 UNK        -0.5000 
    114 N         -0.6759  -22.2310  -53.9194 N.am      21 UNK        -0.5000 
    115 CA         0.6071  -22.4187  -54.6071 C.3       21 UNK         0.1400 
    116 CB         1.7397  -22.3877  -53.5696 C.3       21 UNK        -0.1800 
    117 C          0.8816  -21.4226  -55.7560 C.2       21 UNK         0.5000 
    118 O          1.6869  -21.7295  -56.6360 O.2       21 UNK        -0.5000 
    119 N          0.1949  -20.2722  -55.7480 N.am      22 UNK        -0.5000 
    120 CA         0.1687  -19.3029  -56.8578 C.3       22 UNK         0.1400 
    121 C         -0.7296  -19.7314  -58.0581 C.2       22 UNK         0.5000 
    122 N         -1.5281  -20.7892  -57.9676 N.am      22 UNK        -0.7600 
    123 O         -0.6939  -19.0918  -59.1058 O.2       22 UNK        -0.5000 
    124 C124       -0.2033  -17.8752  -56.3764 C.3       23 UNK        -0.0398 
    125 S125        1.0343  -17.1844  -55.2287 S.3       23 UNK        -0.2404 
    126 C126        0.1674  -17.3376  -53.6379 C.3       23 UNK        -0.0205 
    127 H127       -3.9923  -13.0823  -45.5853 H         1 UNK         0.0600 
    128 H128       -3.5490  -14.7511  -45.9580 H         1 UNK         0.0600 
    129 H129       -3.7333  -13.5762  -47.2621 H         1 UNK         0.0600 
    130 H130       -1.8189  -12.7596  -48.0245 H         1 UNK         0.3000 
    131 H131        0.2581  -12.0723  -48.2705 H         1 UNK         0.0600 
    132 H132        2.1171  -13.4426  -47.3761 H         1 UNK         0.0800 
    133 H133        1.0495  -14.1986  -46.2284 H         1 UNK         0.0800 
    134 H134        2.0181  -14.0259  -50.1518 H         1 UNK         0.0800 
    135 H135        3.0012  -14.9345  -49.0224 H         1 UNK         0.0800 
    136 H136        0.5112  -15.3359  -51.7893 H         1 UNK         0.1150 
    137 H137        1.9799  -19.1963  -52.9124 H         1 UNK         0.1150 
    138 H138        3.5776  -17.2269  -49.4580 H         1 UNK         0.1150 
    139 H139        3.8166  -20.1918  -51.7789 H         1 UNK         0.0800 
    140 H140        4.8186  -19.1839  -50.7659 H         1 UNK         0.0800 
    141 H141        0.9524  -19.9622  -49.2951 H         1 UNK         0.0800 
    142 H142        1.3422  -20.6755  -50.8389 H         1 UNK         0.0800 
    143 H143        1.6211  -22.9196  -49.7426 H         1 UNK         0.0600 
    144 H144        1.2359  -21.4070  -47.3014 H         1 UNK         0.3000 
    145 H145        0.9057  -24.2957  -45.2068 H         1 UNK         0.0600 
    146 H146        2.7220  -23.0804  -44.0339 H         1 UNK         0.0600 
    147 H147        3.0528  -22.1268  -45.4784 H         1 UNK         0.0600 
    148 H148        3.3436  -23.8612  -45.4805 H         1 UNK         0.0600 
    149 H149        0.7874  -21.5355  -44.5733 H         1 UNK         0.3000 
    150 H150       -2.7719  -21.1502  -44.9552 H         1 UNK         0.0600 
    151 H151       -2.3104  -22.1997  -42.7346 H         1 UNK         0.0600 
    152 H152       -2.4611  -20.4534  -42.6043 H         1 UNK         0.0600 
    153 H153       -0.8690  -21.2057  -42.5536 H         1 UNK         0.0600 
    154 H154       -0.7605  -19.3030  -44.1458 H         1 UNK         0.3000 
    155 H155       -0.0391  -17.9813  -47.4094 H         1 UNK         0.0600 
    156 H156       -1.9623  -16.6986  -46.6890 H         1 UNK         0.0600 
    157 H157       -0.5573  -15.9375  -45.9577 H         1 UNK         0.0600 
    158 H158       -1.6001  -16.9526  -44.9836 H         1 UNK         0.0600 
    159 H159        1.0827  -17.2663  -44.9479 H         1 UNK         0.3000 
    160 H160        3.6575  -19.7583  -44.7613 H         1 UNK         0.0600 
    161 H161        3.6271  -16.7562  -45.3797 H         1 UNK         0.0600 
    162 H162        4.5172  -17.9961  -46.2454 H         1 UNK         0.0600 
    163 H163        4.9499  -17.6125  -44.5856 H         1 UNK         0.0600 
    164 H164        2.7748  -17.5436  -43.1138 H         1 UNK         0.3000 
    165 H165        0.7185  -19.4989  -40.9465 H         1 UNK         0.0600 
    166 H166        2.2549  -18.5360  -39.2565 H         1 UNK         0.0600 
    167 H167        3.0501  -19.8444  -40.1170 H         1 UNK         0.0600 
    168 H168        3.4499  -18.1747  -40.5025 H         1 UNK         0.0600 
    169 H169        1.4831  -16.7339  -40.9658 H         1 UNK         0.3000 
    170 H170       -1.0538  -15.5464  -43.1310 H         1 UNK         0.0600 
    171 H171       -2.3321  -15.9006  -41.0108 H         1 UNK         0.0600 
    172 H172       -0.9487  -15.3420  -40.0760 H         1 UNK         0.0600 
    173 H173       -1.7862  -14.2384  -41.1685 H         1 UNK         0.0600 
    174 H174        0.7045  -14.0838  -41.4935 H         1 UNK         0.3000 
    175 H175        3.2662  -13.9715  -42.1138 H         1 UNK         0.0600 
    176 H176        3.2211  -13.5639  -45.1411 H         1 UNK         0.0600 
    177 H177        4.4784  -12.9804  -44.0546 H         1 UNK         0.0600 
    178 H178        4.2164  -14.7041  -44.2464 H         1 UNK         0.0600 
    179 H179        2.1035  -11.8197  -43.7240 H         1 UNK         0.3000 
    180 H180        0.4630  -10.2402  -41.0741 H         1 UNK         0.0600 
    181 H181        2.1819   -8.4459  -41.0249 H         1 UNK         0.0600 
    182 H182        3.3861   -9.5519  -41.6872 H         1 UNK         0.0600 
    183 H183        2.7098   -9.8337  -40.0874 H         1 UNK         0.0600 
    184 H184        1.7997   -9.3836  -43.5455 H         1 UNK         0.3000 
    185 H185       -1.2205   -8.8333  -45.1144 H         1 UNK         0.0600 
    186 H186        0.6426   -7.9156  -46.4364 H         1 UNK         0.0600 
    187 H187        0.8773   -7.5290  -44.7425 H         1 UNK         0.0600 
    188 H188        1.8290   -8.8060  -45.4948 H         1 UNK         0.0600 
    189 H189       -1.2380  -10.5224  -46.5442 H         1 UNK         0.3000 
    190 H190       -1.1347  -22.4652  -47.8829 H         1 UNK         0.3000 
    191 H191       -3.3186  -22.6387  -48.0982 H         1 UNK         0.0600 
    192 H192       -4.2758  -24.0514  -49.8954 H         1 UNK         0.0600 
    193 H193       -2.8245  -24.7863  -49.2385 H         1 UNK         0.0600 
    194 H194       -2.7746  -23.9748  -50.8003 H         1 UNK         0.0600 
    195 H195       -2.0094  -20.2195  -48.9815 H         1 UNK         0.3000 
    196 H196       -3.6079  -19.0774  -51.1804 H         1 UNK         0.0600 
    197 H197       -2.0898  -17.1387  -50.8706 H         1 UNK         0.0600 
    198 H198       -1.1516  -18.6166  -51.0225 H         1 UNK         0.0600 
    199 H199       -1.3829  -17.8775  -49.4405 H         1 UNK         0.0600 
    200 H200       -3.5323  -19.1830  -47.6813 H         1 UNK         0.3000 
    201 H201       -5.2338  -16.8929  -47.1705 H         1 UNK         0.0600 
    202 H202       -4.4199  -19.3102  -45.4691 H         1 UNK         0.0600 
    203 H203       -5.4455  -18.0041  -44.8852 H         1 UNK         0.0600 
    204 H204       -3.8010  -17.6671  -45.3756 H         1 UNK         0.0600 
    205 H205       -6.0105  -20.3303  -46.4565 H         1 UNK         0.3000 
    206 H206       -8.2595  -20.5910  -48.1384 H         1 UNK         0.0600 
    207 H207       -9.4069  -19.0552  -46.5193 H         1 UNK         0.0600 
    208 H208      -10.0060  -20.6856  -46.2910 H         1 UNK         0.0600 
    209 H209       -8.8334  -20.0209  -45.1611 H         1 UNK         0.0600 
    210 H210       -9.1221  -22.7114  -47.9174 H         1 UNK         0.3000 
    211 H211       -9.1089  -24.8940  -47.6767 H         1 UNK         0.0600 
    212 H212       -8.0993  -24.4572  -44.8151 H         1 UNK         0.0600 
    213 H213       -9.0411  -25.8216  -45.4107 H         1 UNK         0.0600 
    214 H214       -9.7720  -24.2348  -45.3174 H         1 UNK         0.0600 
    215 H215       -7.4593  -26.6510  -46.1626 H         1 UNK         0.3000 
    216 H216       -5.6996  -27.9269  -46.1914 H         1 UNK         0.0600 
    217 H217       -4.3615  -25.9722  -45.4823 H         1 UNK         0.0600 
    218 H218       -4.0423  -25.5418  -47.1596 H         1 UNK         0.0600 
    219 H219       -3.4146  -27.0433  -46.5032 H         1 UNK         0.0600 
    220 H220       -5.6276  -26.0054  -49.2385 H         1 UNK         0.3000 
    221 H221       -5.8753  -28.2704  -50.9569 H         1 UNK         0.0600 
    222 H222       -3.5888  -28.2049  -51.9811 H         1 UNK         0.0600 
    223 H223       -3.0844  -26.9643  -50.8401 H         1 UNK         0.0600 
    224 H224       -3.4347  -28.5988  -50.2874 H         1 UNK         0.0600 
    225 H225       -4.7958  -27.2129  -53.2616 H         1 UNK         0.3000 
    226 H226       -6.1861  -24.6625  -53.7790 H         1 UNK         0.0600 
    227 H227       -6.1741  -26.4279  -55.5481 H         1 UNK         0.0600 
    228 H228       -5.2885  -25.0069  -56.0817 H         1 UNK         0.0600 
    229 H229       -4.4101  -26.4357  -55.5514 H         1 UNK         0.0600 
    230 H230       -5.0478  -22.7189  -54.1395 H         1 UNK         0.3000 
    231 H231       -2.7807  -22.2448  -52.5421 H         1 UNK         0.0600 
    232 H232       -2.8947  -19.9539  -53.5167 H         1 UNK         0.0600 
    233 H233       -4.4991  -20.5234  -53.0861 H         1 UNK         0.0600 
    234 H234       -3.9885  -20.5211  -54.7739 H         1 UNK         0.0600 
    235 H235       -0.6318  -22.1285  -52.9080 H         1 UNK         0.3000 
    236 H236        0.5893  -23.4151  -55.0532 H         1 UNK         0.0600 
    237 H237        1.7802  -21.4324  -53.0506 H         1 UNK         0.0600 
    238 H238        1.6096  -23.1687  -52.8201 H         1 UNK         0.0600 
    239 H239        2.7103  -22.5481  -54.0407 H         1 UNK         0.0600 
    240 H240       -0.4525  -20.1110  -54.9931 H         1 UNK         0.3000 
    241 H241        1.1797  -19.2471  -57.2663 H         1 UNK         0.0600 
    242 H242       -2.0919  -21.0442  -58.7627 H         1 UNK         0.3800 
    243 H243       -1.5866  -21.3488  -57.1212 H         1 UNK         0.3800 
    244 H244       -1.1928  -17.8664  -55.9165 H         1 UNK         0.0800 
    245 H245       -0.2608  -17.1888  -57.2232 H         1 UNK         0.0800 
    246 H246       -0.5859  -16.5523  -53.5589 H         1 UNK         0.0800 
    247 H247       -0.3675  -18.2870  -53.5938 H         1 UNK         0.0800 
@<TRIPOS>BOND
     1    1    2 1    
     2    1  127 1    
     3    1  128 1    
     4    1  129 1    
     5    2    3 2    
     6    2    4 am   BACKBONE|DICT|INTERRES
     7    4    5 1    
     8    4  130 1    
     9    5    6 1    
    10    5   65 1    
    11    5  131 1    
    12    6    7 1    
    13    6  132 1    
    14    6  133 1    
    15    7    8 1    
    16    8    9 1    
    17    8  134 1    
    18    8  135 1    
    19    9   10 ar   
    20    9   14 ar   
    21   10   11 ar   
    22   10  136 1    
    23   11   12 ar   
    24   11  126 1    
    25   12   13 ar   
    26   12  137 1    
    27   13   14 ar   
    28   13   15 1    
    29   14  138 1    
    30   15   16 1    
    31   15  139 1    
    32   15  140 1    
    33   16   17 1    
    34   17   18 1    
    35   17  141 1    
    36   17  142 1    
    37   18   19 1    
    38   18   67 1    
    39   18  143 1    
    40   19   20 am   BACKBONE|DICT|INTERRES
    41   19  144 1    
    42   20   21 2    
    43   20   22 1    
    44   22   23 1    
    45   22   24 1    
    46   22  145 1    
    47   23  146 1    
    48   23  147 1    
    49   23  148 1    
    50   24   25 am   BACKBONE|DICT|INTERRES
    51   24  149 1    
    52   25   26 2    
    53   25   27 1    
    54   27   28 1    
    55   27   29 1    
    56   27  150 1    
    57   28  151 1    
    58   28  152 1    
    59   28  153 1    
    60   29   30 am   BACKBONE|DICT|INTERRES
    61   29  154 1    
    62   30   31 2    
    63   30   32 1    
    64   32   33 1    
    65   32   34 1    
    66   32  155 1    
    67   33  156 1    
    68   33  157 1    
    69   33  158 1    
    70   34   35 am   BACKBONE|DICT|INTERRES
    71   34  159 1    
    72   35   36 2    
    73   35   37 1    
    74   37   38 1    
    75   37   39 1    
    76   37  160 1    
    77   38  161 1    
    78   38  162 1    
    79   38  163 1    
    80   39   40 am   BACKBONE|DICT|INTERRES
    81   39  164 1    
    82   40   41 2    
    83   40   42 1    
    84   42   43 1    
    85   42   44 1    
    86   42  165 1    
    87   43  166 1    
    88   43  167 1    
    89   43  168 1    
    90   44   45 am   BACKBONE|DICT|INTERRES
    91   44  169 1    
    92   45   46 2    
    93   45   47 1    
    94   47   48 1    
    95   47   49 1    
    96   47  170 1    
    97   48  171 1    
    98   48  172 1    
    99   48  173 1    
   100   49   50 am   BACKBONE|DICT|INTERRES
   101   49  174 1    
   102   50   51 2    
   103   50   52 1    
   104   52   53 1    
   105   52   54 1    
   106   52  175 1    
   107   53  176 1    
   108   53  177 1    
   109   53  178 1    
   110   54   55 am   BACKBONE|DICT|INTERRES
   111   54  179 1    
   112   55   56 2    
   113   55   57 1    
   114   57   58 1    
   115   57   59 1    
   116   57  180 1    
   117   58  181 1    
   118   58  182 1    
   119   58  183 1    
   120   59   60 am   BACKBONE|DICT|INTERRES
   121   59  184 1    
   122   60   61 2    
   123   60   62 1    
   124   62   63 1    
   125   62   64 1    
   126   62  185 1    
   127   63  186 1    
   128   63  187 1    
   129   63  188 1    
   130   64   65 am   BACKBONE|DICT|INTERRES
   131   64  189 1    
   132   65   66 2    
   133   67   68 2    
   134   67   69 am   BACKBONE|DICT|INTERRES
   135   69   70 1    
   136   69  190 1    
   137   70   71 1    
   138   70   72 1    
   139   70  191 1    
   140   71  192 1    
   141   71  193 1    
   142   71  194 1    
   143   72   73 2    
   144   72   74 am   BACKBONE|DICT|INTERRES
   145   74   75 1    
   146   74  195 1    
   147   75   76 1    
   148   75   77 1    
   149   75  196 1    
   150   76  197 1    
   151   76  198 1    
   152   76  199 1    
   153   77   78 2    
   154   77   79 am   BACKBONE|DICT|INTERRES
   155   79   80 1    
   156   79  200 1    
   157   80   81 1    
   158   80   82 1    
   159   80  201 1    
   160   81  202 1    
   161   81  203 1    
   162   81  204 1    
   163   82   83 2    
   164   82   84 am   BACKBONE|DICT|INTERRES
   165   84   85 1    
   166   84  205 1    
   167   85   86 1    
   168   85   87 1    
   169   85  206 1    
   170   86  207 1    
   171   86  208 1    
   172   86  209 1    
   173   87   88 2    
   174   87   89 am   BACKBONE|DICT|INTERRES
   175   89   90 1    
   176   89  210 1    
   177   90   91 1    
   178   90   92 1    
   179   90  211 1    
   180   91  212 1    
   181   91  213 1    
   182   91  214 1    
   183   92   93 2    
   184   92   94 am   BACKBONE|DICT|INTERRES
   185   94   95 1    
   186   94  215 1    
   187   95   96 1    
   188   95   97 1    
   189   95  216 1    
   190   96  217 1    
   191   96  218 1    
   192   96  219 1    
   193   97   98 2    
   194   97   99 am   BACKBONE|DICT|INTERRES
   195   99  100 1    
   196   99  220 1    
   197  100  101 1    
   198  100  102 1    
   199  100  221 1    
   200  101  222 1    
   201  101  223 1    
   202  101  224 1    
   203  102  103 2    
   204  102  104 am   BACKBONE|DICT|INTERRES
   205  104  105 1    
   206  104  225 1    
   207  105  106 1    
   208  105  107 1    
   209  105  226 1    
   210  106  227 1    
   211  106  228 1    
   212  106  229 1    
   213  107  108 2    
   214  107  109 am   BACKBONE|DICT|INTERRES
   215  109  110 1    
   216  109  230 1    
   217  110  111 1    
   218  110  112 1    
   219  110  231 1    
   220  111  232 1    
   221  111  233 1    
   222  111  234 1    
   223  112  113 2    
   224  112  114 am   BACKBONE|DICT|INTERRES
   225  114  115 1    
   226  114  235 1    
   227  115  116 1    
   228  115  117 1    
   229  115  236 1    
   230  116  237 1    
   231  116  238 1    
   232  116  239 1    
   233  117  118 2    
   234  117  119 am   BACKBONE|DICT|INTERRES
   235  119  120 1    
   236  119  240 1    
   237  120  121 1    
   238  120  124 1    
   239  120  241 1    
   240  121  122 am   BACKBONE|DICT|INTERRES
   241  121  123 2    
   242  122  242 1    
   243  122  243 1    
   244  124  125 1    
   245  124  244 1    
   246  124  245 1    
   247  125  126 1    
   248  126  246 1    
   249  126  247 1    
@<TRIPOS>SUBSTRUCTURE
     1 UNK         1 GROUP             0       ****    0 ROOT    
