@<TRIPOS>MOLECULE
3R540
247   249    1
SMALL
USER_CHARGES


@<TRIPOS>ATOM
      1 CA          0.7680  -11.5227  -50.9506 C.3       0 UNK        -0.1800 
      2 C           2.1806  -11.7942  -50.4561 C.2       0 UNK         0.5000 
      3 O           2.5353  -11.3799  -49.3520 O.2       0 UNK        -0.5000 
      4 N           2.9857  -12.5064  -51.2564 N.am      1 UNK        -0.5000 
      5 CA          4.3909  -12.8438  -50.9795 C.3       1 UNK         0.1400 
      6 C6          5.1757  -13.2673  -52.2497 C.3       23 UNK        -0.0398 
      7 S7          4.3270  -14.4448  -53.3573 S.3       23 UNK        -0.2404 
      8 C8          4.6731  -16.0565  -52.5671 C.3       23 UNK        -0.0205 
      9 C9          3.4933  -16.7037  -51.8358 C.ar      23 UNK        -0.0193 
     10 C10         2.1849  -16.2073  -51.9083 C.ar      23 UNK        -0.1150 
     11 C11         1.1319  -16.8662  -51.2721 C.ar      23 UNK        -0.0193 
     12 C12         1.3869  -18.0398  -50.5589 C.ar      23 UNK        -0.1150 
     13 C13         2.6857  -18.5542  -50.4676 C.ar      23 UNK        -0.0193 
     14 C14         3.7284  -17.8732  -51.1057 C.ar      23 UNK        -0.1150 
     15 C15         2.9824  -19.8714  -49.7484 C.3       23 UNK        -0.0205 
     16 S16         2.2277  -20.0162  -48.0923 S.3       23 UNK        -0.2404 
     17 C17         0.5731  -20.6837  -48.4775 C.3       23 UNK        -0.0398 
     18 CA          0.2063  -21.9558  -47.6759 C.3       11 UNK         0.1400 
     19 N           0.0980  -21.7113  -46.2336 N.am      11 UNK        -0.5000 
     20 C          -0.1373  -22.6541  -45.3087 C.2       10 UNK         0.5000 
     21 O          -0.1889  -23.8590  -45.5582 O.2       10 UNK        -0.5000 
     22 CA         -0.4400  -22.1657  -43.8793 C.3       10 UNK         0.1400 
     23 CB          0.8514  -21.8845  -43.0968 C.3       10 UNK        -0.1800 
     24 N          -1.3062  -20.9835  -43.8720 N.am      10 UNK        -0.5000 
     25 C          -2.5838  -20.9905  -44.2801 C.2       9 UNK         0.5000 
     26 O          -3.1746  -22.0106  -44.6301 O.2       9 UNK        -0.5000 
     27 CA         -3.3176  -19.6393  -44.3527 C.3       9 UNK         0.1400 
     28 CB         -3.9064  -19.2648  -42.9851 C.3       9 UNK        -0.1800 
     29 N          -2.4593  -18.5593  -44.8357 N.am      9 UNK        -0.5000 
     30 C          -1.9746  -18.4675  -46.0818 C.2       8 UNK         0.5000 
     31 O          -2.2788  -19.2376  -46.9938 O.2       8 UNK        -0.5000 
     32 CA         -0.9440  -17.3536  -46.3464 C.3       8 UNK         0.1400 
     33 CB         -1.6488  -16.0439  -46.7094 C.3       8 UNK        -0.1800 
     34 N          -0.0417  -17.1249  -45.2171 N.am      8 UNK        -0.5000 
     35 C           0.8081  -18.0418  -44.7340 C.2       7 UNK         0.5000 
     36 O           0.9252  -19.1717  -45.2007 O.2       7 UNK        -0.5000 
     37 CA          1.6086  -17.6606  -43.4793 C.3       7 UNK         0.1400 
     38 CB          2.8022  -16.7611  -43.8280 C.3       7 UNK        -0.1800 
     39 N           0.7618  -17.0055  -42.4848 N.am      7 UNK        -0.5000 
     40 C          -0.2004  -17.6297  -41.7908 C.2       6 UNK         0.5000 
     41 O          -0.4303  -18.8361  -41.8736 O.2       6 UNK        -0.5000 
     42 CA         -1.0794  -16.7464  -40.8870 C.3       6 UNK         0.1400 
     43 CB         -0.4125  -16.5374  -39.5194 C.3       6 UNK        -0.1800 
     44 N          -1.3688  -15.4441  -41.4902 N.am      6 UNK        -0.5000 
     45 C          -2.1181  -15.2674  -42.5883 C.2       5 UNK         0.5000 
     46 O          -2.6798  -16.1837  -43.1854 O.2       5 UNK        -0.5000 
     47 CA         -2.2123  -13.8324  -43.1372 C.3       5 UNK         0.1400 
     48 CB         -3.3475  -13.0619  -42.4468 C.3       5 UNK        -0.1800 
     49 N          -0.9578  -13.0893  -42.9917 N.am      5 UNK        -0.5000 
     50 C           0.1774  -13.3977  -43.6305 C.2       4 UNK         0.5000 
     51 O           0.2902  -14.3419  -44.4168 O.2       4 UNK        -0.5000 
     52 CA          1.4029  -12.5425  -43.2963 C.3       4 UNK         0.1400 
     53 CB          2.1688  -13.1385  -42.1004 C.3       4 UNK        -0.1800 
     54 N           2.2603  -12.4850  -44.4736 N.am      4 UNK        -0.5000 
     55 C           3.2123  -11.5746  -44.7010 C.2       3 UNK         0.5000 
     56 O           3.4928  -10.6821  -43.8987 O.2       3 UNK        -0.5000 
     57 CA          3.9520  -11.6231  -46.0554 C.3       3 UNK         0.1400 
     58 CB          5.4807  -11.4999  -45.8872 C.3       3 UNK        -0.1800 
     59 N           3.6106  -12.7574  -46.9230 N.am      3 UNK        -0.5000 
     60 C           3.8959  -14.0588  -46.7461 C.2       2 UNK         0.5000 
     61 O           4.4342  -14.5147  -45.7385 O.2       2 UNK        -0.5000 
     62 CA          3.5289  -15.0121  -47.9049 C.3       2 UNK         0.1400 
     63 CB          2.1496  -15.6358  -47.6571 C.3       2 UNK        -0.1800 
     64 N           3.5234  -14.3396  -49.2058 N.am      2 UNK        -0.5000 
     65 C           4.6081  -13.8128  -49.7931 C.2       1 UNK         0.5000 
     66 O           5.7554  -14.0203  -49.3949 O.2       1 UNK        -0.5000 
     67 C          -1.0910  -22.5753  -48.2380 C.2       11 UNK         0.5000 
     68 O          -1.0188  -23.5510  -48.9834 O.2       11 UNK        -0.5000 
     69 N          -2.2508  -22.0227  -47.8501 N.am      12 UNK        -0.5000 
     70 CA         -3.5716  -22.5200  -48.2388 C.3       12 UNK         0.1400 
     71 CB         -4.6597  -21.5333  -47.7967 C.3       12 UNK        -0.1800 
     72 C          -3.8594  -23.9295  -47.7017 C.2       12 UNK         0.5000 
     73 O          -4.3843  -24.7559  -48.4448 O.2       12 UNK        -0.5000 
     74 N          -3.4779  -24.1968  -46.4458 N.am      13 UNK        -0.5000 
     75 CA         -3.5716  -25.5129  -45.8141 C.3       13 UNK         0.1400 
     76 CB         -3.2085  -25.4046  -44.3257 C.3       13 UNK        -0.1800 
     77 C          -2.7009  -26.5663  -46.5225 C.2       13 UNK         0.5000 
     78 O          -3.1825  -27.6683  -46.7864 O.2       13 UNK        -0.5000 
     79 N          -1.4608  -26.1928  -46.8717 N.am      14 UNK        -0.5000 
     80 CA         -0.5324  -27.0165  -47.6515 C.3       14 UNK         0.1400 
     81 CB          0.8495  -26.3463  -47.6767 C.3       14 UNK        -0.1800 
     82 C          -1.0334  -27.2977  -49.0827 C.2       14 UNK         0.5000 
     83 O          -0.8460  -28.4052  -49.5871 O.2       14 UNK        -0.5000 
     84 N          -1.6961  -26.3059  -49.6919 N.am      15 UNK        -0.5000 
     85 CA         -2.3489  -26.3980  -50.9991 C.3       15 UNK         0.1400 
     86 CB         -2.4963  -24.9806  -51.5783 C.3       15 UNK        -0.1800 
     87 C          -3.7206  -27.1048  -50.9635 C.2       15 UNK         0.5000 
     88 O          -4.3408  -27.2428  -52.0175 O.2       15 UNK        -0.5000 
     89 N          -4.1995  -27.4996  -49.7730 N.am      16 UNK        -0.5000 
     90 CA         -5.5086  -28.1083  -49.5014 C.3       16 UNK         0.1400 
     91 CB         -5.5724  -29.5357  -50.0829 C.3       16 UNK        -0.1800 
     92 C          -6.6919  -27.2197  -49.9496 C.2       16 UNK         0.5000 
     93 O          -7.7028  -27.7276  -50.4377 O.2       16 UNK        -0.5000 
     94 N          -6.5179  -25.8993  -49.7943 N.am      17 UNK        -0.5000 
     95 CA         -7.4134  -24.8031  -50.1757 C.3       17 UNK         0.1400 
     96 CB         -8.7460  -24.8856  -49.4034 C.3       17 UNK        -0.1800 
     97 C          -7.6223  -24.6375  -51.6977 C.2       17 UNK         0.5000 
     98 O          -8.4948  -23.8671  -52.1015 O.2       17 UNK        -0.5000 
     99 N          -6.8196  -25.3244  -52.5246 N.am      18 UNK        -0.5000 
    100 CA        -6.8808  -25.2415  -53.9870 C.3       18 UNK         0.1400 
    101 CB        -6.3145  -26.5374  -54.5879 C.3       18 UNK        -0.1800 
    102 C         -6.1373  -24.0163  -54.5556 C.2       18 UNK         0.5000 
    103 O         -6.3231  -23.6925  -55.7297 O.2       18 UNK        -0.5000 
    104 N         -5.3078  -23.3644  -53.7334 N.am      19 UNK        -0.5000 
    105 CA        -4.5028  -22.1973  -54.0752 C.3       19 UNK         0.1400 
    106 CB        -3.2322  -22.6447  -54.8270 C.3       19 UNK        -0.1800 
    107 C         -4.1652  -21.4202  -52.7916 C.2       19 UNK         0.5000 
    108 O         -4.5564  -21.8390  -51.6983 O.2       19 UNK        -0.5000 
    109 N         -3.4285  -20.3142  -52.9613 N.am      20 UNK        -0.5000 
    110 CA        -2.9588  -19.3885  -51.9279 C.3       20 UNK         0.1400 
    111 CB        -1.9797  -20.0826  -50.9575 C.3       20 UNK        -0.1800 
    112 C         -4.1125  -18.6229  -51.2450 C.2       20 UNK         0.5000 
    113 O         -5.0249  -18.1814  -51.9461 O.2       20 UNK        -0.5000 
    114 N         -4.0218  -18.4230  -49.9194 N.am      21 UNK        -0.5000 
    115 CA        -4.9071  -17.5945  -49.0866 C.3       21 UNK         0.1400 
    116 CB        -6.3416  -18.1649  -49.0512 C.3       21 UNK        -0.1800 
    117 C         -4.8608  -16.0976  -49.4730 C.2       21 UNK         0.5000 
    118 O         -5.8786  -15.4052  -49.4101 O.2       21 UNK        -0.5000 
    119 N         -3.6730  -15.6359  -49.8840 N.am      22 UNK        -0.5000 
    120 CA        -3.3692  -14.2470  -50.2525 C.3       22 UNK         0.1400 
    121 C         -3.3953  -13.2398  -49.0637 C.2       22 UNK         0.5000 
    122 N         -3.4113  -11.9437  -49.3472 N.am      22 UNK        -0.7600 
    123 O         -3.3969  -13.6072  -47.8917 O.2       22 UNK        -0.5000 
    124 C124       -2.0595  -14.1615  -51.0819 C.3       23 UNK        -0.0398 
    125 S125       -0.5849  -14.9159  -50.2962 S.3       23 UNK        -0.2404 
    126 C126       -0.2829  -16.3257  -51.4075 C.3       23 UNK        -0.0205 
    127 H127        0.6468  -10.4633  -51.1762 H         1 UNK         0.0600 
    128 H128        0.0441  -11.7929  -50.1816 H         1 UNK         0.0600 
    129 H129        0.5384  -12.0943  -51.8502 H         1 UNK         0.0600 
    130 H130        2.6377  -12.8374  -52.1454 H         1 UNK         0.3000 
    131 H131        4.8554  -11.9141  -50.6430 H         1 UNK         0.0600 
    132 H132        6.1700  -13.6456  -52.0050 H         1 UNK         0.0800 
    133 H133        5.3612  -12.3735  -52.8466 H         1 UNK         0.0800 
    134 H134        5.0000  -16.7439  -53.3483 H         1 UNK         0.0800 
    135 H135        5.5145  -15.9581  -51.8799 H         1 UNK         0.0800 
    136 H136        1.9602  -15.3158  -52.4734 H         1 UNK         0.1150 
    137 H137        0.5681  -18.5509  -50.0829 H         1 UNK         0.1150 
    138 H138        4.7323  -18.2717  -51.0586 H         1 UNK         0.1150 
    139 H139        2.6731  -20.7050  -50.3796 H         1 UNK         0.0800 
    140 H140        4.0597  -19.9832  -49.6176 H         1 UNK         0.0800 
    141 H141        0.5250  -20.8950  -49.5468 H         1 UNK         0.0800 
    142 H142       -0.1541  -19.8953  -48.2910 H         1 UNK         0.0800 
    143 H143        1.0020  -22.6893  -47.8213 H         1 UNK         0.0600 
    144 H144        0.2118  -20.7481  -45.9256 H         1 UNK         0.3000 
    145 H145       -0.9713  -22.9677  -43.3627 H         1 UNK         0.0600 
    146 H146        0.6328  -21.5656  -42.0776 H         1 UNK         0.0600 
    147 H147        1.4676  -22.7820  -43.0326 H         1 UNK         0.0600 
    148 H148        1.4550  -21.1094  -43.5670 H         1 UNK         0.0600 
    149 H149       -0.8912  -20.1128  -43.5620 H         1 UNK         0.3000 
    150 H150       -4.1452  -19.7478  -45.0564 H         1 UNK         0.0600 
    151 H151       -4.5671  -20.0502  -42.6162 H         1 UNK         0.0600 
    152 H152       -4.4936  -18.3485  -43.0471 H         1 UNK         0.0600 
    153 H153       -3.1275  -19.1126  -42.2380 H         1 UNK         0.0600 
    154 H154       -2.2307  -17.8278  -44.1697 H         1 UNK         0.3000 
    155 H155       -0.3346  -17.6587  -47.1996 H         1 UNK         0.0600 
    156 H156       -2.2856  -16.1795  -47.5815 H         1 UNK         0.0600 
    157 H157       -0.9343  -15.2573  -46.9503 H         1 UNK         0.0600 
    158 H158       -2.2797  -15.6839  -45.8971 H         1 UNK         0.0600 
    159 H159       -0.0528  -16.1964  -44.8043 H         1 UNK         0.3000 
    160 H160        2.0001  -18.5815  -43.0418 H         1 UNK         0.0600 
    161 H161        2.4839  -15.8039  -44.2392 H         1 UNK         0.0600 
    162 H162        3.4450  -17.2361  -44.5703 H         1 UNK         0.0600 
    163 H163        3.4151  -16.5599  -42.9495 H         1 UNK         0.0600 
    164 H164        0.8564  -16.0061  -42.3922 H         1 UNK         0.3000 
    165 H165       -2.0263  -17.2675  -40.7305 H         1 UNK         0.0600 
    166 H166       -1.0603  -15.9748  -38.8469 H         1 UNK         0.0600 
    167 H167       -0.1997  -17.4936  -39.0395 H         1 UNK         0.0600 
    168 H168        0.5310  -15.9971  -39.6077 H         1 UNK         0.0600 
    169 H169       -0.9490  -14.6351  -41.0572 H         1 UNK         0.3000 
    170 H170       -2.4444  -13.8983  -44.2023 H         1 UNK         0.0600 
    171 H171       -4.2975  -13.5866  -42.5572 H         1 UNK         0.0600 
    172 H172       -3.1623  -12.9390  -41.3790 H         1 UNK         0.0600 
    173 H173       -3.4731  -12.0707  -42.8829 H         1 UNK         0.0600 
    174 H174       -0.9705  -12.3021  -42.3589 H         1 UNK         0.3000 
    175 H175        1.0666  -11.5330  -43.0506 H         1 UNK         0.0600 
    176 H176        2.5604  -14.1302  -42.3277 H         1 UNK         0.0600 
    177 H177        3.0106  -12.5080  -41.8144 H         1 UNK         0.0600 
    178 H178        1.5245  -13.2300  -41.2253 H         1 UNK         0.0600 
    179 H179        2.0610  -13.1856  -45.1758 H         1 UNK         0.3000 
    180 H180        3.6172  -10.7389  -46.5995 H         1 UNK         0.0600 
    181 H181        5.8899  -12.3124  -45.2863 H         1 UNK         0.0600 
    182 H182        5.7467  -10.5651  -45.3925 H         1 UNK         0.0600 
    183 H183        5.9856  -11.5088  -46.8533 H         1 UNK         0.0600 
    184 H184        3.1583  -12.4889  -47.7921 H         1 UNK         0.3000 
    185 H185        4.2712  -15.8123  -47.9350 H         1 UNK         0.0600 
    186 H186        1.3651  -14.8796  -47.6177 H         1 UNK         0.0600 
    187 H187        1.8903  -16.3492  -48.4367 H         1 UNK         0.0600 
    188 H188        2.1363  -16.1761  -46.7120 H         1 UNK         0.0600 
    189 H189        2.6201  -14.1451  -49.6123 H         1 UNK         0.3000 
    190 H190       -2.2311  -21.1884  -47.2723 H         1 UNK         0.3000 
    191 H191       -3.5956  -22.5797  -49.3272 H         1 UNK         0.0600 
    192 H192       -4.7449  -21.4786  -46.7122 H         1 UNK         0.0600 
    193 H193       -5.6335  -21.8295  -48.1883 H         1 UNK         0.0600 
    194 H194       -4.4509  -20.5314  -48.1656 H         1 UNK         0.0600 
    195 H195       -3.1186  -23.4376  -45.8729 H         1 UNK         0.3000 
    196 H196       -4.6111  -25.8397  -45.8852 H         1 UNK         0.0600 
    197 H197       -3.3086  -26.3702  -43.8288 H         1 UNK         0.0600 
    198 H198       -3.8652  -24.7034  -43.8104 H         1 UNK         0.0600 
    199 H199       -2.1823  -25.0669  -44.1828 H         1 UNK         0.0600 
    200 H200       -1.1271  -25.2769  -46.5850 H         1 UNK         0.3000 
    201 H201       -0.4334  -27.9773  -47.1422 H         1 UNK         0.0600 
    202 H202        1.2390  -26.2092  -46.6677 H         1 UNK         0.0600 
    203 H203        0.8151  -25.3679  -48.1561 H         1 UNK         0.0600 
    204 H204        1.5694  -26.9556  -48.2243 H         1 UNK         0.0600 
    205 H205       -1.7397  -25.4014  -49.2325 H         1 UNK         0.3000 
    206 H206       -1.7074  -26.9727  -51.6699 H         1 UNK         0.0600 
    207 H207       -1.5305  -24.4813  -51.6562 H         1 UNK         0.0600 
    208 H208       -2.9277  -25.0096  -52.5792 H         1 UNK         0.0600 
    209 H209       -3.1447  -24.3591  -50.9605 H         1 UNK         0.0600 
    210 H210       -3.6351  -27.3108  -48.9541 H         1 UNK         0.3000 
    211 H211       -5.5858  -28.1895  -48.4164 H         1 UNK         0.0600 
    212 H212       -5.5564  -29.5302  -51.1732 H         1 UNK         0.0600 
    213 H213       -6.4851  -30.0447  -49.7716 H         1 UNK         0.0600 
    214 H214       -4.7323  -30.1385  -49.7380 H         1 UNK         0.0600 
    215 H215       -5.6449  -25.5926  -49.3636 H         1 UNK         0.3000 
    216 H216       -6.9073  -23.8925  -49.8517 H         1 UNK         0.0600 
    217 H217       -9.3437  -23.9862  -49.5555 H         1 UNK         0.0600 
    218 H218       -8.5746  -24.9805  -48.3312 H         1 UNK         0.0600 
    219 H219       -9.3495  -25.7348  -49.7246 H         1 UNK         0.0600 
    220 H220       -6.1232  -25.9498  -52.1361 H         1 UNK         0.3000 
    221 H221       -7.9264  -25.1625  -54.2917 H         1 UNK         0.0600 
    222 H222       -5.2428  -26.6291  -54.4101 H         1 UNK         0.0600 
    223 H223       -6.8026  -27.4172  -54.1679 H         1 UNK         0.0600 
    224 H224       -6.4673  -26.5642  -55.6675 H         1 UNK         0.0600 
    225 H225       -5.2592  -23.6340  -52.7596 H         1 UNK         0.3000 
    226 H226       -5.0905  -21.5355  -54.7148 H         1 UNK         0.0600 
    227 H227       -3.4783  -23.2329  -55.7111 H         1 UNK         0.0600 
    228 H228       -2.6491  -21.7894  -55.1690 H         1 UNK         0.0600 
    229 H229       -2.5836  -23.2506  -54.1942 H         1 UNK         0.0600 
    230 H230       -3.1952  -20.0457  -53.9066 H         1 UNK         0.3000 
    231 H231       -2.3895  -18.6271  -52.4621 H         1 UNK         0.0600 
    232 H232       -1.1485  -20.5342  -51.4990 H         1 UNK         0.0600 
    233 H233       -2.4680  -20.8696  -50.3884 H         1 UNK         0.0600 
    234 H234       -1.5541  -19.3769  -50.2460 H         1 UNK         0.0600 
    235 H235       -3.2493  -18.8494  -49.4262 H         1 UNK         0.3000 
    236 H236       -4.5102  -17.6549  -48.0721 H         1 UNK         0.0600 
    237 H237       -6.9473  -17.6474  -48.3066 H         1 UNK         0.0600 
    238 H238       -6.8463  -18.0568  -50.0114 H         1 UNK         0.0600 
    239 H239       -6.3454  -19.2224  -48.7906 H         1 UNK         0.0600 
    240 H240       -2.8838  -16.2617  -49.8751 H         1 UNK         0.3000 
    241 H241       -4.1795  -13.9292  -50.9118 H         1 UNK         0.0600 
    242 H242       -3.4272  -11.2827  -48.5864 H         1 UNK         0.3800 
    243 H243       -3.4282  -11.6035  -50.2958 H         1 UNK         0.3800 
    244 H244       -2.2322  -14.6356  -52.0484 H         1 UNK         0.0800 
    245 H245       -1.8228  -13.1246  -51.3227 H         1 UNK         0.0800 
    246 H246       -0.4408  -16.0239  -52.4440 H         1 UNK         0.0800 
    247 H247       -1.0136  -17.1054  -51.1976 H         1 UNK         0.0800 
@<TRIPOS>BOND
     1    1    2 1    
     2    1  127 1    
     3    1  128 1    
     4    1  129 1    
     5    2    3 2    
     6    2    4 am   BACKBONE|DICT|INTERRES
     7    4    5 1    
     8    4  130 1    
     9    5    6 1    
    10    5   65 1    
    11    5  131 1    
    12    6    7 1    
    13    6  132 1    
    14    6  133 1    
    15    7    8 1    
    16    8    9 1    
    17    8  134 1    
    18    8  135 1    
    19    9   10 ar   
    20    9   14 ar   
    21   10   11 ar   
    22   10  136 1    
    23   11   12 ar   
    24   11  126 1    
    25   12   13 ar   
    26   12  137 1    
    27   13   14 ar   
    28   13   15 1    
    29   14  138 1    
    30   15   16 1    
    31   15  139 1    
    32   15  140 1    
    33   16   17 1    
    34   17   18 1    
    35   17  141 1    
    36   17  142 1    
    37   18   19 1    
    38   18   67 1    
    39   18  143 1    
    40   19   20 am   BACKBONE|DICT|INTERRES
    41   19  144 1    
    42   20   21 2    
    43   20   22 1    
    44   22   23 1    
    45   22   24 1    
    46   22  145 1    
    47   23  146 1    
    48   23  147 1    
    49   23  148 1    
    50   24   25 am   BACKBONE|DICT|INTERRES
    51   24  149 1    
    52   25   26 2    
    53   25   27 1    
    54   27   28 1    
    55   27   29 1    
    56   27  150 1    
    57   28  151 1    
    58   28  152 1    
    59   28  153 1    
    60   29   30 am   BACKBONE|DICT|INTERRES
    61   29  154 1    
    62   30   31 2    
    63   30   32 1    
    64   32   33 1    
    65   32   34 1    
    66   32  155 1    
    67   33  156 1    
    68   33  157 1    
    69   33  158 1    
    70   34   35 am   BACKBONE|DICT|INTERRES
    71   34  159 1    
    72   35   36 2    
    73   35   37 1    
    74   37   38 1    
    75   37   39 1    
    76   37  160 1    
    77   38  161 1    
    78   38  162 1    
    79   38  163 1    
    80   39   40 am   BACKBONE|DICT|INTERRES
    81   39  164 1    
    82   40   41 2    
    83   40   42 1    
    84   42   43 1    
    85   42   44 1    
    86   42  165 1    
    87   43  166 1    
    88   43  167 1    
    89   43  168 1    
    90   44   45 am   BACKBONE|DICT|INTERRES
    91   44  169 1    
    92   45   46 2    
    93   45   47 1    
    94   47   48 1    
    95   47   49 1    
    96   47  170 1    
    97   48  171 1    
    98   48  172 1    
    99   48  173 1    
   100   49   50 am   BACKBONE|DICT|INTERRES
   101   49  174 1    
   102   50   51 2    
   103   50   52 1    
   104   52   53 1    
   105   52   54 1    
   106   52  175 1    
   107   53  176 1    
   108   53  177 1    
   109   53  178 1    
   110   54   55 am   BACKBONE|DICT|INTERRES
   111   54  179 1    
   112   55   56 2    
   113   55   57 1    
   114   57   58 1    
   115   57   59 1    
   116   57  180 1    
   117   58  181 1    
   118   58  182 1    
   119   58  183 1    
   120   59   60 am   BACKBONE|DICT|INTERRES
   121   59  184 1    
   122   60   61 2    
   123   60   62 1    
   124   62   63 1    
   125   62   64 1    
   126   62  185 1    
   127   63  186 1    
   128   63  187 1    
   129   63  188 1    
   130   64   65 am   BACKBONE|DICT|INTERRES
   131   64  189 1    
   132   65   66 2    
   133   67   68 2    
   134   67   69 am   BACKBONE|DICT|INTERRES
   135   69   70 1    
   136   69  190 1    
   137   70   71 1    
   138   70   72 1    
   139   70  191 1    
   140   71  192 1    
   141   71  193 1    
   142   71  194 1    
   143   72   73 2    
   144   72   74 am   BACKBONE|DICT|INTERRES
   145   74   75 1    
   146   74  195 1    
   147   75   76 1    
   148   75   77 1    
   149   75  196 1    
   150   76  197 1    
   151   76  198 1    
   152   76  199 1    
   153   77   78 2    
   154   77   79 am   BACKBONE|DICT|INTERRES
   155   79   80 1    
   156   79  200 1    
   157   80   81 1    
   158   80   82 1    
   159   80  201 1    
   160   81  202 1    
   161   81  203 1    
   162   81  204 1    
   163   82   83 2    
   164   82   84 am   BACKBONE|DICT|INTERRES
   165   84   85 1    
   166   84  205 1    
   167   85   86 1    
   168   85   87 1    
   169   85  206 1    
   170   86  207 1    
   171   86  208 1    
   172   86  209 1    
   173   87   88 2    
   174   87   89 am   BACKBONE|DICT|INTERRES
   175   89   90 1    
   176   89  210 1    
   177   90   91 1    
   178   90   92 1    
   179   90  211 1    
   180   91  212 1    
   181   91  213 1    
   182   91  214 1    
   183   92   93 2    
   184   92   94 am   BACKBONE|DICT|INTERRES
   185   94   95 1    
   186   94  215 1    
   187   95   96 1    
   188   95   97 1    
   189   95  216 1    
   190   96  217 1    
   191   96  218 1    
   192   96  219 1    
   193   97   98 2    
   194   97   99 am   BACKBONE|DICT|INTERRES
   195   99  100 1    
   196   99  220 1    
   197  100  101 1    
   198  100  102 1    
   199  100  221 1    
   200  101  222 1    
   201  101  223 1    
   202  101  224 1    
   203  102  103 2    
   204  102  104 am   BACKBONE|DICT|INTERRES
   205  104  105 1    
   206  104  225 1    
   207  105  106 1    
   208  105  107 1    
   209  105  226 1    
   210  106  227 1    
   211  106  228 1    
   212  106  229 1    
   213  107  108 2    
   214  107  109 am   BACKBONE|DICT|INTERRES
   215  109  110 1    
   216  109  230 1    
   217  110  111 1    
   218  110  112 1    
   219  110  231 1    
   220  111  232 1    
   221  111  233 1    
   222  111  234 1    
   223  112  113 2    
   224  112  114 am   BACKBONE|DICT|INTERRES
   225  114  115 1    
   226  114  235 1    
   227  115  116 1    
   228  115  117 1    
   229  115  236 1    
   230  116  237 1    
   231  116  238 1    
   232  116  239 1    
   233  117  118 2    
   234  117  119 am   BACKBONE|DICT|INTERRES
   235  119  120 1    
   236  119  240 1    
   237  120  121 1    
   238  120  124 1    
   239  120  241 1    
   240  121  122 am   BACKBONE|DICT|INTERRES
   241  121  123 2    
   242  122  242 1    
   243  122  243 1    
   244  124  125 1    
   245  124  244 1    
   246  124  245 1    
   247  125  126 1    
   248  126  246 1    
   249  126  247 1    
@<TRIPOS>SUBSTRUCTURE
     1 UNK         1 GROUP             0       ****    0 ROOT    
