@<TRIPOS>MOLECULE
3R540
247   249    1
SMALL
USER_CHARGES


@<TRIPOS>ATOM
      1 CA          2.4061  -15.1255  -47.0342 C.3       0 UNK        -0.1800 
      2 C           2.7139  -13.9998  -48.0198 C.2       0 UNK         0.5000 
      3 O           3.3099  -13.0016  -47.6225 O.2       0 UNK        -0.5000 
      4 N           2.3394  -14.1012  -49.3036 N.am      1 UNK        -0.5000 
      5 CA          1.6338  -15.2236  -49.9427 C.3       1 UNK         0.1400 
      6 C6          1.8743  -15.2637  -51.4733 C.3       23 UNK        -0.0398 
      7 S7          3.6442  -15.2963  -51.9312 S.3       23 UNK        -0.2404 
      8 C8          3.7457  -16.7499  -53.0408 C.3       23 UNK        -0.0205 
      9 C9          3.5564  -18.1239  -52.3914 C.ar      23 UNK        -0.0193 
     10 C10         3.4804  -19.2491  -53.2192 C.ar      23 UNK        -0.1150 
     11 C11         3.3331  -20.5311  -52.6796 C.ar      23 UNK        -0.0193 
     12 C12         3.2180  -20.6848  -51.2950 C.ar      23 UNK        -0.1150 
     13 C13         3.2932  -19.5737  -50.4528 C.ar      23 UNK        -0.0193 
     14 C14         3.4902  -18.3063  -51.0054 C.ar      23 UNK        -0.1150 
     15 C15         3.2121  -19.7413  -48.9430 C.3       23 UNK        -0.0205 
     16 S16         1.9229  -18.6962  -48.1906 S.3       23 UNK        -0.2404 
     17 C17         0.3643  -19.4498  -48.7793 C.3       23 UNK        -0.0398 
     18 CA          0.1754  -20.9326  -48.3695 C.3       11 UNK         0.1400 
     19 N           0.5867  -21.2000  -46.9890 N.am      11 UNK        -0.5000 
     20 C           0.7918  -22.4178  -46.4734 C.2       10 UNK         0.5000 
     21 O           0.6722  -23.4587  -47.1177 O.2       10 UNK        -0.5000 
     22 CA          1.1435  -22.4789  -44.9779 C.3       10 UNK         0.1400 
     23 CB          2.6570  -22.3251  -44.7684 C.3       10 UNK        -0.1800 
     24 N           0.4270  -21.4531  -44.2169 N.am      10 UNK        -0.5000 
     25 C          -0.8842  -21.5178  -43.9397 C.2       9 UNK         0.5000 
     26 O          -1.5928  -22.4760  -44.2491 O.2       9 UNK        -0.5000 
     27 CA         -1.5245  -20.2974  -43.2464 C.3       9 UNK         0.1400 
     28 CB         -1.4164  -20.4295  -41.7207 C.3       9 UNK        -0.1800 
     29 N          -0.9477  -19.0185  -43.6684 N.am      9 UNK        -0.5000 
     30 C          -0.9793  -18.5543  -44.9261 C.2       8 UNK         0.5000 
     31 O          -1.5759  -19.1198  -45.8403 O.2       8 UNK        -0.5000 
     32 CA         -0.1654  -17.2892  -45.2487 C.3       8 UNK         0.1400 
     33 CB         -1.0656  -16.0472  -45.3038 C.3       8 UNK        -0.1800 
     34 N           0.9625  -17.0433  -44.3476 N.am      8 UNK        -0.5000 
     35 C           2.0110  -17.8619  -44.1722 C.2       7 UNK         0.5000 
     36 O           2.0964  -18.9750  -44.6903 O.2       7 UNK        -0.5000 
     37 CA          3.1311  -17.3778  -43.2379 C.3       7 UNK         0.1400 
     38 CB          4.0933  -16.4374  -43.9786 C.3       7 UNK        -0.1800 
     39 N           2.5800  -16.6824  -42.0765 N.am      7 UNK        -0.5000 
     40 C           2.5997  -17.1510  -40.8224 C.2       6 UNK         0.5000 
     41 O           3.1652  -18.1923  -40.4860 O.2       6 UNK        -0.5000 
     42 CA          1.8479  -16.3273  -39.7558 C.3       6 UNK         0.1400 
     43 CB          2.8102  -15.3592  -39.0509 C.3       6 UNK        -0.1800 
     44 N           0.7071  -15.5682  -40.2754 N.am      6 UNK        -0.5000 
     45 C          -0.3675  -16.1012  -40.8725 C.2       5 UNK         0.5000 
     46 O          -0.5225  -17.3081  -41.0586 O.2       5 UNK        -0.5000 
     47 CA         -1.4377  -15.1211  -41.3864 C.3       5 UNK         0.1400 
     48 CB         -2.4277  -14.7832  -40.2617 C.3       5 UNK        -0.1800 
     49 N          -0.9547  -13.8681  -41.9840 N.am      5 UNK        -0.5000 
     50 C           0.0665  -13.6818  -42.8329 C.2       4 UNK         0.5000 
     51 O           0.8841  -14.5520  -43.1376 O.2       4 UNK        -0.5000 
     52 CA          0.1430  -12.2932  -43.4957 C.3       4 UNK         0.1400 
     53 CB          1.5225  -12.0172  -44.1185 C.3       4 UNK        -0.1800 
     54 N          -0.8750  -12.1583  -44.5382 N.am      4 UNK        -0.5000 
     55 C          -2.1848  -11.9694  -44.3443 C.2       3 UNK         0.5000 
     56 O          -2.6894  -11.8558  -43.2259 O.2       3 UNK        -0.5000 
     57 CA         -3.0966  -11.8974  -45.5884 C.3       3 UNK         0.1400 
     58 CB         -3.1866  -10.4523  -46.1145 C.3       3 UNK        -0.1800 
     59 N          -2.7876  -12.8390  -46.6788 N.am      3 UNK        -0.5000 
     60 C          -1.7114  -12.8829  -47.4757 C.2       2 UNK         0.5000 
     61 O          -0.7249  -12.1522  -47.3471 O.2       2 UNK        -0.5000 
     62 CA         -1.7462  -13.9152  -48.6134 C.3       2 UNK         0.1400 
     63 CB         -2.6201  -13.4272  -49.7809 C.3       2 UNK        -0.1800 
     64 N          -0.3827  -14.1196  -49.0795 N.am      2 UNK        -0.5000 
     65 C           0.1185  -15.2287  -49.6332 C.2       1 UNK         0.5000 
     66 O          -0.5491  -16.2335  -49.8807 O.2       1 UNK        -0.5000 
     67 C          -1.2720  -21.4067  -48.6205 C.2       11 UNK         0.5000 
     68 O          -1.5605  -21.9421  -49.6902 O.2       11 UNK        -0.5000 
     69 N          -2.1388  -21.2440  -47.6105 N.am      12 UNK        -0.5000 
     70 CA         -3.5030  -21.7669  -47.5642 C.3       12 UNK         0.1400 
     71 CB         -4.2352  -21.1760  -46.3502 C.3       12 UNK        -0.1800 
     72 C          -3.5459  -23.3020  -47.5275 C.2       12 UNK         0.5000 
     73 O          -4.3498  -23.9022  -48.2404 O.2       12 UNK        -0.5000 
     74 N          -2.6532  -23.9145  -46.7364 N.am      13 UNK        -0.5000 
     75 CA         -2.4729  -25.3660  -46.6731 C.3       13 UNK         0.1400 
     76 CB         -1.5380  -25.7262  -45.5092 C.3       13 UNK        -0.1800 
     77 C          -1.9582  -25.9526  -48.0014 C.2       13 UNK         0.5000 
     78 O          -2.4310  -27.0103  -48.4163 O.2       13 UNK        -0.5000 
     79 N          -1.0400  -25.2347  -48.6646 N.am      14 UNK        -0.5000 
     80 CA         -0.5237  -25.5625  -49.9947 C.3       14 UNK         0.1400 
     81 CB          0.7031  -24.6890  -50.2961 C.3       14 UNK        -0.1800 
     82 C          -1.5876  -25.4248  -51.1022 C.2       14 UNK         0.5000 
     83 O          -1.6120  -26.2451  -52.0198 O.2       14 UNK        -0.5000 
     84 N          -2.4618  -24.4137  -50.9875 N.am      15 UNK        -0.5000 
     85 CA         -3.6333  -24.2243  -51.8499 C.3       15 UNK         0.1400 
     86 CB         -4.2039  -22.8116  -51.6334 C.3       15 UNK        -0.1800 
     87 C          -4.7387  -25.2693  -51.5987 C.2       15 UNK         0.5000 
     88 O          -5.5270  -25.5442  -52.5037 O.2       15 UNK        -0.5000 
     89 N          -4.7815  -25.8023  -50.3685 N.am      16 UNK        -0.5000 
     90 CA         -5.8062  -26.6780  -49.7940 C.3       16 UNK         0.1400 
     91 CB         -5.8473  -28.0391  -50.5189 C.3       16 UNK        -0.1800 
     92 C          -7.1798  -25.9785  -49.7146 C.2       16 UNK         0.5000 
     93 O          -8.2131  -26.6058  -49.9564 O.2       16 UNK        -0.5000 
     94 N          -7.1588  -24.6798  -49.3919 N.am      17 UNK        -0.5000 
     95 CA         -8.3127  -23.7866  -49.3563 C.3       17 UNK         0.1400 
     96 CB         -8.7815  -23.4654  -50.7957 C.3       17 UNK        -0.1800 
     97 C          -7.9376  -22.5423  -48.5308 C.2       17 UNK         0.5000 
     98 O          -7.3036  -22.6804  -47.4836 O.2       17 UNK        -0.5000 
     99 N          -8.3205  -21.3525  -49.0098 N.am      18 UNK        -0.5000 
    100 CA        -7.8588  -20.0577  -48.5093 C.3       18 UNK         0.1400 
    101 CB        -8.8378  -18.9744  -48.9907 C.3       18 UNK        -0.1800 
    102 C         -6.4302  -19.7552  -49.0030 C.2       18 UNK         0.5000 
    103 O         -5.9254  -20.4463  -49.8919 O.2       18 UNK        -0.5000 
    104 N         -5.8056  -18.7118  -48.4397 N.am      19 UNK        -0.5000 
    105 CA        -4.4662  -18.2299  -48.7942 C.3       19 UNK         0.1400 
    106 CB        -3.9474  -17.3071  -47.6800 C.3       19 UNK        -0.1800 
    107 C         -4.4351  -17.5485  -50.1790 C.2       19 UNK         0.5000 
    108 O         -4.2599  -16.3349  -50.2801 O.2       19 UNK        -0.5000 
    109 N         -4.6251  -18.3567  -51.2245 N.am      20 UNK        -0.5000 
    110 CA        -4.7021  -17.9589  -52.6288 C.3       20 UNK         0.1400 
    111 CB        -5.6955  -18.9029  -53.3305 C.3       20 UNK        -0.1800 
    112 C         -3.3284  -17.9559  -53.3333 C.2       20 UNK         0.5000 
    113 O         -3.2916  -17.9902  -54.5638 O.2       20 UNK        -0.5000 
    114 N         -2.2336  -17.9236  -52.5546 N.am      21 UNK        -0.5000 
    115 CA        -0.8349  -18.0279  -52.9864 C.3       21 UNK         0.1400 
    116 CB        -0.4336  -16.8210  -53.8629 C.3       21 UNK        -0.1800 
    117 C         -0.5528  -19.3902  -53.6528 C.2       21 UNK         0.5000 
    118 O         -0.1396  -19.4372  -54.8122 O.2       21 UNK        -0.5000 
    119 N         -0.8272  -20.4606  -52.8918 N.am      22 UNK        -0.5000 
    120 CA        -0.7696  -21.8789  -53.2830 C.3       22 UNK         0.1400 
    121 C         -1.6365  -22.2489  -54.5278 C.2       22 UNK         0.5000 
    122 N         -1.2605  -23.2452  -55.3195 N.am      22 UNK        -0.7600 
    123 O         -2.7060  -21.6838  -54.7411 O.2       22 UNK        -0.5000 
    124 C124        0.6575  -22.4975  -53.2214 C.3       23 UNK        -0.0398 
    125 S125        1.8225  -21.9784  -54.5275 S.3       23 UNK        -0.2404 
    126 C126        3.3627  -21.7530  -53.5877 C.3       23 UNK        -0.0205 
    127 H127        3.1805  -15.8909  -47.0798 H         1 UNK         0.0600 
    128 H128        1.4445  -15.5961  -47.2219 H         1 UNK         0.0600 
    129 H129        2.3731  -14.7353  -46.0184 H         1 UNK         0.0600 
    130 H130        2.5835  -13.3466  -49.9291 H         1 UNK         0.3000 
    131 H131        2.0312  -16.1460  -49.5246 H         1 UNK         0.0600 
    132 H132        1.4127  -14.4035  -51.9613 H         1 UNK         0.0800 
    133 H133        1.3966  -16.1481  -51.8920 H         1 UNK         0.0800 
    134 H134        3.0188  -16.6258  -53.8443 H         1 UNK         0.0800 
    135 H135        4.7275  -16.7362  -53.5159 H         1 UNK         0.0800 
    136 H136        3.5590  -19.1319  -54.2912 H         1 UNK         0.1150 
    137 H137        3.1028  -21.6726  -50.8715 H         1 UNK         0.1150 
    138 H138        3.5976  -17.4687  -50.3356 H         1 UNK         0.1150 
    139 H139        3.0514  -20.7834  -48.6649 H         1 UNK         0.0800 
    140 H140        4.1746  -19.4606  -48.5135 H         1 UNK         0.0800 
    141 H141        0.3200  -19.3485  -49.8647 H         1 UNK         0.0800 
    142 H142       -0.4482  -18.8347  -48.3875 H         1 UNK         0.0800 
    143 H143        0.8166  -21.5335  -49.0171 H         1 UNK         0.0600 
    144 H144        0.7286  -20.3926  -46.3977 H         1 UNK         0.3000 
    145 H145        0.8490  -23.4606  -44.6010 H         1 UNK         0.0600 
    146 H146        2.9152  -22.3569  -43.7098 H         1 UNK         0.0600 
    147 H147        3.1992  -23.1335  -45.2604 H         1 UNK         0.0600 
    148 H148        3.0316  -21.3869  -45.1782 H         1 UNK         0.0600 
    149 H149        0.9404  -20.6059  -44.0022 H         1 UNK         0.3000 
    150 H150       -2.5834  -20.2880  -43.5124 H         1 UNK         0.0600 
    151 H151       -1.8198  -21.3837  -41.3794 H         1 UNK         0.0600 
    152 H152       -1.9788  -19.6428  -41.2177 H         1 UNK         0.0600 
    153 H153       -0.3806  -20.3688  -41.3840 H         1 UNK         0.0600 
    154 H154       -0.4658  -18.4804  -42.9583 H         1 UNK         0.3000 
    155 H155        0.2481  -17.4333  -46.2459 H         1 UNK         0.0600 
    156 H156       -1.5269  -15.8416  -44.3409 H         1 UNK         0.0600 
    157 H157       -1.8709  -16.1776  -46.0238 H         1 UNK         0.0600 
    158 H158       -0.5032  -15.1633  -45.6045 H         1 UNK         0.0600 
    159 H159        0.9671  -16.1383  -43.8816 H         1 UNK         0.3000 
    160 H160        3.6966  -18.2599  -42.9308 H         1 UNK         0.0600 
    161 H161        3.6202  -15.4859  -44.2205 H         1 UNK         0.0600 
    162 H162        4.4435  -16.8836  -44.9105 H         1 UNK         0.0600 
    163 H163        4.9716  -16.2227  -43.3700 H         1 UNK         0.0600 
    164 H164        2.0618  -15.8297  -42.2651 H         1 UNK         0.3000 
    165 H165        1.4642  -17.0301  -39.0134 H         1 UNK         0.0600 
    166 H166        2.3157  -14.8368  -38.2317 H         1 UNK         0.0600 
    167 H167        3.6615  -15.8933  -38.6268 H         1 UNK         0.0600 
    168 H168        3.2025  -14.6104  -39.7403 H         1 UNK         0.0600 
    169 H169        0.7547  -14.5635  -40.1909 H         1 UNK         0.3000 
    170 H170       -1.9973  -15.6457  -42.1607 H         1 UNK         0.0600 
    171 H171       -2.8305  -15.6892  -39.8064 H         1 UNK         0.0600 
    172 H172       -1.9533  -14.2004  -39.4712 H         1 UNK         0.0600 
    173 H173       -3.2737  -14.2089  -40.6400 H         1 UNK         0.0600 
    174 H174       -1.5860  -13.0815  -41.8833 H         1 UNK         0.3000 
    175 H175       -0.0334  -11.5412  -42.7239 H         1 UNK         0.0600 
    176 H176        2.3177  -12.1383  -43.3818 H         1 UNK         0.0600 
    177 H177        1.7345  -12.6933  -44.9470 H         1 UNK         0.0600 
    178 H178        1.5841  -10.9977  -44.4994 H         1 UNK         0.0600 
    179 H179       -0.5568  -12.2162  -45.5020 H         1 UNK         0.3000 
    180 H180       -4.0945  -12.1756  -45.2456 H         1 UNK         0.0600 
    181 H181       -2.2228  -10.0860  -46.4691 H         1 UNK         0.0600 
    182 H182       -3.5229   -9.7729  -45.3302 H         1 UNK         0.0600 
    183 H183       -3.8980  -10.3756  -46.9368 H         1 UNK         0.0600 
    184 H184       -3.5229  -13.5077  -46.8611 H         1 UNK         0.3000 
    185 H185       -2.1416  -14.8528  -48.2217 H         1 UNK         0.0600 
    186 H186       -2.6124  -14.1414  -50.6046 H         1 UNK         0.0600 
    187 H187       -3.6583  -13.3054  -49.4703 H         1 UNK         0.0600 
    188 H188       -2.2749  -12.4678  -50.1681 H         1 UNK         0.0600 
    189 H189        0.2422  -13.3531  -48.8591 H         1 UNK         0.3000 
    190 H190       -1.8379  -20.7033  -46.8036 H         1 UNK         0.3000 
    191 H191       -4.0123  -21.4483  -48.4724 H         1 UNK         0.0600 
    192 H192       -3.7837  -21.4930  -45.4109 H         1 UNK         0.0600 
    193 H193       -5.2780  -21.4901  -46.3309 H         1 UNK         0.0600 
    194 H194       -4.2254  -20.0882  -46.3700 H         1 UNK         0.0600 
    195 H195       -2.0636  -23.3528  -46.1334 H         1 UNK         0.3000 
    196 H196       -3.4489  -25.8122  -46.4708 H         1 UNK         0.0600 
    197 H197       -1.4385  -26.8079  -45.4114 H         1 UNK         0.0600 
    198 H198       -1.9235  -25.3479  -44.5622 H         1 UNK         0.0600 
    199 H199       -0.5379  -25.3180  -45.6500 H         1 UNK         0.0600 
    200 H200       -0.6418  -24.4189  -48.2092 H         1 UNK         0.3000 
    201 H201       -0.1984  -26.6048  -49.9776 H         1 UNK         0.0600 
    202 H202        1.4778  -24.8246  -49.5412 H         1 UNK         0.0600 
    203 H203        0.4467  -23.6308  -50.3225 H         1 UNK         0.0600 
    204 H204        1.1412  -24.9504  -51.2597 H         1 UNK         0.0600 
    205 H205       -2.3252  -23.7310  -50.2495 H         1 UNK         0.3000 
    206 H206       -3.3158  -24.3142  -52.8907 H         1 UNK         0.0600 
    207 H207       -3.4665  -22.0352  -51.8288 H         1 UNK         0.0600 
    208 H208       -5.0480  -22.6255  -52.2985 H         1 UNK         0.0600 
    209 H209       -4.5614  -22.6763  -50.6132 H         1 UNK         0.0600 
    210 H210       -4.1173  -25.4378  -49.6966 H         1 UNK         0.3000 
    211 H211       -5.4996  -26.8635  -48.7636 H         1 UNK         0.0600 
    212 H212       -6.2127  -27.9455  -51.5418 H         1 UNK         0.0600 
    213 H213       -6.5057  -28.7367  -50.0002 H         1 UNK         0.0600 
    214 H214       -4.8573  -28.4939  -50.5556 H         1 UNK         0.0600 
    215 H215       -6.2755  -24.2588  -49.1178 H         1 UNK         0.3000 
    216 H216       -9.1245  -24.2858  -48.8241 H         1 UNK         0.0600 
    217 H217       -8.0100  -22.9394  -51.3603 H         1 UNK         0.0600 
    218 H218       -9.6819  -22.8502  -50.7958 H         1 UNK         0.0600 
    219 H219       -9.0275  -24.3730  -51.3467 H         1 UNK         0.0600 
    220 H220       -8.8043  -21.3349  -49.8952 H         1 UNK         0.3000 
    221 H221       -7.8532  -20.0750  -47.4174 H         1 UNK         0.0600 
    222 H222       -9.8538  -19.1854  -48.6564 H         1 UNK         0.0600 
    223 H223       -8.8519  -18.8995  -50.0790 H         1 UNK         0.0600 
    224 H224       -8.5681  -17.9932  -48.5984 H         1 UNK         0.0600 
    225 H225       -6.2973  -18.1715  -47.7428 H         1 UNK         0.3000 
    226 H226       -3.7921  -19.0865  -48.8435 H         1 UNK         0.0600 
    227 H227       -3.9449  -17.8051  -46.7112 H         1 UNK         0.0600 
    228 H228       -2.9196  -17.0143  -47.8923 H         1 UNK         0.0600 
    229 H229       -4.5445  -16.3991  -47.5891 H         1 UNK         0.0600 
    230 H230       -4.8469  -19.3275  -51.0205 H         1 UNK         0.3000 
    231 H231       -5.0981  -16.9434  -52.6932 H         1 UNK         0.0600 
    232 H232       -5.3272  -19.9298  -53.3463 H         1 UNK         0.0600 
    233 H233       -5.8696  -18.5989  -54.3633 H         1 UNK         0.0600 
    234 H234       -6.6630  -18.9024  -52.8277 H         1 UNK         0.0600 
    235 H235       -2.3788  -17.8433  -51.5586 H         1 UNK         0.3000 
    236 H236       -0.2251  -17.9933  -52.0824 H         1 UNK         0.0600 
    237 H237        0.6280  -16.8555  -54.1065 H         1 UNK         0.0600 
    238 H238       -0.9763  -16.7986  -54.8078 H         1 UNK         0.0600 
    239 H239       -0.6232  -15.8796  -53.3472 H         1 UNK         0.0600 
    240 H240       -1.2143  -20.2974  -51.9749 H         1 UNK         0.3000 
    241 H241       -1.3033  -22.3704  -52.4725 H         1 UNK         0.0600 
    242 H242       -1.8435  -23.4897  -56.1044 H         1 UNK         0.3800 
    243 H243       -0.3786  -23.7153  -55.1922 H         1 UNK         0.3800 
    244 H244        0.5911  -23.5856  -53.2498 H         1 UNK         0.0800 
    245 H245        1.0893  -22.2680  -52.2484 H         1 UNK         0.0800 
    246 H246        3.5712  -22.6580  -53.0148 H         1 UNK         0.0800 
    247 H247        4.1875  -21.6485  -54.2939 H         1 UNK         0.0800 
@<TRIPOS>BOND
     1    1    2 1    
     2    1  127 1    
     3    1  128 1    
     4    1  129 1    
     5    2    3 2    
     6    2    4 am   BACKBONE|DICT|INTERRES
     7    4    5 1    
     8    4  130 1    
     9    5    6 1    
    10    5   65 1    
    11    5  131 1    
    12    6    7 1    
    13    6  132 1    
    14    6  133 1    
    15    7    8 1    
    16    8    9 1    
    17    8  134 1    
    18    8  135 1    
    19    9   10 ar   
    20    9   14 ar   
    21   10   11 ar   
    22   10  136 1    
    23   11   12 ar   
    24   11  126 1    
    25   12   13 ar   
    26   12  137 1    
    27   13   14 ar   
    28   13   15 1    
    29   14  138 1    
    30   15   16 1    
    31   15  139 1    
    32   15  140 1    
    33   16   17 1    
    34   17   18 1    
    35   17  141 1    
    36   17  142 1    
    37   18   19 1    
    38   18   67 1    
    39   18  143 1    
    40   19   20 am   BACKBONE|DICT|INTERRES
    41   19  144 1    
    42   20   21 2    
    43   20   22 1    
    44   22   23 1    
    45   22   24 1    
    46   22  145 1    
    47   23  146 1    
    48   23  147 1    
    49   23  148 1    
    50   24   25 am   BACKBONE|DICT|INTERRES
    51   24  149 1    
    52   25   26 2    
    53   25   27 1    
    54   27   28 1    
    55   27   29 1    
    56   27  150 1    
    57   28  151 1    
    58   28  152 1    
    59   28  153 1    
    60   29   30 am   BACKBONE|DICT|INTERRES
    61   29  154 1    
    62   30   31 2    
    63   30   32 1    
    64   32   33 1    
    65   32   34 1    
    66   32  155 1    
    67   33  156 1    
    68   33  157 1    
    69   33  158 1    
    70   34   35 am   BACKBONE|DICT|INTERRES
    71   34  159 1    
    72   35   36 2    
    73   35   37 1    
    74   37   38 1    
    75   37   39 1    
    76   37  160 1    
    77   38  161 1    
    78   38  162 1    
    79   38  163 1    
    80   39   40 am   BACKBONE|DICT|INTERRES
    81   39  164 1    
    82   40   41 2    
    83   40   42 1    
    84   42   43 1    
    85   42   44 1    
    86   42  165 1    
    87   43  166 1    
    88   43  167 1    
    89   43  168 1    
    90   44   45 am   BACKBONE|DICT|INTERRES
    91   44  169 1    
    92   45   46 2    
    93   45   47 1    
    94   47   48 1    
    95   47   49 1    
    96   47  170 1    
    97   48  171 1    
    98   48  172 1    
    99   48  173 1    
   100   49   50 am   BACKBONE|DICT|INTERRES
   101   49  174 1    
   102   50   51 2    
   103   50   52 1    
   104   52   53 1    
   105   52   54 1    
   106   52  175 1    
   107   53  176 1    
   108   53  177 1    
   109   53  178 1    
   110   54   55 am   BACKBONE|DICT|INTERRES
   111   54  179 1    
   112   55   56 2    
   113   55   57 1    
   114   57   58 1    
   115   57   59 1    
   116   57  180 1    
   117   58  181 1    
   118   58  182 1    
   119   58  183 1    
   120   59   60 am   BACKBONE|DICT|INTERRES
   121   59  184 1    
   122   60   61 2    
   123   60   62 1    
   124   62   63 1    
   125   62   64 1    
   126   62  185 1    
   127   63  186 1    
   128   63  187 1    
   129   63  188 1    
   130   64   65 am   BACKBONE|DICT|INTERRES
   131   64  189 1    
   132   65   66 2    
   133   67   68 2    
   134   67   69 am   BACKBONE|DICT|INTERRES
   135   69   70 1    
   136   69  190 1    
   137   70   71 1    
   138   70   72 1    
   139   70  191 1    
   140   71  192 1    
   141   71  193 1    
   142   71  194 1    
   143   72   73 2    
   144   72   74 am   BACKBONE|DICT|INTERRES
   145   74   75 1    
   146   74  195 1    
   147   75   76 1    
   148   75   77 1    
   149   75  196 1    
   150   76  197 1    
   151   76  198 1    
   152   76  199 1    
   153   77   78 2    
   154   77   79 am   BACKBONE|DICT|INTERRES
   155   79   80 1    
   156   79  200 1    
   157   80   81 1    
   158   80   82 1    
   159   80  201 1    
   160   81  202 1    
   161   81  203 1    
   162   81  204 1    
   163   82   83 2    
   164   82   84 am   BACKBONE|DICT|INTERRES
   165   84   85 1    
   166   84  205 1    
   167   85   86 1    
   168   85   87 1    
   169   85  206 1    
   170   86  207 1    
   171   86  208 1    
   172   86  209 1    
   173   87   88 2    
   174   87   89 am   BACKBONE|DICT|INTERRES
   175   89   90 1    
   176   89  210 1    
   177   90   91 1    
   178   90   92 1    
   179   90  211 1    
   180   91  212 1    
   181   91  213 1    
   182   91  214 1    
   183   92   93 2    
   184   92   94 am   BACKBONE|DICT|INTERRES
   185   94   95 1    
   186   94  215 1    
   187   95   96 1    
   188   95   97 1    
   189   95  216 1    
   190   96  217 1    
   191   96  218 1    
   192   96  219 1    
   193   97   98 2    
   194   97   99 am   BACKBONE|DICT|INTERRES
   195   99  100 1    
   196   99  220 1    
   197  100  101 1    
   198  100  102 1    
   199  100  221 1    
   200  101  222 1    
   201  101  223 1    
   202  101  224 1    
   203  102  103 2    
   204  102  104 am   BACKBONE|DICT|INTERRES
   205  104  105 1    
   206  104  225 1    
   207  105  106 1    
   208  105  107 1    
   209  105  226 1    
   210  106  227 1    
   211  106  228 1    
   212  106  229 1    
   213  107  108 2    
   214  107  109 am   BACKBONE|DICT|INTERRES
   215  109  110 1    
   216  109  230 1    
   217  110  111 1    
   218  110  112 1    
   219  110  231 1    
   220  111  232 1    
   221  111  233 1    
   222  111  234 1    
   223  112  113 2    
   224  112  114 am   BACKBONE|DICT|INTERRES
   225  114  115 1    
   226  114  235 1    
   227  115  116 1    
   228  115  117 1    
   229  115  236 1    
   230  116  237 1    
   231  116  238 1    
   232  116  239 1    
   233  117  118 2    
   234  117  119 am   BACKBONE|DICT|INTERRES
   235  119  120 1    
   236  119  240 1    
   237  120  121 1    
   238  120  124 1    
   239  120  241 1    
   240  121  122 am   BACKBONE|DICT|INTERRES
   241  121  123 2    
   242  122  242 1    
   243  122  243 1    
   244  124  125 1    
   245  124  244 1    
   246  124  245 1    
   247  125  126 1    
   248  126  246 1    
   249  126  247 1    
@<TRIPOS>SUBSTRUCTURE
     1 UNK         1 GROUP             0       ****    0 ROOT    
