@<TRIPOS>MOLECULE
3R540
247   249    1
SMALL
USER_CHARGES


@<TRIPOS>ATOM
      1 CA         -1.0490  -11.8723  -49.5296 C.3       0 UNK        -0.1800 
      2 C           0.0206  -12.3973  -48.5834 C.2       0 UNK         0.5000 
      3 O          -0.3093  -12.8362  -47.4847 O.2       0 UNK        -0.5000 
      4 N           1.2857  -12.3624  -49.0229 N.am      1 UNK        -0.5000 
      5 CA          2.4961  -12.7937  -48.3154 C.3       1 UNK         0.1400 
      6 C6          2.4289  -14.2493  -47.7831 C.3       23 UNK        -0.0398 
      7 S7          4.0764  -15.0140  -47.5988 S.3       23 UNK        -0.2404 
      8 C8          4.4691  -15.5345  -49.3011 C.3       23 UNK        -0.0205 
      9 C9          3.5391  -16.6217  -49.8205 C.ar      23 UNK        -0.0193 
     10 C10         2.4600  -16.2882  -50.6426 C.ar      23 UNK        -0.1150 
     11 C11         1.6056  -17.2771  -51.1388 C.ar      23 UNK        -0.0193 
     12 C12         1.8597  -18.6178  -50.8300 C.ar      23 UNK        -0.1150 
     13 C13         2.9554  -18.9686  -50.0331 C.ar      23 UNK        -0.0193 
     14 C14         3.7808  -17.9641  -49.5180 C.ar      23 UNK        -0.1150 
     15 C15         3.2904  -20.4313  -49.7746 C.3       23 UNK        -0.0205 
     16 S16         2.5656  -21.0489  -48.2254 S.3       23 UNK        -0.2404 
     17 C17         0.8341  -21.3141  -48.7259 C.3       23 UNK        -0.0398 
     18 CA          0.1115  -22.3386  -47.8210 C.3       11 UNK         0.1400 
     19 N          -0.1019  -21.8448  -46.4564 N.am      11 UNK        -0.5000 
     20 C          -0.5661  -22.5900  -45.4426 C.2       10 UNK         0.5000 
     21 O          -0.8170  -23.7916  -45.5382 O.2       10 UNK        -0.5000 
     22 CA         -0.8482  -21.8666  -44.1125 C.3       10 UNK         0.1400 
     23 CB          0.4485  -21.6265  -43.3253 C.3       10 UNK        -0.1800 
     24 N          -1.5565  -20.6004  -44.3017 N.am      10 UNK        -0.5000 
     25 C          -2.7918  -20.4902  -44.8112 C.2       9 UNK         0.5000 
     26 O          -3.4909  -21.4533  -45.1220 O.2       9 UNK        -0.5000 
     27 CA         -3.3156  -19.0659  -45.0698 C.3       9 UNK         0.1400 
     28 CB         -3.8895  -18.4408  -43.7895 C.3       9 UNK        -0.1800 
     29 N          -2.2878  -18.1917  -45.6343 N.am      9 UNK        -0.5000 
     30 C          -1.7236  -18.3733  -46.8373 C.2       8 UNK         0.5000 
     31 O          -2.0427  -19.2709  -47.6143 O.2       8 UNK        -0.5000 
     32 CA         -0.5764  -17.4224  -47.2094 C.3       8 UNK         0.1400 
     33 CB         -1.1395  -16.1090  -47.7668 C.3       8 UNK        -0.1800 
     34 N           0.3092  -17.1605  -46.0711 N.am      8 UNK        -0.5000 
     35 C           1.0895  -18.1015  -45.5156 C.2       7 UNK         0.5000 
     36 O           1.1410  -19.2605  -45.9201 O.2       7 UNK        -0.5000 
     37 CA          1.8958  -17.7185  -44.2602 C.3       7 UNK         0.1400 
     38 CB          3.2126  -17.0374  -44.6444 C.3       7 UNK        -0.1800 
     39 N           1.1588  -16.8541  -43.3419 N.am      7 UNK        -0.5000 
     40 C           0.0097  -17.1885  -42.7398 C.2       6 UNK         0.5000 
     41 O          -0.5077  -18.3013  -42.8326 O.2       6 UNK        -0.5000 
     42 CA         -0.7077  -16.0859  -41.9388 C.3       6 UNK         0.1400 
     43 CB         -0.3514  -16.1874  -40.4487 C.3       6 UNK        -0.1800 
     44 N          -0.4169  -14.7280  -42.4044 N.am      6 UNK        -0.5000 
     45 C          -0.6425  -14.2395  -43.6304 C.2       5 UNK         0.5000 
     46 O          -1.1347  -14.9117  -44.5362 O.2       5 UNK        -0.5000 
     47 CA         -0.2203  -12.7807  -43.9135 C.3       5 UNK         0.1400 
     48 CB         -1.4049  -11.8161  -43.7211 C.3       5 UNK        -0.1800 
     49 N           0.9725  -12.3145  -43.1883 N.am      5 UNK        -0.5000 
     50 C           1.1521  -12.1470  -41.8693 C.2       4 UNK         0.5000 
     51 O           0.2698  -12.3538  -41.0347 O.2       4 UNK        -0.5000 
     52 CA          2.5517  -11.6992  -41.3945 C.3       4 UNK         0.1400 
     53 CB          2.9003  -12.2643  -40.0015 C.3       4 UNK        -0.1800 
     54 N           3.6437  -11.9773  -42.3356 N.am      4 UNK        -0.5000 
     55 C           4.0577  -13.1624  -42.8062 C.2       3 UNK         0.5000 
     56 O           3.4757  -14.2287  -42.5968 O.2       3 UNK        -0.5000 
     57 CA          5.3341  -13.1191  -43.6750 C.3       3 UNK         0.1400 
     58 CB          5.8614  -14.5148  -44.0478 C.3       3 UNK        -0.1800 
     59 N           5.1371  -12.3470  -44.9025 N.am      3 UNK        -0.5000 
     60 C           5.0892  -11.0103  -44.9913 C.2       2 UNK         0.5000 
     61 O           5.2375  -10.2616  -44.0240 O.2       2 UNK        -0.5000 
     62 CA          4.8158  -10.4024  -46.3815 C.3       2 UNK         0.1400 
     63 CB          6.1195   -9.8764  -47.0012 C.3       2 UNK        -0.1800 
     64 N           4.1874  -11.3356  -47.3209 N.am      2 UNK        -0.5000 
     65 C           2.9307  -11.7909  -47.2250 C.2       1 UNK         0.5000 
     66 O           2.1623  -11.4703  -46.3162 O.2       1 UNK        -0.5000 
     67 C          -1.2039  -22.8093  -48.4731 C.2       11 UNK         0.5000 
     68 O          -1.2285  -23.8912  -49.0594 O.2       11 UNK        -0.5000 
     69 N          -2.2782  -22.0205  -48.3289 N.am      12 UNK        -0.5000 
     70 CA         -3.6184  -22.3573  -48.8082 C.3       12 UNK         0.1400 
     71 CB         -4.5589  -21.1616  -48.6109 C.3       12 UNK        -0.1800 
     72 C          -4.1884  -23.6150  -48.1322 C.2       12 UNK         0.5000 
     73 O          -4.7492  -24.4638  -48.8222 O.2       12 UNK        -0.5000 
     74 N          -4.0037  -23.7369  -46.8097 N.am      13 UNK        -0.5000 
     75 CA         -4.3943  -24.9067  -46.0220 C.3       13 UNK         0.1400 
     76 CB         -4.2119  -24.6151  -44.5252 C.3       13 UNK        -0.1800 
     77 C          -3.6316  -26.1789  -46.4318 C.2       13 UNK         0.5000 
     78 O          -4.2541  -27.2295  -46.5884 O.2       13 UNK        -0.5000 
     79 N          -2.3142  -26.0567  -46.6522 N.am      14 UNK        -0.5000 
     80 CA         -1.4510  -27.1312  -47.1530 C.3       14 UNK         0.1400 
     81 CB          0.0156  -26.6778  -47.0993 C.3       14 UNK        -0.1800 
     82 C          -1.8300  -27.5941  -48.5742 C.2       14 UNK         0.5000 
     83 O          -1.7564  -28.7875  -48.8679 O.2       14 UNK        -0.5000 
     84 N          -2.2718  -26.6474  -49.4112 N.am      15 UNK        -0.5000 
     85 CA         -2.8041  -26.8765  -50.7548 C.3       15 UNK         0.1400 
     86 CB         -2.6009  -25.5954  -51.5782 C.3       15 UNK        -0.1800 
     87 C          -4.2880  -27.3073  -50.7688 C.2       15 UNK         0.5000 
     88 O          -4.8518  -27.4615  -51.8528 O.2       15 UNK        -0.5000 
     89 N          -4.9110  -27.4643  -49.5893 N.am      16 UNK        -0.5000 
     90 CA         -6.3119  -27.8440  -49.3613 C.3       16 UNK         0.1400 
     91 CB         -6.5407  -29.3145  -49.7674 C.3       16 UNK        -0.1800 
     92 C          -7.3277  -26.8784  -50.0131 C.2       16 UNK         0.5000 
     93 O          -8.4014  -27.3056  -50.4404 O.2       16 UNK        -0.5000 
     94 N          -6.9486  -25.5948  -50.0978 N.am      17 UNK        -0.5000 
     95 CA         -7.6477  -24.4730  -50.7320 C.3       17 UNK         0.1400 
     96 CB         -8.9792  -24.1781  -50.0120 C.3       17 UNK        -0.1800 
     97 C          -7.8206  -24.6017  -52.2624 C.2       17 UNK         0.5000 
     98 O          -8.5486  -23.8019  -52.8527 O.2       17 UNK        -0.5000 
     99 N          -7.1426  -25.5718  -52.8939 N.am      18 UNK        -0.5000 
    100 CA        -7.1667  -25.7873  -54.3431 C.3       18 UNK         0.1400 
    101 CB        -6.8150  -27.2539  -54.6367 C.3       18 UNK        -0.1800 
    102 C         -6.2122  -24.8421  -55.0982 C.2       18 UNK         0.5000 
    103 O         -6.3575  -24.6741  -56.3098 O.2       18 UNK        -0.5000 
    104 N         -5.2577  -24.2470  -54.3764 N.am      19 UNK        -0.5000 
    105 CA        -4.2508  -23.3132  -54.8608 C.3       19 UNK         0.1400 
    106 CB        -3.1240  -24.0870  -55.5745 C.3       19 UNK        -0.1800 
    107 C         -3.7163  -22.5129  -53.6622 C.2       19 UNK         0.5000 
    108 O         -4.1218  -22.7667  -52.5252 O.2       19 UNK        -0.5000 
    109 N         -2.8118  -21.5648  -53.9436 N.am      20 UNK        -0.5000 
    110 CA        -2.0153  -20.7750  -52.9920 C.3       20 UNK         0.1400 
    111 CB        -1.0940  -21.6937  -52.1661 C.3       20 UNK        -0.1800 
    112 C         -2.8086  -19.8007  -52.0939 C.2       20 UNK         0.5000 
    113 O         -2.2209  -19.1869  -51.2032 O.2       20 UNK        -0.5000 
    114 N         -4.1079  -19.6246  -52.3619 N.am      21 UNK        -0.5000 
    115 CA        -5.0097  -18.7122  -51.6594 C.3       21 UNK         0.1400 
    116 CB        -6.4481  -19.2431  -51.7970 C.3       21 UNK        -0.1800 
    117 C         -4.8476  -17.2619  -52.1588 C.2       21 UNK         0.5000 
    118 O         -5.7972  -16.6716  -52.6768 O.2       21 UNK        -0.5000 
    119 N         -3.6312  -16.7235  -52.0163 N.am      22 UNK        -0.5000 
    120 CA        -3.2579  -15.3566  -52.4130 C.3       22 UNK         0.1400 
    121 C         -3.7625  -14.2290  -51.4635 C.2       22 UNK         0.5000 
    122 N         -4.2868  -14.5345  -50.2826 N.am      22 UNK        -0.7600 
    123 O         -3.6945  -13.0547  -51.8162 O.2       22 UNK        -0.5000 
    124 C124       -1.7405  -15.2376  -52.7097 C.3       23 UNK        -0.0398 
    125 S125       -0.6620  -15.6670  -51.2975 S.3       23 UNK        -0.2404 
    126 C126        0.4489  -16.8968  -52.0550 C.3       23 UNK        -0.0205 
    127 H127       -0.6389  -11.6081  -50.5046 H         1 UNK         0.0600 
    128 H128       -1.8139  -12.6336  -49.6809 H         1 UNK         0.0600 
    129 H129       -1.5255  -10.9883  -49.1062 H         1 UNK         0.0600 
    130 H130        1.4568  -11.9638  -49.9354 H         1 UNK         0.3000 
    131 H131        3.2571  -12.7694  -49.0963 H         1 UNK         0.0600 
    132 H132        1.9118  -14.2926  -46.8227 H         1 UNK         0.0800 
    133 H133        1.8373  -14.8691  -48.4531 H         1 UNK         0.0800 
    134 H134        4.4494  -14.6687  -49.9640 H         1 UNK         0.0800 
    135 H135        5.4965  -15.9008  -49.3219 H         1 UNK         0.0800 
    136 H136        2.2791  -15.2529  -50.8961 H         1 UNK         0.1150 
    137 H137        1.2208  -19.3907  -51.2318 H         1 UNK         0.1150 
    138 H138        4.6264  -18.2290  -48.8986 H         1 UNK         0.1150 
    139 H139        2.9698  -21.0516  -50.6128 H         1 UNK         0.0800 
    140 H140        4.3736  -20.5487  -49.7175 H         1 UNK         0.0800 
    141 H141        0.8464  -21.6741  -49.7547 H         1 UNK         0.0800 
    142 H142        0.3105  -20.3565  -48.7338 H         1 UNK         0.0800 
    143 H143        0.7502  -23.2213  -47.7432 H         1 UNK         0.0600 
    144 H144        0.1446  -20.8734  -46.2845 H         1 UNK         0.3000 
    145 H145       -1.4893  -22.5158  -43.5128 H         1 UNK         0.0600 
    146 H146        0.2440  -21.1587  -42.3620 H         1 UNK         0.0600 
    147 H147        0.9637  -22.5675  -43.1286 H         1 UNK         0.0600 
    148 H148        1.1395  -20.9828  -43.8687 H         1 UNK         0.0600 
    149 H149       -1.0684  -19.7554  -44.0201 H         1 UNK         0.3000 
    150 H150       -4.1247  -19.1389  -45.7995 H         1 UNK         0.0600 
    151 H151       -4.6996  -19.0522  -43.3903 H         1 UNK         0.0600 
    152 H152       -4.2965  -17.4482  -43.9828 H         1 UNK         0.0600 
    153 H153       -3.1366  -18.3481  -43.0073 H         1 UNK         0.0600 
    154 H154       -1.9495  -17.4390  -45.0516 H         1 UNK         0.3000 
    155 H155        0.0119  -17.8978  -47.9979 H         1 UNK         0.0600 
    156 H156       -0.3458  -15.4754  -48.1555 H         1 UNK         0.0600 
    157 H157       -1.6858  -15.5418  -47.0139 H         1 UNK         0.0600 
    158 H158       -1.8285  -16.3008  -48.5901 H         1 UNK         0.0600 
    159 H159        0.2318  -16.2515  -45.6328 H         1 UNK         0.3000 
    160 H160        2.1346  -18.6422  -43.7292 H         1 UNK         0.0600 
    161 H161        3.0336  -16.0472  -45.0624 H         1 UNK         0.0600 
    162 H162        3.7603  -17.6191  -45.3874 H         1 UNK         0.0600 
    163 H163        3.8607  -16.9217  -43.7756 H         1 UNK         0.0600 
    164 H164        1.5302  -15.9259  -43.1909 H         1 UNK         0.3000 
    165 H165       -1.7814  -16.2486  -42.0496 H         1 UNK         0.0600 
    166 H166        0.7090  -15.9977  -40.2766 H         1 UNK         0.0600 
    167 H167       -0.9206  -15.4700  -39.8573 H         1 UNK         0.0600 
    168 H168       -0.5764  -17.1811  -40.0590 H         1 UNK         0.0600 
    169 H169       -0.0552  -14.0755  -41.7150 H         1 UNK         0.3000 
    170 H170        0.0604  -12.7471  -44.9650 H         1 UNK         0.0600 
    171 H171       -1.7617  -11.8062  -42.6910 H         1 UNK         0.0600 
    172 H172       -2.2448  -12.1055  -44.3540 H         1 UNK         0.0600 
    173 H173       -1.1302  -10.7971  -43.9933 H         1 UNK         0.0600 
    174 H174        1.7709  -12.1310  -43.7810 H         1 UNK         0.3000 
    175 H175        2.5009  -10.6133  -41.3059 H         1 UNK         0.0600 
    176 H176        3.8815  -11.9232  -39.6715 H         1 UNK         0.0600 
    177 H177        2.1788  -11.9390  -39.2511 H         1 UNK         0.0600 
    178 H178        2.9058  -13.3549  -39.9990 H         1 UNK         0.0600 
    179 H179        4.1701  -11.1645  -42.6444 H         1 UNK         0.3000 
    180 H180        6.1067  -12.6316  -43.0766 H         1 UNK         0.0600 
    181 H181        5.1865  -15.0303  -44.7286 H         1 UNK         0.0600 
    182 H182        5.9844  -15.1411  -43.1632 H         1 UNK         0.0600 
    183 H183        6.8343  -14.4483  -44.5349 H         1 UNK         0.0600 
    184 H184        4.9825  -12.8821  -45.7444 H         1 UNK         0.3000 
    185 H185        4.1397   -9.5567  -46.2392 H         1 UNK         0.0600 
    186 H186        5.9312   -9.3732  -47.9499 H         1 UNK         0.0600 
    187 H187        6.6020   -9.1530  -46.3425 H         1 UNK         0.0600 
    188 H188        6.8328  -10.6815  -47.1825 H         1 UNK         0.0600 
    189 H189        4.7663  -11.6495  -48.0868 H         1 UNK         0.3000 
    190 H190       -2.1717  -21.1111  -47.8843 H         1 UNK         0.3000 
    191 H191       -3.5453  -22.5561  -49.8787 H         1 UNK         0.0600 
    192 H192       -4.1514  -20.2688  -49.0815 H         1 UNK         0.0600 
    193 H193       -5.5348  -21.3543  -49.0579 H         1 UNK         0.0600 
    194 H194       -4.7146  -20.9380  -47.5554 H         1 UNK         0.0600 
    195 H195       -3.5819  -22.9658  -46.2990 H         1 UNK         0.3000 
    196 H196       -5.4560  -25.0864  -46.2030 H         1 UNK         0.0600 
    197 H197       -4.5087  -25.4730  -43.9206 H         1 UNK         0.0600 
    198 H198       -4.8243  -23.7695  -44.2121 H         1 UNK         0.0600 
    199 H199       -3.1748  -24.3841  -44.2818 H         1 UNK         0.0600 
    200 H200       -1.8660  -25.1649  -46.4593 H         1 UNK         0.3000 
    201 H201       -1.5662  -27.9876  -46.4855 H         1 UNK         0.0600 
    202 H202        0.3105  -26.4178  -46.0826 H         1 UNK         0.0600 
    203 H203        0.1915  -25.8067  -47.7307 H         1 UNK         0.0600 
    204 H204        0.6826  -27.4707  -47.4396 H         1 UNK         0.0600 
    205 H205       -2.2382  -25.6803  -49.1045 H         1 UNK         0.3000 
    206 H206       -2.2341  -27.6773  -51.2297 H         1 UNK         0.0600 
    207 H207       -1.5466  -25.3245  -51.6367 H         1 UNK         0.0600 
    208 H208       -2.9629  -25.7146  -52.5998 H         1 UNK         0.0600 
    209 H209       -3.1342  -24.7553  -51.1341 H         1 UNK         0.0600 
    210 H210       -4.3794  -27.2769  -48.7480 H         1 UNK         0.3000 
    211 H211       -6.4748  -27.7691  -48.2855 H         1 UNK         0.0600 
    212 H212       -6.4520  -29.4547  -50.8451 H         1 UNK         0.0600 
    213 H213       -7.5351  -29.6527  -49.4739 H         1 UNK         0.0600 
    214 H214       -5.8199  -29.9730  -49.2827 H         1 UNK         0.0600 
    215 H215       -6.0483  -25.3451  -49.6882 H         1 UNK         0.3000 
    216 H216       -6.9994  -23.6079  -50.5840 H         1 UNK         0.0600 
    217 H217       -8.8298  -24.0677  -48.9379 H         1 UNK         0.0600 
    218 H218       -9.7105  -24.9709  -50.1706 H         1 UNK         0.0600 
    219 H219       -9.4228  -23.2494  -50.3725 H         1 UNK         0.0600 
    220 H220       -6.5496  -26.1928  -52.3546 H         1 UNK         0.3000 
    221 H221       -8.1777  -25.6032  -54.7126 H         1 UNK         0.0600 
    222 H222       -5.7889  -27.4874  -54.3513 H         1 UNK         0.0600 
    223 H223       -7.4763  -27.9348  -54.1004 H         1 UNK         0.0600 
    224 H224       -6.9150  -27.4726  -55.7005 H         1 UNK         0.0600 
    225 H225       -5.2394  -24.3833  -53.3733 H         1 UNK         0.3000 
    226 H226       -4.7170  -22.6122  -55.5559 H         1 UNK         0.0600 
    227 H227       -3.5093  -24.6689  -56.4118 H         1 UNK         0.0600 
    228 H228       -2.3695  -23.4117  -55.9785 H         1 UNK         0.0600 
    229 H229       -2.6192  -24.7754  -54.8959 H         1 UNK         0.0600 
    230 H230       -2.5796  -21.4116  -54.9153 H         1 UNK         0.3000 
    231 H231       -1.3717  -20.1409  -53.6033 H         1 UNK         0.0600 
    232 H232       -0.4055  -21.1048  -51.5631 H         1 UNK         0.0600 
    233 H233       -0.4927  -22.3353  -52.8100 H         1 UNK         0.0600 
    234 H234       -1.6590  -22.3339  -51.4888 H         1 UNK         0.0600 
    235 H235       -4.5064  -20.1525  -53.1234 H         1 UNK         0.3000 
    236 H236       -4.7608  -18.7061  -50.5976 H         1 UNK         0.0600 
    237 H237       -7.1525  -18.6106  -51.2553 H         1 UNK         0.0600 
    238 H238       -6.7682  -19.2770  -52.8391 H         1 UNK         0.0600 
    239 H239       -6.5358  -20.2497  -51.3872 H         1 UNK         0.0600 
    240 H240       -2.9026  -17.2857  -51.5880 H         1 UNK         0.3000 
    241 H241       -3.7631  -15.1603  -53.3607 H         1 UNK         0.0600 
    242 H242       -4.3484  -15.4932  -49.9832 H         1 UNK         0.3800 
    243 H243       -4.6202  -13.7970  -49.6827 H         1 UNK         0.3800 
    244 H244       -1.4960  -15.8816  -53.5553 H         1 UNK         0.0800 
    245 H245       -1.4910  -14.2266  -53.0363 H         1 UNK         0.0800 
    246 H246        0.8605  -16.4907  -52.9799 H         1 UNK         0.0800 
    247 H247       -0.1332  -17.7774  -52.3297 H         1 UNK         0.0800 
@<TRIPOS>BOND
     1    1    2 1    
     2    1  127 1    
     3    1  128 1    
     4    1  129 1    
     5    2    3 2    
     6    2    4 am   BACKBONE|DICT|INTERRES
     7    4    5 1    
     8    4  130 1    
     9    5    6 1    
    10    5   65 1    
    11    5  131 1    
    12    6    7 1    
    13    6  132 1    
    14    6  133 1    
    15    7    8 1    
    16    8    9 1    
    17    8  134 1    
    18    8  135 1    
    19    9   10 ar   
    20    9   14 ar   
    21   10   11 ar   
    22   10  136 1    
    23   11   12 ar   
    24   11  126 1    
    25   12   13 ar   
    26   12  137 1    
    27   13   14 ar   
    28   13   15 1    
    29   14  138 1    
    30   15   16 1    
    31   15  139 1    
    32   15  140 1    
    33   16   17 1    
    34   17   18 1    
    35   17  141 1    
    36   17  142 1    
    37   18   19 1    
    38   18   67 1    
    39   18  143 1    
    40   19   20 am   BACKBONE|DICT|INTERRES
    41   19  144 1    
    42   20   21 2    
    43   20   22 1    
    44   22   23 1    
    45   22   24 1    
    46   22  145 1    
    47   23  146 1    
    48   23  147 1    
    49   23  148 1    
    50   24   25 am   BACKBONE|DICT|INTERRES
    51   24  149 1    
    52   25   26 2    
    53   25   27 1    
    54   27   28 1    
    55   27   29 1    
    56   27  150 1    
    57   28  151 1    
    58   28  152 1    
    59   28  153 1    
    60   29   30 am   BACKBONE|DICT|INTERRES
    61   29  154 1    
    62   30   31 2    
    63   30   32 1    
    64   32   33 1    
    65   32   34 1    
    66   32  155 1    
    67   33  156 1    
    68   33  157 1    
    69   33  158 1    
    70   34   35 am   BACKBONE|DICT|INTERRES
    71   34  159 1    
    72   35   36 2    
    73   35   37 1    
    74   37   38 1    
    75   37   39 1    
    76   37  160 1    
    77   38  161 1    
    78   38  162 1    
    79   38  163 1    
    80   39   40 am   BACKBONE|DICT|INTERRES
    81   39  164 1    
    82   40   41 2    
    83   40   42 1    
    84   42   43 1    
    85   42   44 1    
    86   42  165 1    
    87   43  166 1    
    88   43  167 1    
    89   43  168 1    
    90   44   45 am   BACKBONE|DICT|INTERRES
    91   44  169 1    
    92   45   46 2    
    93   45   47 1    
    94   47   48 1    
    95   47   49 1    
    96   47  170 1    
    97   48  171 1    
    98   48  172 1    
    99   48  173 1    
   100   49   50 am   BACKBONE|DICT|INTERRES
   101   49  174 1    
   102   50   51 2    
   103   50   52 1    
   104   52   53 1    
   105   52   54 1    
   106   52  175 1    
   107   53  176 1    
   108   53  177 1    
   109   53  178 1    
   110   54   55 am   BACKBONE|DICT|INTERRES
   111   54  179 1    
   112   55   56 2    
   113   55   57 1    
   114   57   58 1    
   115   57   59 1    
   116   57  180 1    
   117   58  181 1    
   118   58  182 1    
   119   58  183 1    
   120   59   60 am   BACKBONE|DICT|INTERRES
   121   59  184 1    
   122   60   61 2    
   123   60   62 1    
   124   62   63 1    
   125   62   64 1    
   126   62  185 1    
   127   63  186 1    
   128   63  187 1    
   129   63  188 1    
   130   64   65 am   BACKBONE|DICT|INTERRES
   131   64  189 1    
   132   65   66 2    
   133   67   68 2    
   134   67   69 am   BACKBONE|DICT|INTERRES
   135   69   70 1    
   136   69  190 1    
   137   70   71 1    
   138   70   72 1    
   139   70  191 1    
   140   71  192 1    
   141   71  193 1    
   142   71  194 1    
   143   72   73 2    
   144   72   74 am   BACKBONE|DICT|INTERRES
   145   74   75 1    
   146   74  195 1    
   147   75   76 1    
   148   75   77 1    
   149   75  196 1    
   150   76  197 1    
   151   76  198 1    
   152   76  199 1    
   153   77   78 2    
   154   77   79 am   BACKBONE|DICT|INTERRES
   155   79   80 1    
   156   79  200 1    
   157   80   81 1    
   158   80   82 1    
   159   80  201 1    
   160   81  202 1    
   161   81  203 1    
   162   81  204 1    
   163   82   83 2    
   164   82   84 am   BACKBONE|DICT|INTERRES
   165   84   85 1    
   166   84  205 1    
   167   85   86 1    
   168   85   87 1    
   169   85  206 1    
   170   86  207 1    
   171   86  208 1    
   172   86  209 1    
   173   87   88 2    
   174   87   89 am   BACKBONE|DICT|INTERRES
   175   89   90 1    
   176   89  210 1    
   177   90   91 1    
   178   90   92 1    
   179   90  211 1    
   180   91  212 1    
   181   91  213 1    
   182   91  214 1    
   183   92   93 2    
   184   92   94 am   BACKBONE|DICT|INTERRES
   185   94   95 1    
   186   94  215 1    
   187   95   96 1    
   188   95   97 1    
   189   95  216 1    
   190   96  217 1    
   191   96  218 1    
   192   96  219 1    
   193   97   98 2    
   194   97   99 am   BACKBONE|DICT|INTERRES
   195   99  100 1    
   196   99  220 1    
   197  100  101 1    
   198  100  102 1    
   199  100  221 1    
   200  101  222 1    
   201  101  223 1    
   202  101  224 1    
   203  102  103 2    
   204  102  104 am   BACKBONE|DICT|INTERRES
   205  104  105 1    
   206  104  225 1    
   207  105  106 1    
   208  105  107 1    
   209  105  226 1    
   210  106  227 1    
   211  106  228 1    
   212  106  229 1    
   213  107  108 2    
   214  107  109 am   BACKBONE|DICT|INTERRES
   215  109  110 1    
   216  109  230 1    
   217  110  111 1    
   218  110  112 1    
   219  110  231 1    
   220  111  232 1    
   221  111  233 1    
   222  111  234 1    
   223  112  113 2    
   224  112  114 am   BACKBONE|DICT|INTERRES
   225  114  115 1    
   226  114  235 1    
   227  115  116 1    
   228  115  117 1    
   229  115  236 1    
   230  116  237 1    
   231  116  238 1    
   232  116  239 1    
   233  117  118 2    
   234  117  119 am   BACKBONE|DICT|INTERRES
   235  119  120 1    
   236  119  240 1    
   237  120  121 1    
   238  120  124 1    
   239  120  241 1    
   240  121  122 am   BACKBONE|DICT|INTERRES
   241  121  123 2    
   242  122  242 1    
   243  122  243 1    
   244  124  125 1    
   245  124  244 1    
   246  124  245 1    
   247  125  126 1    
   248  126  246 1    
   249  126  247 1    
@<TRIPOS>SUBSTRUCTURE
     1 UNK         1 GROUP             0       ****    0 ROOT    
