@<TRIPOS>MOLECULE
3R540
247   249    1
SMALL
USER_CHARGES


@<TRIPOS>ATOM
      1 CA          0.4569  -10.3852  -52.6117 C.3       0 UNK        -0.1800 
      2 C           0.3349  -11.1875  -51.3231 C.2       0 UNK         0.5000 
      3 O           0.0255  -10.6105  -50.2806 O.2       0 UNK        -0.5000 
      4 N           0.5688  -12.5049  -51.4115 N.am      1 UNK        -0.5000 
      5 CA          0.5624  -13.5074  -50.3338 C.3       1 UNK         0.1400 
      6 C6         -0.7319  -13.5301  -49.4723 C.3       23 UNK        -0.0398 
      7 S7         -2.2287  -13.8313  -50.4738 S.3       23 UNK        -0.2404 
      8 C8         -2.6491  -15.5453  -50.0217 C.3       23 UNK        -0.0205 
      9 C9         -1.5277  -16.5270  -50.3354 C.ar      23 UNK        -0.0193 
     10 C10        -1.1201  -16.7339  -51.6560 C.ar      23 UNK        -0.1150 
     11 C11        -0.0822  -17.6220  -51.9467 C.ar      23 UNK        -0.0193 
     12 C12         0.5344  -18.3186  -50.9034 C.ar      23 UNK        -0.1150 
     13 C13         0.1235  -18.1473  -49.5774 C.ar      23 UNK        -0.0193 
     14 C14        -0.9041  -17.2343  -49.3031 C.ar      23 UNK        -0.1150 
     15 C15         0.8377  -18.9571  -48.4915 C.3       23 UNK        -0.0205 
     16 S16         0.1337  -18.8625  -46.8092 S.3       23 UNK        -0.2404 
     17 C17        -1.3084  -19.9704  -46.9352 C.3       23 UNK        -0.0398 
     18 CA         -0.9653  -21.4243  -46.5304 C.3       11 UNK         0.1400 
     19 N          -0.4185  -21.5221  -45.1692 N.am      11 UNK        -0.5000 
     20 C           0.0939  -22.6275  -44.6062 C.2       10 UNK         0.5000 
     21 O           0.1353  -23.7229  -45.1680 O.2       10 UNK        -0.5000 
     22 CA          0.5965  -22.5013  -43.1591 C.3       10 UNK         0.1400 
     23 CB          2.0963  -22.1747  -43.1329 C.3       10 UNK        -0.1800 
     24 N          -0.1323  -21.4819  -42.4060 N.am      10 UNK        -0.5000 
     25 C          -1.3839  -21.6146  -41.9465 C.2       9 UNK         0.5000 
     26 O          -2.0651  -22.6243  -42.1295 O.2       9 UNK        -0.5000 
     27 CA         -1.9758  -20.4096  -41.1835 C.3       9 UNK         0.1400 
     28 CB         -3.0749  -20.8125  -40.1791 C.3       9 UNK        -0.1800 
     29 N          -0.9550  -19.5708  -40.5461 N.am      9 UNK        -0.5000 
     30 C          -0.1049  -19.9045  -39.5623 C.2       8 UNK         0.5000 
     31 O          -0.1206  -20.9899  -38.9808 O.2       8 UNK        -0.5000 
     32 CA          0.9692  -18.8646  -39.1758 C.3       8 UNK         0.1400 
     33 CB          2.3633  -19.3553  -39.5986 C.3       8 UNK        -0.1800 
     34 N           0.7400  -17.5420  -39.7628 N.am      8 UNK        -0.5000 
     35 C          -0.1778  -16.6636  -39.3365 C.2       7 UNK         0.5000 
     36 O          -0.8857  -16.8419  -38.3449 O.2       7 UNK        -0.5000 
     37 CA         -0.3624  -15.3901  -40.1836 C.3       7 UNK         0.1400 
     38 CB          0.6218  -14.2987  -39.7368 C.3       7 UNK        -0.1800 
     39 N          -0.2087  -15.6306  -41.6215 N.am      7 UNK        -0.5000 
     40 C          -1.0215  -16.4006  -42.3605 C.2       6 UNK         0.5000 
     41 O          -2.0193  -16.9653  -41.9133 O.2       6 UNK        -0.5000 
     42 CA         -0.6197  -16.6359  -43.8274 C.3       6 UNK         0.1400 
     43 CB         -1.0243  -15.4518  -44.7174 C.3       6 UNK        -0.1800 
     44 N           0.8109  -16.8937  -43.9731 N.am      6 UNK        -0.5000 
     45 C           1.4456  -17.9687  -43.4875 C.2       5 UNK         0.5000 
     46 O           0.8825  -18.8838  -42.8876 O.2       5 UNK        -0.5000 
     47 CA          2.9710  -18.0113  -43.6691 C.3       5 UNK         0.1400 
     48 CB          3.3459  -18.5656  -45.0510 C.3       5 UNK        -0.1800 
     49 N           3.5755  -16.6924  -43.4862 N.am      5 UNK        -0.5000 
     50 C           3.6686  -16.0633  -42.3066 C.2       4 UNK         0.5000 
     51 O           3.2851  -16.5466  -41.2412 O.2       4 UNK        -0.5000 
     52 CA          4.2536  -14.6394  -42.3314 C.3       4 UNK         0.1400 
     53 CB          5.7886  -14.6825  -42.3666 C.3       4 UNK        -0.1800 
     54 N           3.7625  -13.8472  -43.4609 N.am      4 UNK        -0.5000 
     55 C           2.4908  -13.4489  -43.6025 C.2       3 UNK         0.5000 
     56 O           1.6032  -13.6970  -42.7878 O.2       3 UNK        -0.5000 
     57 CA          2.1386  -12.6781  -44.8879 C.3       3 UNK         0.1400 
     58 CB          2.4434  -11.1822  -44.7200 C.3       3 UNK        -0.1800 
     59 N           2.7998  -13.1742  -46.0988 N.am      3 UNK        -0.5000 
     60 C           2.7335  -14.4298  -46.5593 C.2       2 UNK         0.5000 
     61 O           2.1788  -15.3520  -45.9612 O.2       2 UNK        -0.5000 
     62 CA          3.3347  -14.6802  -47.9509 C.3       2 UNK         0.1400 
     63 CB          3.9842  -16.0689  -48.0589 C.3       2 UNK        -0.1800 
     64 N           2.2690  -14.5708  -48.9433 N.am      2 UNK        -0.5000 
     65 C           1.8177  -13.4128  -49.4404 C.2       1 UNK         0.5000 
     66 O           2.3473  -12.3257  -49.1976 O.2       1 UNK        -0.5000 
     67 C          -2.1723  -22.3552  -46.7721 C.2       11 UNK         0.5000 
     68 O          -2.4179  -22.7274  -47.9194 O.2       11 UNK        -0.5000 
     69 N          -2.8647  -22.7687  -45.6994 N.am      12 UNK        -0.5000 
     70 CA         -3.9197  -23.7854  -45.7134 C.3       12 UNK         0.1400 
     71 CB         -4.4980  -23.9311  -44.2988 C.3       12 UNK        -0.1800 
     72 C          -3.4446  -25.1525  -46.2455 C.2       12 UNK         0.5000 
     73 O          -4.2262  -25.8522  -46.8894 O.2       12 UNK        -0.5000 
     74 N          -2.1718  -25.4856  -45.9949 N.am      13 UNK        -0.5000 
     75 CA         -1.5112  -26.6851  -46.4996 C.3       13 UNK         0.1400 
     76 CB         -0.7219  -27.3442  -45.3571 C.3       13 UNK        -0.1800 
     77 C          -0.5805  -26.3419  -47.6728 C.2       13 UNK         0.5000 
     78 O          -0.6396  -27.0066  -48.7070 O.2       13 UNK        -0.5000 
     79 N           0.2601  -25.3120  -47.4966 N.am      14 UNK        -0.5000 
     80 CA          1.3422  -24.9507  -48.4160 C.3       14 UNK         0.1400 
     81 CB          2.2882  -23.9629  -47.7146 C.3       14 UNK        -0.1800 
     82 C           0.8711  -24.3773  -49.7648 C.2       14 UNK         0.5000 
     83 O           1.5830  -24.5266  -50.7586 O.2       14 UNK        -0.5000 
     84 N          -0.3029  -23.7357  -49.7784 N.am      15 UNK        -0.5000 
     85 CA         -0.9020  -23.1097  -50.9580 C.3       15 UNK         0.1400 
     86 CB         -0.8084  -21.5826  -50.8035 C.3       15 UNK        -0.1800 
     87 C          -2.3537  -23.5717  -51.1738 C.2       15 UNK         0.5000 
     88 O          -3.0705  -22.9461  -51.9537 O.2       15 UNK        -0.5000 
     89 N          -2.7779  -24.6302  -50.4637 N.am      16 UNK        -0.5000 
     90 CA         -4.1251  -25.2172  -50.4676 C.3       16 UNK         0.1400 
     91 CB         -4.3797  -25.9544  -51.7983 C.3       16 UNK        -0.1800 
     92 C          -5.2410  -24.2034  -50.1203 C.2       16 UNK         0.5000 
     93 O          -6.3270  -24.2583  -50.6987 O.2       16 UNK        -0.5000 
     94 N          -4.9304  -23.2827  -49.1953 N.am      17 UNK        -0.5000 
     95 CA         -5.7393  -22.1436  -48.7435 C.3       17 UNK         0.1400 
     96 CB         -7.1171  -22.5847  -48.2061 C.3       17 UNK        -0.1800 
     97 C          -5.8249  -20.9922  -49.7665 C.2       17 UNK         0.5000 
     98 O          -6.6428  -20.0877  -49.5904 O.2       17 UNK        -0.5000 
     99 N          -4.9409  -21.0121  -50.7738 N.am      18 UNK        -0.5000 
    100 CA        -4.7348  -19.9927  -51.7983 C.3       18 UNK         0.1400 
    101 CB        -4.1216  -18.7193  -51.1780 C.3       18 UNK        -0.1800 
    102 C         -5.9838  -19.7549  -52.6692 C.2       18 UNK         0.5000 
    103 O         -6.5627  -20.7245  -53.1634 O.2       18 UNK        -0.5000 
    104 N         -6.3398  -18.4822  -52.9014 N.am      19 UNK        -0.5000 
    105 CA        -7.3575  -18.0212  -53.8507 C.3       19 UNK         0.1400 
    106 CB        -8.7757  -18.4031  -53.3692 C.3       19 UNK        -0.1800 
    107 C         -7.0076  -18.5084  -55.2716 C.2       19 UNK         0.5000 
    108 O         -5.9123  -18.2071  -55.7493 O.2       19 UNK        -0.5000 
    109 N         -7.8845  -19.3024  -55.8975 N.am      20 UNK        -0.5000 
    110 CA        -7.6730  -19.9156  -57.2119 C.3       20 UNK         0.1400 
    111 CB        -8.9595  -20.6442  -57.6299 C.3       20 UNK        -0.1800 
    112 C         -6.4626  -20.8730  -57.2878 C.2       20 UNK         0.5000 
    113 O         -5.9559  -21.1077  -58.3855 O.2       20 UNK        -0.5000 
    114 N         -6.0131  -21.4013  -56.1397 N.am      21 UNK        -0.5000 
    115 CA        -4.8710  -22.3106  -56.0429 C.3       21 UNK         0.1400 
    116 CB        -5.0626  -23.2312  -54.8264 C.3       21 UNK        -0.1800 
    117 C         -3.5063  -21.5944  -55.9721 C.2       21 UNK         0.5000 
    118 O         -2.4864  -22.2817  -56.0449 O.2       21 UNK        -0.5000 
    119 N         -3.4803  -20.2599  -55.8244 N.am      22 UNK        -0.5000 
    120 CA        -2.2318  -19.4863  -55.6799 C.3       22 UNK         0.1400 
    121 C         -2.2586  -18.0652  -56.3112 C.2       22 UNK         0.5000 
    122 N         -3.4058  -17.4681  -56.6039 N.am      22 UNK        -0.7600 
    123 O         -1.2060  -17.4928  -56.5775 O.2       22 UNK        -0.5000 
    124 C124       -1.7414  -19.4713  -54.2057 C.3       23 UNK        -0.0398 
    125 S125        0.0745  -19.4730  -54.0306 S.3       23 UNK        -0.2404 
    126 C126        0.3977  -17.8018  -53.3814 C.3       23 UNK        -0.0205 
    127 H127        0.7257  -11.0152  -53.4601 H         1 UNK         0.0600 
    128 H128        1.2222   -9.6166  -52.5037 H         1 UNK         0.0600 
    129 H129       -0.4899   -9.8954  -52.8395 H         1 UNK         0.0600 
    130 H130        0.8246  -12.8759  -52.3155 H         1 UNK         0.3000 
    131 H131        0.6257  -14.4668  -50.8497 H         1 UNK         0.0600 
    132 H132       -0.6649  -14.2985  -48.7001 H         1 UNK         0.0800 
    133 H133       -0.8622  -12.5921  -48.9321 H         1 UNK         0.0800 
    134 H134       -3.5448  -15.8404  -50.5688 H         1 UNK         0.0800 
    135 H135       -2.9133  -15.5789  -48.9635 H         1 UNK         0.0800 
    136 H136       -1.6017  -16.1861  -52.4538 H         1 UNK         0.1150 
    137 H137        1.3381  -19.0053  -51.1304 H         1 UNK         0.1150 
    138 H138       -1.2298  -17.0660  -48.2875 H         1 UNK         0.1150 
    139 H139        0.8816  -20.0053  -48.7880 H         1 UNK         0.0800 
    140 H140        1.8716  -18.6186  -48.4402 H         1 UNK         0.0800 
    141 H141       -1.6979  -19.9252  -47.9537 H         1 UNK         0.0800 
    142 H142       -2.0953  -19.5718  -46.2927 H         1 UNK         0.0800 
    143 H143       -0.1828  -21.7718  -47.2066 H         1 UNK         0.0600 
    144 H144       -0.3912  -20.6636  -44.6374 H         1 UNK         0.3000 
    145 H145        0.4480  -23.4665  -42.6704 H         1 UNK         0.0600 
    146 H146        2.4735  -22.1404  -42.1106 H         1 UNK         0.0600 
    147 H147        2.6709  -22.9321  -43.6678 H         1 UNK         0.0600 
    148 H148        2.3068  -21.2125  -43.5984 H         1 UNK         0.0600 
    149 H149        0.3274  -20.5813  -42.2954 H         1 UNK         0.3000 
    150 H150       -2.4434  -19.7810  -41.9423 H         1 UNK         0.0600 
    151 H151       -3.9113  -21.2935  -40.6875 H         1 UNK         0.0600 
    152 H152       -3.4714  -19.9405  -39.6589 H         1 UNK         0.0600 
    153 H153       -2.7045  -21.5121  -39.4296 H         1 UNK         0.0600 
    154 H154       -0.8439  -18.6539  -40.9597 H         1 UNK         0.3000 
    155 H155        0.9567  -18.7701  -38.0881 H         1 UNK         0.0600 
    156 H156        2.4356  -19.4791  -40.6793 H         1 UNK         0.0600 
    157 H157        2.5962  -20.3183  -39.1425 H         1 UNK         0.0600 
    158 H158        3.1390  -18.6545  -39.2894 H         1 UNK         0.0600 
    159 H159        1.3211  -17.2926  -40.5545 H         1 UNK         0.3000 
    160 H160       -1.3768  -15.0240  -40.0129 H         1 UNK         0.0600 
    161 H161        1.6560  -14.5876  -39.9275 H         1 UNK         0.0600 
    162 H162        0.5268  -14.0981  -38.6689 H         1 UNK         0.0600 
    163 H163        0.4344  -13.3615  -40.2609 H         1 UNK         0.0600 
    164 H164        0.5644  -15.1540  -42.0783 H         1 UNK         0.3000 
    165 H165       -1.1535  -17.5205  -44.1809 H         1 UNK         0.0600 
    166 H166       -0.7747  -15.6425  -45.7617 H         1 UNK         0.0600 
    167 H167       -2.0989  -15.2738  -44.6651 H         1 UNK         0.0600 
    168 H168       -0.5231  -14.5323  -44.4161 H         1 UNK         0.0600 
    169 H169        1.3427  -16.2270  -44.5269 H         1 UNK         0.3000 
    170 H170        3.3785  -18.6849  -42.9124 H         1 UNK         0.0600 
    171 H171        2.9236  -19.5589  -45.2048 H         1 UNK         0.0600 
    172 H172        2.9709  -17.9299  -45.8519 H         1 UNK         0.0600 
    173 H173        4.4266  -18.6487  -45.1651 H         1 UNK         0.0600 
    174 H174        3.8441  -16.1971  -44.3237 H         1 UNK         0.3000 
    175 H175        3.9486  -14.1400  -41.4091 H         1 UNK         0.0600 
    176 H176        6.1596  -15.1458  -43.2817 H         1 UNK         0.0600 
    177 H177        6.2125  -13.6802  -42.3017 H         1 UNK         0.0600 
    178 H178        6.1817  -15.2554  -41.5256 H         1 UNK         0.0600 
    179 H179        4.4279  -13.6061  -44.1806 H         1 UNK         0.3000 
    180 H180        1.0637  -12.7854  -45.0444 H         1 UNK         0.0600 
    181 H181        3.5127  -10.9991  -44.6076 H         1 UNK         0.0600 
    182 H182        1.9460  -10.7784  -43.8370 H         1 UNK         0.0600 
    183 H183        2.0927  -10.6093  -45.5787 H         1 UNK         0.0600 
    184 H184        3.2356  -12.4755  -46.6847 H         1 UNK         0.3000 
    185 H185        4.1079  -13.9336  -48.1453 H         1 UNK         0.0600 
    186 H186        4.7526  -16.2025  -47.2965 H         1 UNK         0.0600 
    187 H187        3.2537  -16.8661  -47.9330 H         1 UNK         0.0600 
    188 H188        4.4604  -16.2051  -49.0299 H         1 UNK         0.0600 
    189 H189        1.7755  -15.4262  -49.1558 H         1 UNK         0.3000 
    190 H190       -2.5821  -22.4339  -44.7891 H         1 UNK         0.3000 
    191 H191       -4.7182  -23.4357  -46.3662 H         1 UNK         0.0600 
    192 H192       -4.8866  -22.9818  -43.9298 H         1 UNK         0.0600 
    193 H193       -5.3215  -24.6464  -44.2857 H         1 UNK         0.0600 
    194 H194       -3.7462  -24.2835  -43.5915 H         1 UNK         0.0600 
    195 H195       -1.5869  -24.8299  -45.4899 H         1 UNK         0.3000 
    196 H196       -2.2478  -27.4080  -46.8568 H         1 UNK         0.0600 
    197 H197       -0.2028  -28.2380  -45.7054 H         1 UNK         0.0600 
    198 H198       -1.3858  -27.6486  -44.5480 H         1 UNK         0.0600 
    199 H199        0.0267  -26.6705  -44.9377 H         1 UNK         0.0600 
    200 H200        0.2384  -24.8037  -46.6150 H         1 UNK         0.3000 
    201 H201        1.9079  -25.8595  -48.6321 H         1 UNK         0.0600 
    202 H202        2.6824  -24.3832  -46.7891 H         1 UNK         0.0600 
    203 H203        1.7874  -23.0268  -47.4688 H         1 UNK         0.0600 
    204 H204        3.1410  -23.7202  -48.3498 H         1 UNK         0.0600 
    205 H205       -0.8342  -23.6485  -48.9202 H         1 UNK         0.3000 
    206 H206       -0.3610  -23.3935  -51.8627 H         1 UNK         0.0600 
    207 H207        0.2304  -21.2670  -50.7180 H         1 UNK         0.0600 
    208 H208       -1.2276  -21.0667  -51.6656 H         1 UNK         0.0600 
    209 H209       -1.3452  -21.2305  -49.9236 H         1 UNK         0.0600 
    210 H210       -2.1054  -25.0876  -49.8648 H         1 UNK         0.3000 
    211 H211       -4.1360  -25.9627  -49.6715 H         1 UNK         0.0600 
    212 H212       -4.4320  -25.2618  -52.6382 H         1 UNK         0.0600 
    213 H213       -5.3207  -26.5050  -51.7685 H         1 UNK         0.0600 
    214 H214       -3.5898  -26.6758  -52.0069 H         1 UNK         0.0600 
    215 H215       -3.9856  -23.2987  -48.8189 H         1 UNK         0.3000 
    216 H216       -5.1916  -21.7213  -47.9006 H         1 UNK         0.0600 
    217 H217       -7.6098  -21.7655  -47.6813 H         1 UNK         0.0600 
    218 H218       -7.0225  -23.4102  -47.5007 H         1 UNK         0.0600 
    219 H219       -7.7847  -22.9005  -49.0077 H         1 UNK         0.0600 
    220 H220       -4.3613  -21.8369  -50.8853 H         1 UNK         0.3000 
    221 H221       -3.9932  -20.4124  -52.4758 H         1 UNK         0.0600 
    222 H222       -4.8063  -18.2278  -50.4863 H         1 UNK         0.0600 
    223 H223       -3.2123  -18.9603  -50.6266 H         1 UNK         0.0600 
    224 H224       -3.8430  -17.9969  -51.9453 H         1 UNK         0.0600 
    225 H225       -5.7929  -17.7535  -52.4662 H         1 UNK         0.3000 
    226 H226       -7.2957  -16.9324  -53.8758 H         1 UNK         0.0600 
    227 H227       -8.9661  -18.0009  -52.3741 H         1 UNK         0.0600 
    228 H228       -9.5395  -17.9921  -54.0304 H         1 UNK         0.0600 
    229 H229       -8.9234  -19.4822  -53.3177 H         1 UNK         0.0600 
    230 H230       -8.7437  -19.5378  -55.4225 H         1 UNK         0.3000 
    231 H231       -7.4900  -19.1096  -57.9255 H         1 UNK         0.0600 
    232 H232       -9.2096  -21.4472  -56.9354 H         1 UNK         0.0600 
    233 H233       -8.8542  -21.0882  -58.6208 H         1 UNK         0.0600 
    234 H234       -9.8063  -19.9589  -57.6719 H         1 UNK         0.0600 
    235 H235       -6.4648  -21.1520  -55.2664 H         1 UNK         0.3000 
    236 H236       -4.8521  -22.9457  -56.9312 H         1 UNK         0.0600 
    237 H237       -6.0231  -23.7453  -54.8618 H         1 UNK         0.0600 
    238 H238       -4.2862  -23.9963  -54.7923 H         1 UNK         0.0600 
    239 H239       -5.0102  -22.6805  -53.8876 H         1 UNK         0.0600 
    240 H240       -4.3483  -19.7405  -55.8128 H         1 UNK         0.3000 
    241 H241       -1.4769  -20.0067  -56.2731 H         1 UNK         0.0600 
    242 H242       -4.3145  -17.8476  -56.3442 H         1 UNK         0.3800 
    243 H243       -3.3717  -16.5570  -57.0321 H         1 UNK         0.3800 
    244 H244       -2.0732  -20.3786  -53.7027 H         1 UNK         0.0800 
    245 H245       -2.1861  -18.6465  -53.6484 H         1 UNK         0.0800 
    246 H246       -0.0593  -17.0638  -54.0423 H         1 UNK         0.0800 
    247 H247        1.4719  -17.6162  -53.4171 H         1 UNK         0.0800 
@<TRIPOS>BOND
     1    1    2 1    
     2    1  127 1    
     3    1  128 1    
     4    1  129 1    
     5    2    3 2    
     6    2    4 am   BACKBONE|DICT|INTERRES
     7    4    5 1    
     8    4  130 1    
     9    5    6 1    
    10    5   65 1    
    11    5  131 1    
    12    6    7 1    
    13    6  132 1    
    14    6  133 1    
    15    7    8 1    
    16    8    9 1    
    17    8  134 1    
    18    8  135 1    
    19    9   10 ar   
    20    9   14 ar   
    21   10   11 ar   
    22   10  136 1    
    23   11   12 ar   
    24   11  126 1    
    25   12   13 ar   
    26   12  137 1    
    27   13   14 ar   
    28   13   15 1    
    29   14  138 1    
    30   15   16 1    
    31   15  139 1    
    32   15  140 1    
    33   16   17 1    
    34   17   18 1    
    35   17  141 1    
    36   17  142 1    
    37   18   19 1    
    38   18   67 1    
    39   18  143 1    
    40   19   20 am   BACKBONE|DICT|INTERRES
    41   19  144 1    
    42   20   21 2    
    43   20   22 1    
    44   22   23 1    
    45   22   24 1    
    46   22  145 1    
    47   23  146 1    
    48   23  147 1    
    49   23  148 1    
    50   24   25 am   BACKBONE|DICT|INTERRES
    51   24  149 1    
    52   25   26 2    
    53   25   27 1    
    54   27   28 1    
    55   27   29 1    
    56   27  150 1    
    57   28  151 1    
    58   28  152 1    
    59   28  153 1    
    60   29   30 am   BACKBONE|DICT|INTERRES
    61   29  154 1    
    62   30   31 2    
    63   30   32 1    
    64   32   33 1    
    65   32   34 1    
    66   32  155 1    
    67   33  156 1    
    68   33  157 1    
    69   33  158 1    
    70   34   35 am   BACKBONE|DICT|INTERRES
    71   34  159 1    
    72   35   36 2    
    73   35   37 1    
    74   37   38 1    
    75   37   39 1    
    76   37  160 1    
    77   38  161 1    
    78   38  162 1    
    79   38  163 1    
    80   39   40 am   BACKBONE|DICT|INTERRES
    81   39  164 1    
    82   40   41 2    
    83   40   42 1    
    84   42   43 1    
    85   42   44 1    
    86   42  165 1    
    87   43  166 1    
    88   43  167 1    
    89   43  168 1    
    90   44   45 am   BACKBONE|DICT|INTERRES
    91   44  169 1    
    92   45   46 2    
    93   45   47 1    
    94   47   48 1    
    95   47   49 1    
    96   47  170 1    
    97   48  171 1    
    98   48  172 1    
    99   48  173 1    
   100   49   50 am   BACKBONE|DICT|INTERRES
   101   49  174 1    
   102   50   51 2    
   103   50   52 1    
   104   52   53 1    
   105   52   54 1    
   106   52  175 1    
   107   53  176 1    
   108   53  177 1    
   109   53  178 1    
   110   54   55 am   BACKBONE|DICT|INTERRES
   111   54  179 1    
   112   55   56 2    
   113   55   57 1    
   114   57   58 1    
   115   57   59 1    
   116   57  180 1    
   117   58  181 1    
   118   58  182 1    
   119   58  183 1    
   120   59   60 am   BACKBONE|DICT|INTERRES
   121   59  184 1    
   122   60   61 2    
   123   60   62 1    
   124   62   63 1    
   125   62   64 1    
   126   62  185 1    
   127   63  186 1    
   128   63  187 1    
   129   63  188 1    
   130   64   65 am   BACKBONE|DICT|INTERRES
   131   64  189 1    
   132   65   66 2    
   133   67   68 2    
   134   67   69 am   BACKBONE|DICT|INTERRES
   135   69   70 1    
   136   69  190 1    
   137   70   71 1    
   138   70   72 1    
   139   70  191 1    
   140   71  192 1    
   141   71  193 1    
   142   71  194 1    
   143   72   73 2    
   144   72   74 am   BACKBONE|DICT|INTERRES
   145   74   75 1    
   146   74  195 1    
   147   75   76 1    
   148   75   77 1    
   149   75  196 1    
   150   76  197 1    
   151   76  198 1    
   152   76  199 1    
   153   77   78 2    
   154   77   79 am   BACKBONE|DICT|INTERRES
   155   79   80 1    
   156   79  200 1    
   157   80   81 1    
   158   80   82 1    
   159   80  201 1    
   160   81  202 1    
   161   81  203 1    
   162   81  204 1    
   163   82   83 2    
   164   82   84 am   BACKBONE|DICT|INTERRES
   165   84   85 1    
   166   84  205 1    
   167   85   86 1    
   168   85   87 1    
   169   85  206 1    
   170   86  207 1    
   171   86  208 1    
   172   86  209 1    
   173   87   88 2    
   174   87   89 am   BACKBONE|DICT|INTERRES
   175   89   90 1    
   176   89  210 1    
   177   90   91 1    
   178   90   92 1    
   179   90  211 1    
   180   91  212 1    
   181   91  213 1    
   182   91  214 1    
   183   92   93 2    
   184   92   94 am   BACKBONE|DICT|INTERRES
   185   94   95 1    
   186   94  215 1    
   187   95   96 1    
   188   95   97 1    
   189   95  216 1    
   190   96  217 1    
   191   96  218 1    
   192   96  219 1    
   193   97   98 2    
   194   97   99 am   BACKBONE|DICT|INTERRES
   195   99  100 1    
   196   99  220 1    
   197  100  101 1    
   198  100  102 1    
   199  100  221 1    
   200  101  222 1    
   201  101  223 1    
   202  101  224 1    
   203  102  103 2    
   204  102  104 am   BACKBONE|DICT|INTERRES
   205  104  105 1    
   206  104  225 1    
   207  105  106 1    
   208  105  107 1    
   209  105  226 1    
   210  106  227 1    
   211  106  228 1    
   212  106  229 1    
   213  107  108 2    
   214  107  109 am   BACKBONE|DICT|INTERRES
   215  109  110 1    
   216  109  230 1    
   217  110  111 1    
   218  110  112 1    
   219  110  231 1    
   220  111  232 1    
   221  111  233 1    
   222  111  234 1    
   223  112  113 2    
   224  112  114 am   BACKBONE|DICT|INTERRES
   225  114  115 1    
   226  114  235 1    
   227  115  116 1    
   228  115  117 1    
   229  115  236 1    
   230  116  237 1    
   231  116  238 1    
   232  116  239 1    
   233  117  118 2    
   234  117  119 am   BACKBONE|DICT|INTERRES
   235  119  120 1    
   236  119  240 1    
   237  120  121 1    
   238  120  124 1    
   239  120  241 1    
   240  121  122 am   BACKBONE|DICT|INTERRES
   241  121  123 2    
   242  122  242 1    
   243  122  243 1    
   244  124  125 1    
   245  124  244 1    
   246  124  245 1    
   247  125  126 1    
   248  126  246 1    
   249  126  247 1    
@<TRIPOS>SUBSTRUCTURE
     1 UNK         1 GROUP             0       ****    0 ROOT    
