@<TRIPOS>MOLECULE
3R540
247   249    1
SMALL
USER_CHARGES


@<TRIPOS>ATOM
      1 CA          2.9355  -17.4409  -49.0194 C.3       0 UNK        -0.1800 
      2 C           1.8528  -16.6247  -49.7125 C.2       0 UNK         0.5000 
      3 O           2.1401  -15.5589  -50.2539 O.2       0 UNK        -0.5000 
      4 N           0.6080  -17.1211  -49.6788 N.am      1 UNK        -0.5000 
      5 CA         -0.6075  -16.5630  -50.3022 C.3       1 UNK         0.1400 
      6 C6         -0.5084  -16.4229  -51.8462 C.3       23 UNK        -0.0398 
      7 S7         -0.1451  -18.0123  -52.6668 S.3       23 UNK        -0.2404 
      8 C8          1.5047  -17.7024  -53.3620 C.3       23 UNK        -0.0205 
      9 C9          2.3122  -18.9858  -53.4674 C.ar      23 UNK        -0.0193 
     10 C10         2.2924  -19.7490  -54.6392 C.ar      23 UNK        -0.1150 
     11 C11         3.0748  -20.9040  -54.7443 C.ar      23 UNK        -0.0193 
     12 C12         3.8819  -21.2872  -53.6691 C.ar      23 UNK        -0.1150 
     13 C13         3.8954  -20.5428  -52.4871 C.ar      23 UNK        -0.0193 
     14 C14         3.1057  -19.3952  -52.3922 C.ar      23 UNK        -0.1150 
     15 C15         4.7785  -20.9704  -51.3259 C.3       23 UNK        -0.0205 
     16 S16         4.1115  -22.4511  -50.5035 S.3       23 UNK        -0.2404 
     17 C17         4.0144  -21.9389  -48.7538 C.3       23 UNK        -0.0398 
     18 CA          2.7691  -22.5400  -48.0574 C.3       11 UNK         0.1400 
     19 N           2.9926  -22.7881  -46.6302 N.am      11 UNK        -0.5000 
     20 C           2.2148  -23.5841  -45.8820 C.2       10 UNK         0.5000 
     21 O           1.2482  -24.2004  -46.3273 O.2       10 UNK        -0.5000 
     22 CA          2.5409  -23.6770  -44.3803 C.3       10 UNK         0.1400 
     23 CB          3.5234  -24.8265  -44.1134 C.3       10 UNK        -0.1800 
     24 N           3.0831  -22.4360  -43.8232 N.am      10 UNK        -0.5000 
     25 C           2.4226  -21.2728  -43.7680 C.2       9 UNK         0.5000 
     26 O           1.2828  -21.1090  -44.2101 O.2       9 UNK        -0.5000 
     27 CA          3.1819  -20.0898  -43.1513 C.3       9 UNK         0.1400 
     28 CB          3.2935  -18.9227  -44.1462 C.3       9 UNK        -0.1800 
     29 N           2.5133  -19.6313  -41.9386 N.am      9 UNK        -0.5000 
     30 C           2.6825  -20.1750  -40.7272 C.2       8 UNK         0.5000 
     31 O           3.4111  -21.1457  -40.5162 O.2       8 UNK        -0.5000 
     32 CA          1.9393  -19.5256  -39.5486 C.3       8 UNK         0.1400 
     33 CB          2.6537  -18.2410  -39.0976 C.3       8 UNK        -0.1800 
     34 N           0.5453  -19.2140  -39.8681 N.am      8 UNK        -0.5000 
     35 C          -0.5005  -19.5199  -39.0848 C.2       7 UNK         0.5000 
     36 O          -0.3963  -20.1278  -38.0182 O.2       7 UNK        -0.5000 
     37 CA         -1.9054  -19.0663  -39.5401 C.3       7 UNK         0.1400 
     38 CB         -2.3622  -17.8457  -38.7266 C.3       7 UNK        -0.1800 
     39 N          -1.9868  -18.7401  -40.9631 N.am      7 UNK        -0.5000 
     40 C          -1.8961  -19.6384  -41.9538 C.2       6 UNK         0.5000 
     41 O          -1.8540  -20.8529  -41.7595 O.2       6 UNK        -0.5000 
     42 CA         -1.8122  -19.1044  -43.3991 C.3       6 UNK         0.1400 
     43 CB         -3.1515  -19.3084  -44.1193 C.3       6 UNK        -0.1800 
     44 N          -1.4294  -17.6930  -43.5233 N.am      6 UNK        -0.5000 
     45 C          -0.3167  -17.1247  -43.0314 C.2       5 UNK         0.5000 
     46 O           0.5642  -17.7504  -42.4441 O.2       5 UNK        -0.5000 
     47 CA         -0.1915  -15.5927  -43.1429 C.3       5 UNK         0.1400 
     48 CB          0.6575  -15.2260  -44.3670 C.3       5 UNK        -0.1800 
     49 N          -1.4781  -14.8931  -43.2134 N.am      5 UNK        -0.5000 
     50 C          -2.4726  -15.0032  -42.3175 C.2       4 UNK         0.5000 
     51 O          -2.3684  -15.6346  -41.2650 O.2       4 UNK        -0.5000 
     52 CA         -3.8297  -14.3596  -42.6677 C.3       4 UNK         0.1400 
     53 CB         -4.0505  -13.0886  -41.8336 C.3       4 UNK        -0.1800 
     54 N          -4.0167  -14.0312  -44.0838 N.am      4 UNK        -0.5000 
     55 C          -3.9515  -14.8751  -45.1239 C.2       3 UNK         0.5000 
     56 O          -3.6928  -16.0756  -45.0221 O.2       3 UNK        -0.5000 
     57 CA         -4.1702  -14.2645  -46.5239 C.3       3 UNK         0.1400 
     58 CB         -4.9269  -12.9190  -46.5070 C.3       3 UNK        -0.1800 
     59 N          -2.9281  -14.1235  -47.2900 N.am      3 UNK        -0.5000 
     60 C          -1.7747  -13.5617  -46.8994 C.2       2 UNK         0.5000 
     61 O          -1.5650  -13.1422  -45.7594 O.2       2 UNK        -0.5000 
     62 CA         -0.6741  -13.4553  -47.9760 C.3       2 UNK         0.1400 
     63 CB          0.6553  -12.9022  -47.4315 C.3       2 UNK        -0.1800 
     64 N          -0.4089  -14.7311  -48.6421 N.am      2 UNK        -0.5000 
     65 C          -1.1135  -15.2498  -49.6558 C.2       1 UNK         0.5000 
     66 O          -2.1532  -14.7350  -50.0693 O.2       1 UNK        -0.5000 
     67 C           1.5016  -21.6940  -48.3016 C.2       11 UNK         0.5000 
     68 O           0.7691  -21.9633  -49.2513 O.2       11 UNK        -0.5000 
     69 N           1.2266  -20.7252  -47.4133 N.am      12 UNK        -0.5000 
     70 CA         -0.0050  -19.9344  -47.4369 C.3       12 UNK         0.1400 
     71 CB          0.1456  -18.6910  -46.5484 C.3       12 UNK        -0.1800 
     72 C          -1.2356  -20.7654  -47.0366 C.2       12 UNK         0.5000 
     73 O          -2.3036  -20.5740  -47.6166 O.2       12 UNK        -0.5000 
     74 N          -1.0587  -21.6989  -46.0907 N.am      13 UNK        -0.5000 
     75 CA         -2.0748  -22.6810  -45.7106 C.3       13 UNK         0.1400 
     76 CB         -1.6313  -23.4333  -44.4478 C.3       13 UNK        -0.1800 
     77 C          -2.3992  -23.6534  -46.8604 C.2       13 UNK         0.5000 
     78 O          -3.5753  -23.8718  -47.1512 O.2       13 UNK        -0.5000 
     79 N          -1.3589  -24.1693  -47.5326 N.am      14 UNK        -0.5000 
     80 CA         -1.4651  -25.0154  -48.7259 C.3       14 UNK         0.1400 
     81 CB         -0.0723  -25.5295  -49.1193 C.3       14 UNK        -0.1800 
     82 C          -2.1348  -24.2969  -49.9130 C.2       14 UNK         0.5000 
     83 O          -2.9415  -24.9050  -50.6163 O.2       14 UNK        -0.5000 
     84 N          -1.8352  -23.0006  -50.0715 N.am      15 UNK        -0.5000 
     85 CA         -2.4489  -22.1019  -51.0489 C.3       15 UNK         0.1400 
     86 CB         -1.5479  -20.8742  -51.2336 C.3       15 UNK        -0.1800 
     87 C          -3.8898  -21.6694  -50.7043 C.2       15 UNK         0.5000 
     88 O          -4.4847  -20.9235  -51.4849 O.2       15 UNK        -0.5000 
     89 N          -4.4178  -22.1347  -49.5624 N.am      16 UNK        -0.5000 
     90 CA         -5.7573  -21.8871  -49.0292 C.3       16 UNK         0.1400 
     91 CB         -6.8382  -22.5271  -49.9251 C.3       16 UNK        -0.1800 
     92 C          -6.0060  -20.4038  -48.6933 C.2       16 UNK         0.5000 
     93 O          -7.0878  -19.8746  -48.9584 O.2       16 UNK        -0.5000 
     94 N          -4.9937  -19.7688  -48.0843 N.am      17 UNK        -0.5000 
     95 CA         -4.9955  -18.4026  -47.5651 C.3       17 UNK         0.1400 
     96 CB         -5.9342  -18.3075  -46.3384 C.3       17 UNK        -0.1800 
     97 C          -5.2947  -17.3752  -48.6734 C.2       17 UNK         0.5000 
     98 O          -4.5314  -17.2825  -49.6360 O.2       17 UNK        -0.5000 
     99 N          -6.4004  -16.6338  -48.5244 N.am      18 UNK        -0.5000 
    100 CA        -6.8565  -15.5792  -49.4295 C.3       18 UNK         0.1400 
    101 CB        -7.9837  -14.7952  -48.7400 C.3       18 UNK        -0.1800 
    102 C         -7.3020  -16.0770  -50.8194 C.2       18 UNK         0.5000 
    103 O         -7.4538  -15.2529  -51.7221 O.2       18 UNK        -0.5000 
    104 N         -7.4866  -17.3967  -50.9877 N.am      19 UNK        -0.5000 
    105 CA        -7.7241  -18.0305  -52.2878 C.3       19 UNK         0.1400 
    106 CB        -8.1121  -19.4994  -52.0802 C.3       19 UNK        -0.1800 
    107 C         -6.5054  -17.9284  -53.2270 C.2       19 UNK         0.5000 
    108 O         -6.6925  -17.8646  -54.4425 O.2       19 UNK        -0.5000 
    109 N         -5.2984  -17.8778  -52.6387 N.am      20 UNK        -0.5000 
    110 CA        -4.0053  -17.6267  -53.2766 C.3       20 UNK         0.1400 
    111 CB        -3.9085  -16.1429  -53.6897 C.3       20 UNK        -0.1800 
    112 C         -3.6855  -18.5973  -54.4322 C.2       20 UNK         0.5000 
    113 O         -3.3701  -18.1569  -55.5400 O.2       20 UNK        -0.5000 
    114 N         -3.7985  -19.9030  -54.1537 N.am      21 UNK        -0.5000 
    115 CA        -3.4218  -20.9818  -55.0662 C.3       21 UNK         0.1400 
    116 CB        -4.2517  -22.2378  -54.7315 C.3       21 UNK        -0.1800 
    117 C         -1.8917  -21.1992  -55.0401 C.2       21 UNK         0.5000 
    118 O         -1.1473  -20.3252  -55.4845 O.2       21 UNK        -0.5000 
    119 N         -1.4372  -22.3518  -54.5388 N.am      22 UNK        -0.5000 
    120 CA        -0.0229  -22.7109  -54.3987 C.3       22 UNK         0.1400 
    121 C          0.1166  -23.8333  -53.3394 C.2       22 UNK         0.5000 
    122 N          1.0426  -23.7058  -52.3994 N.am      22 UNK        -0.7600 
    123 O         -0.6047  -24.8273  -53.3750 O.2       22 UNK        -0.5000 
    124 C124        0.5953  -23.0908  -55.7723 C.3       23 UNK        -0.0398 
    125 S125        2.3936  -23.4022  -55.7474 S.3       23 UNK        -0.2404 
    126 C126        3.0726  -21.7334  -56.0202 C.3       23 UNK        -0.0205 
    127 H127        3.1530  -17.0195  -48.0378 H         1 UNK         0.0600 
    128 H128        3.8542  -17.4268  -49.6060 H         1 UNK         0.0600 
    129 H129        2.6349  -18.4809  -48.8895 H         1 UNK         0.0600 
    130 H130        0.4673  -18.0100  -49.2260 H         1 UNK         0.3000 
    131 H131       -1.3938  -17.2921  -50.0977 H         1 UNK         0.0600 
    132 H132       -1.4518  -16.0613  -52.2535 H         1 UNK         0.0800 
    133 H133        0.2341  -15.6739  -52.1236 H         1 UNK         0.0800 
    134 H134        2.0483  -16.9884  -52.7423 H         1 UNK         0.0800 
    135 H135        1.3981  -17.2373  -54.3430 H         1 UNK         0.0800 
    136 H136        1.6686  -19.4413  -55.4671 H         1 UNK         0.1150 
    137 H137        4.4932  -22.1755  -53.7483 H         1 UNK         0.1150 
    138 H138        3.1165  -18.8106  -51.4853 H         1 UNK         0.1150 
    139 H139        5.7788  -21.1963  -51.6980 H         1 UNK         0.0800 
    140 H140        4.9005  -20.1493  -50.6189 H         1 UNK         0.0800 
    141 H141        4.0381  -20.8524  -48.6556 H         1 UNK         0.0800 
    142 H142        4.9257  -22.3017  -48.2763 H         1 UNK         0.0800 
    143 H143        2.5808  -23.5196  -48.5031 H         1 UNK         0.0600 
    144 H144        3.7727  -22.3202  -46.1930 H         1 UNK         0.3000 
    145 H145        1.6091  -23.8964  -43.8551 H         1 UNK         0.0600 
    146 H146        3.6942  -24.9594  -43.0449 H         1 UNK         0.0600 
    147 H147        3.1340  -25.7701  -44.4982 H         1 UNK         0.0600 
    148 H148        4.4890  -24.6511  -44.5894 H         1 UNK         0.0600 
    149 H149        4.0096  -22.4903  -43.4247 H         1 UNK         0.3000 
    150 H150        4.1974  -20.4061  -42.9029 H         1 UNK         0.0600 
    151 H151        3.7681  -19.2408  -45.0751 H         1 UNK         0.0600 
    152 H152        3.8966  -18.1141  -43.7332 H         1 UNK         0.0600 
    153 H153        2.3185  -18.5085  -44.3991 H         1 UNK         0.0600 
    154 H154        1.8506  -18.8683  -42.0644 H         1 UNK         0.3000 
    155 H155        1.9867  -20.2409  -38.7248 H         1 UNK         0.0600 
    156 H156        2.6233  -17.4716  -39.8702 H         1 UNK         0.0600 
    157 H157        3.7016  -18.4355  -38.8658 H         1 UNK         0.0600 
    158 H158        2.1927  -17.8306  -38.1990 H         1 UNK         0.0600 
    159 H159        0.3782  -18.7272  -40.7427 H         1 UNK         0.3000 
    160 H160       -2.5963  -19.8876  -39.3389 H         1 UNK         0.0600 
    161 H161       -1.7012  -16.9917  -38.8806 H         1 UNK         0.0600 
    162 H162       -2.3701  -18.0667  -37.6585 H         1 UNK         0.0600 
    163 H163       -3.3719  -17.5414  -39.0030 H         1 UNK         0.0600 
    164 H164       -2.0352  -17.7546  -41.1967 H         1 UNK         0.3000 
    165 H165       -1.0551  -19.7052  -43.9025 H         1 UNK         0.0600 
    166 H166       -3.0621  -19.0824  -45.1810 H         1 UNK         0.0600 
    167 H167       -3.4967  -20.3387  -44.0329 H         1 UNK         0.0600 
    168 H168       -3.9294  -18.6665  -43.7039 H         1 UNK         0.0600 
    169 H169       -2.1083  -17.0912  -43.9772 H         1 UNK         0.3000 
    170 H170        0.3242  -15.2420  -42.2470 H         1 UNK         0.0600 
    171 H171        1.6312  -15.7170  -44.3320 H         1 UNK         0.0600 
    172 H172        0.1713  -15.5254  -45.2963 H         1 UNK         0.0600 
    173 H173        0.8371  -14.1518  -44.4079 H         1 UNK         0.0600 
    174 H174       -1.6432  -14.3363  -44.0457 H         1 UNK         0.3000 
    175 H175       -4.6013  -15.0838  -42.3995 H         1 UNK         0.0600 
    176 H176       -3.3245  -12.3140  -42.0840 H         1 UNK         0.0600 
    177 H177       -5.0484  -12.6795  -41.9924 H         1 UNK         0.0600 
    178 H178       -3.9535  -13.2973  -40.7671 H         1 UNK         0.0600 
    179 H179       -4.1837  -13.0568  -44.2881 H         1 UNK         0.3000 
    180 H180       -4.7898  -14.9759  -47.0655 H         1 UNK         0.0600 
    181 H181       -4.3354  -12.1179  -46.0623 H         1 UNK         0.0600 
    182 H182       -5.8617  -12.9971  -45.9501 H         1 UNK         0.0600 
    183 H183       -5.1857  -12.6099  -47.5199 H         1 UNK         0.0600 
    184 H184       -2.9636  -14.4493  -48.2509 H         1 UNK         0.3000 
    185 H185       -1.0380  -12.7422  -48.7188 H         1 UNK         0.0600 
    186 H186        1.1149  -13.5833  -46.7166 H         1 UNK         0.0600 
    187 H187        1.3697  -12.7390  -48.2388 H         1 UNK         0.0600 
    188 H188        0.5108  -11.9435  -46.9317 H         1 UNK         0.0600 
    189 H189        0.4279  -15.2177  -48.3581 H         1 UNK         0.3000 
    190 H190        1.8308  -20.6051  -46.6138 H         1 UNK         0.3000 
    191 H191       -0.1683  -19.5947  -48.4604 H         1 UNK         0.0600 
    192 H192       -0.7622  -18.0858  -46.5600 H         1 UNK         0.0600 
    193 H193        0.9660  -18.0562  -46.8798 H         1 UNK         0.0600 
    194 H194        0.3441  -18.9636  -45.5147 H         1 UNK         0.0600 
    195 H195       -0.1631  -21.7544  -45.6194 H         1 UNK         0.3000 
    196 H196       -2.9907  -22.1371  -45.4731 H         1 UNK         0.0600 
    197 H197       -2.4274  -24.0848  -44.0861 H         1 UNK         0.0600 
    198 H198       -1.3845  -22.7418  -43.6425 H         1 UNK         0.0600 
    199 H199       -0.7578  -24.0576  -44.6295 H         1 UNK         0.0600 
    200 H200       -0.4188  -23.9880  -47.1902 H         1 UNK         0.3000 
    201 H201       -2.0851  -25.8760  -48.4668 H         1 UNK         0.0600 
    202 H202        0.3799  -26.1030  -48.3100 H         1 UNK         0.0600 
    203 H203        0.6027  -24.7105  -49.3667 H         1 UNK         0.0600 
    204 H204       -0.1294  -26.1831  -49.9907 H         1 UNK         0.0600 
    205 H205       -1.0979  -22.6004  -49.4997 H         1 UNK         0.3000 
    206 H206       -2.4962  -22.6335  -51.9984 H         1 UNK         0.0600 
    207 H207       -0.5394  -21.1590  -51.5338 H         1 UNK         0.0600 
    208 H208       -1.9397  -20.2187  -52.0099 H         1 UNK         0.0600 
    209 H209       -1.4758  -20.2877  -50.3186 H         1 UNK         0.0600 
    210 H210       -3.8321  -22.7193  -48.9788 H         1 UNK         0.3000 
    211 H211       -5.7962  -22.4052  -48.0702 H         1 UNK         0.0600 
    212 H212       -6.8177  -22.1364  -50.9408 H         1 UNK         0.0600 
    213 H213       -7.8381  -22.3557  -49.5248 H         1 UNK         0.0600 
    214 H214       -6.6980  -23.6062  -49.9878 H         1 UNK         0.0600 
    215 H215       -4.1083  -20.2598  -47.9772 H         1 UNK         0.3000 
    216 H216       -3.9797  -18.1944  -47.2266 H         1 UNK         0.0600 
    217 H217       -5.8948  -17.3191  -45.8806 H         1 UNK         0.0600 
    218 H218       -5.6428  -19.0242  -45.5715 H         1 UNK         0.0600 
    219 H219       -6.9742  -18.5146  -46.5928 H         1 UNK         0.0600 
    220 H220       -6.9909  -16.8213  -47.7271 H         1 UNK         0.3000 
    221 H221       -6.0185  -14.8977  -49.5913 H         1 UNK         0.0600 
    222 H222       -8.8457  -15.4305  -48.5325 H         1 UNK         0.0600 
    223 H223       -7.6465  -14.3652  -47.7966 H         1 UNK         0.0600 
    224 H224       -8.3272  -13.9700  -49.3653 H         1 UNK         0.0600 
    225 H225       -7.3542  -18.0174  -50.1975 H         1 UNK         0.3000 
    226 H226       -8.5624  -17.5191  -52.7656 H         1 UNK         0.0600 
    227 H227       -7.2781  -20.0653  -51.6685 H         1 UNK         0.0600 
    228 H228       -8.9586  -19.5991  -51.4006 H         1 UNK         0.0600 
    229 H229       -8.3903  -19.9677  -53.0250 H         1 UNK         0.0600 
    230 H230       -5.2650  -17.9477  -51.6284 H         1 UNK         0.3000 
    231 H231       -3.2511  -17.8074  -52.5098 H         1 UNK         0.0600 
    232 H232       -2.9347  -15.9168  -54.1252 H         1 UNK         0.0600 
    233 H233       -4.0400  -15.4875  -52.8283 H         1 UNK         0.0600 
    234 H234       -4.6648  -15.8793  -54.4298 H         1 UNK         0.0600 
    235 H235       -4.0896  -20.1786  -53.2190 H         1 UNK         0.3000 
    236 H236       -3.6793  -20.6892  -56.0862 H         1 UNK         0.0600 
    237 H237       -5.3171  -22.0363  -54.8452 H         1 UNK         0.0600 
    238 H238       -4.0106  -23.0613  -55.4049 H         1 UNK         0.0600 
    239 H239       -4.0953  -22.5820  -53.7102 H         1 UNK         0.0600 
    240 H240       -2.0861  -23.0500  -54.2025 H         1 UNK         0.3000 
    241 H241        0.4949  -21.8313  -54.0134 H         1 UNK         0.0600 
    242 H242        1.1461  -24.4364  -51.7159 H         1 UNK         0.3800 
    243 H243        1.6481  -22.9005  -52.3568 H         1 UNK         0.3800 
    244 H244        0.1061  -23.9840  -56.1641 H         1 UNK         0.0800 
    245 H245        0.4001  -22.3069  -56.5044 H         1 UNK         0.0800 
    246 H246        4.0996  -21.8291  -56.3752 H         1 UNK         0.0800 
    247 H247        2.5213  -21.2320  -56.8172 H         1 UNK         0.0800 
@<TRIPOS>BOND
     1    1    2 1    
     2    1  127 1    
     3    1  128 1    
     4    1  129 1    
     5    2    3 2    
     6    2    4 am   BACKBONE|DICT|INTERRES
     7    4    5 1    
     8    4  130 1    
     9    5    6 1    
    10    5   65 1    
    11    5  131 1    
    12    6    7 1    
    13    6  132 1    
    14    6  133 1    
    15    7    8 1    
    16    8    9 1    
    17    8  134 1    
    18    8  135 1    
    19    9   10 ar   
    20    9   14 ar   
    21   10   11 ar   
    22   10  136 1    
    23   11   12 ar   
    24   11  126 1    
    25   12   13 ar   
    26   12  137 1    
    27   13   14 ar   
    28   13   15 1    
    29   14  138 1    
    30   15   16 1    
    31   15  139 1    
    32   15  140 1    
    33   16   17 1    
    34   17   18 1    
    35   17  141 1    
    36   17  142 1    
    37   18   19 1    
    38   18   67 1    
    39   18  143 1    
    40   19   20 am   BACKBONE|DICT|INTERRES
    41   19  144 1    
    42   20   21 2    
    43   20   22 1    
    44   22   23 1    
    45   22   24 1    
    46   22  145 1    
    47   23  146 1    
    48   23  147 1    
    49   23  148 1    
    50   24   25 am   BACKBONE|DICT|INTERRES
    51   24  149 1    
    52   25   26 2    
    53   25   27 1    
    54   27   28 1    
    55   27   29 1    
    56   27  150 1    
    57   28  151 1    
    58   28  152 1    
    59   28  153 1    
    60   29   30 am   BACKBONE|DICT|INTERRES
    61   29  154 1    
    62   30   31 2    
    63   30   32 1    
    64   32   33 1    
    65   32   34 1    
    66   32  155 1    
    67   33  156 1    
    68   33  157 1    
    69   33  158 1    
    70   34   35 am   BACKBONE|DICT|INTERRES
    71   34  159 1    
    72   35   36 2    
    73   35   37 1    
    74   37   38 1    
    75   37   39 1    
    76   37  160 1    
    77   38  161 1    
    78   38  162 1    
    79   38  163 1    
    80   39   40 am   BACKBONE|DICT|INTERRES
    81   39  164 1    
    82   40   41 2    
    83   40   42 1    
    84   42   43 1    
    85   42   44 1    
    86   42  165 1    
    87   43  166 1    
    88   43  167 1    
    89   43  168 1    
    90   44   45 am   BACKBONE|DICT|INTERRES
    91   44  169 1    
    92   45   46 2    
    93   45   47 1    
    94   47   48 1    
    95   47   49 1    
    96   47  170 1    
    97   48  171 1    
    98   48  172 1    
    99   48  173 1    
   100   49   50 am   BACKBONE|DICT|INTERRES
   101   49  174 1    
   102   50   51 2    
   103   50   52 1    
   104   52   53 1    
   105   52   54 1    
   106   52  175 1    
   107   53  176 1    
   108   53  177 1    
   109   53  178 1    
   110   54   55 am   BACKBONE|DICT|INTERRES
   111   54  179 1    
   112   55   56 2    
   113   55   57 1    
   114   57   58 1    
   115   57   59 1    
   116   57  180 1    
   117   58  181 1    
   118   58  182 1    
   119   58  183 1    
   120   59   60 am   BACKBONE|DICT|INTERRES
   121   59  184 1    
   122   60   61 2    
   123   60   62 1    
   124   62   63 1    
   125   62   64 1    
   126   62  185 1    
   127   63  186 1    
   128   63  187 1    
   129   63  188 1    
   130   64   65 am   BACKBONE|DICT|INTERRES
   131   64  189 1    
   132   65   66 2    
   133   67   68 2    
   134   67   69 am   BACKBONE|DICT|INTERRES
   135   69   70 1    
   136   69  190 1    
   137   70   71 1    
   138   70   72 1    
   139   70  191 1    
   140   71  192 1    
   141   71  193 1    
   142   71  194 1    
   143   72   73 2    
   144   72   74 am   BACKBONE|DICT|INTERRES
   145   74   75 1    
   146   74  195 1    
   147   75   76 1    
   148   75   77 1    
   149   75  196 1    
   150   76  197 1    
   151   76  198 1    
   152   76  199 1    
   153   77   78 2    
   154   77   79 am   BACKBONE|DICT|INTERRES
   155   79   80 1    
   156   79  200 1    
   157   80   81 1    
   158   80   82 1    
   159   80  201 1    
   160   81  202 1    
   161   81  203 1    
   162   81  204 1    
   163   82   83 2    
   164   82   84 am   BACKBONE|DICT|INTERRES
   165   84   85 1    
   166   84  205 1    
   167   85   86 1    
   168   85   87 1    
   169   85  206 1    
   170   86  207 1    
   171   86  208 1    
   172   86  209 1    
   173   87   88 2    
   174   87   89 am   BACKBONE|DICT|INTERRES
   175   89   90 1    
   176   89  210 1    
   177   90   91 1    
   178   90   92 1    
   179   90  211 1    
   180   91  212 1    
   181   91  213 1    
   182   91  214 1    
   183   92   93 2    
   184   92   94 am   BACKBONE|DICT|INTERRES
   185   94   95 1    
   186   94  215 1    
   187   95   96 1    
   188   95   97 1    
   189   95  216 1    
   190   96  217 1    
   191   96  218 1    
   192   96  219 1    
   193   97   98 2    
   194   97   99 am   BACKBONE|DICT|INTERRES
   195   99  100 1    
   196   99  220 1    
   197  100  101 1    
   198  100  102 1    
   199  100  221 1    
   200  101  222 1    
   201  101  223 1    
   202  101  224 1    
   203  102  103 2    
   204  102  104 am   BACKBONE|DICT|INTERRES
   205  104  105 1    
   206  104  225 1    
   207  105  106 1    
   208  105  107 1    
   209  105  226 1    
   210  106  227 1    
   211  106  228 1    
   212  106  229 1    
   213  107  108 2    
   214  107  109 am   BACKBONE|DICT|INTERRES
   215  109  110 1    
   216  109  230 1    
   217  110  111 1    
   218  110  112 1    
   219  110  231 1    
   220  111  232 1    
   221  111  233 1    
   222  111  234 1    
   223  112  113 2    
   224  112  114 am   BACKBONE|DICT|INTERRES
   225  114  115 1    
   226  114  235 1    
   227  115  116 1    
   228  115  117 1    
   229  115  236 1    
   230  116  237 1    
   231  116  238 1    
   232  116  239 1    
   233  117  118 2    
   234  117  119 am   BACKBONE|DICT|INTERRES
   235  119  120 1    
   236  119  240 1    
   237  120  121 1    
   238  120  124 1    
   239  120  241 1    
   240  121  122 am   BACKBONE|DICT|INTERRES
   241  121  123 2    
   242  122  242 1    
   243  122  243 1    
   244  124  125 1    
   245  124  244 1    
   246  124  245 1    
   247  125  126 1    
   248  126  246 1    
   249  126  247 1    
@<TRIPOS>SUBSTRUCTURE
     1 UNK         1 GROUP             0       ****    0 ROOT    
