@<TRIPOS>MOLECULE
3R540
247   249    1
SMALL
USER_CHARGES


@<TRIPOS>ATOM
      1 CA          2.7574  -12.9806  -45.2525 C.3       0 UNK        -0.1800 
      2 C           2.0400  -13.2302  -46.5706 C.2       0 UNK         0.5000 
      3 O           0.8744  -12.8679  -46.7136 O.2       0 UNK        -0.5000 
      4 N           2.7458  -13.8131  -47.5488 N.am      1 UNK        -0.5000 
      5 CA          2.2329  -14.2321  -48.8648 C.3       1 UNK         0.1400 
      6 C6          3.2949  -15.0348  -49.6591 C.3       23 UNK        -0.0398 
      7 S7          3.9394  -16.4870  -48.7559 S.3       23 UNK        -0.2404 
      8 C8          4.4606  -17.5680  -50.1259 C.3       23 UNK        -0.0205 
      9 C9          3.4455  -18.6659  -50.4133 C.ar      23 UNK        -0.0193 
     10 C10         2.2568  -18.3758  -51.0892 C.ar      23 UNK        -0.1150 
     11 C11         1.3404  -19.3897  -51.3817 C.ar      23 UNK        -0.0193 
     12 C12         1.6196  -20.7029  -50.9920 C.ar      23 UNK        -0.1150 
     13 C13         2.8050  -21.0108  -50.3183 C.ar      23 UNK        -0.0193 
     14 C14         3.7141  -19.9853  -50.0344 C.ar      23 UNK        -0.1150 
     15 C15         3.1074  -22.4609  -49.9504 C.3       23 UNK        -0.0205 
     16 S16         3.7517  -22.6883  -48.2578 S.3       23 UNK        -0.2404 
     17 C17         2.3825  -22.0590  -47.2325 C.3       23 UNK        -0.0398 
     18 CA          1.4419  -23.1813  -46.7285 C.3       11 UNK         0.1400 
     19 N           0.8495  -22.8576  -45.4286 N.am      11 UNK        -0.5000 
     20 C           0.0926  -23.6877  -44.6961 C.2       10 UNK         0.5000 
     21 O          -0.1301  -24.8604  -44.9970 O.2       10 UNK        -0.5000 
     22 CA         -0.5843  -23.0794  -43.4540 C.3       10 UNK         0.1400 
     23 CB          0.3743  -23.0454  -42.2545 C.3       10 UNK        -0.1800 
     24 N          -1.0916  -21.7332  -43.7261 N.am      10 UNK        -0.5000 
     25 C          -2.1035  -21.4746  -44.5675 C.2       9 UNK         0.5000 
     26 O          -2.7773  -22.3496  -45.1106 O.2       9 UNK        -0.5000 
     27 CA         -2.3675  -19.9987  -44.9057 C.3       9 UNK         0.1400 
     28 CB         -3.3261  -19.3606  -43.8902 C.3       9 UNK        -0.1800 
     29 N          -1.1251  -19.2267  -44.9928 N.am      9 UNK        -0.5000 
     30 C          -0.2584  -19.3358  -46.0130 C.2       8 UNK         0.5000 
     31 O          -0.4415  -20.0711  -46.9782 O.2       8 UNK        -0.5000 
     32 CA          1.0654  -18.5553  -45.9294 C.3       8 UNK         0.1400 
     33 CB          0.9631  -17.2258  -46.6904 C.3       8 UNK        -0.1800 
     34 N           1.4940  -18.3250  -44.5497 N.am      8 UNK        -0.5000 
     35 C           1.8963  -19.3020  -43.7228 C.2       7 UNK         0.5000 
     36 O           1.9794  -20.4813  -44.0673 O.2       7 UNK        -0.5000 
     37 CA          2.2099  -18.9224  -42.2611 C.3       7 UNK         0.1400 
     38 CB          3.7143  -18.6701  -42.0852 C.3       7 UNK        -0.1800 
     39 N           1.4690  -17.7540  -41.7805 N.am      7 UNK        -0.5000 
     40 C           0.1346  -17.6678  -41.6926 C.2       6 UNK         0.5000 
     41 O          -0.6227  -18.5981  -41.9713 O.2       6 UNK        -0.5000 
     42 CA         -0.4646  -16.2991  -41.2991 C.3       6 UNK         0.1400 
     43 CB          0.5468  -15.3391  -40.6337 C.3       6 UNK        -0.1800 
     44 N          -1.1034  -15.6415  -42.4458 N.am      6 UNK        -0.5000 
     45 C          -0.5402  -15.3936  -43.6386 C.2       5 UNK         0.5000 
     46 O           0.6265  -15.6684  -43.9211 O.2       5 UNK        -0.5000 
     47 CA         -1.4331  -14.7233  -44.6969 C.3       5 UNK         0.1400 
     48 CB         -2.5844  -15.6513  -45.1175 C.3       5 UNK        -0.1800 
     49 N          -1.9777  -13.4186  -44.3131 N.am      5 UNK        -0.5000 
     50 C          -1.2743  -12.3746  -43.8527 C.2       4 UNK         0.5000 
     51 O          -0.1019  -12.4215  -43.4756 O.2       4 UNK        -0.5000 
     52 CA         -1.9904  -11.0128  -43.8690 C.3       4 UNK         0.1400 
     53 CB         -2.1093  -10.4249  -42.4539 C.3       4 UNK        -0.1800 
     54 N          -1.2340  -10.0924  -44.7176 N.am      4 UNK        -0.5000 
     55 C          -1.1655  -10.1823  -46.0532 C.2       3 UNK         0.5000 
     56 O          -1.9031  -10.9118  -46.7204 O.2       3 UNK        -0.5000 
     57 CA         -0.1056   -9.3242  -46.7688 C.3       3 UNK         0.1400 
     58 CB          1.0114   -8.7940  -45.8442 C.3       3 UNK        -0.1800 
     59 N           0.4883  -10.1086  -47.8498 N.am      3 UNK        -0.5000 
     60 C           0.9105   -9.6147  -49.0210 C.2       2 UNK         0.5000 
     61 O           0.8418   -8.4186  -49.3100 O.2       2 UNK        -0.5000 
     62 CA          1.5197  -10.6054  -50.0355 C.3       2 UNK         0.1400 
     63 CB          2.6864   -9.9868  -50.8276 C.3       2 UNK        -0.1800 
     64 N           1.9901  -11.8253  -49.3788 N.am      2 UNK        -0.5000 
     65 C           1.6845  -13.0776  -49.7422 C.2       1 UNK         0.5000 
     66 O           1.0146  -13.3469  -50.7402 O.2       1 UNK        -0.5000 
     67 C           0.3623  -23.5305  -47.7744 C.2       11 UNK         0.5000 
     68 O           0.4701  -24.5642  -48.4323 O.2       11 UNK        -0.5000 
     69 N          -0.6810  -22.6933  -47.8721 N.am      12 UNK        -0.5000 
     70 CA         -1.8382  -22.8849  -48.7450 C.3       12 UNK         0.1400 
     71 CB         -2.7866  -21.6822  -48.6363 C.3       12 UNK        -0.1800 
     72 C          -2.6030  -24.1811  -48.4430 C.2       12 UNK         0.5000 
     73 O          -2.9604  -24.8945  -49.3778 O.2       12 UNK        -0.5000 
     74 N          -2.8100  -24.4788  -47.1527 N.am      13 UNK        -0.5000 
     75 CA         -3.4412  -25.7102  -46.6794 C.3       13 UNK         0.1400 
     76 CB         -3.6950  -25.6130  -45.1676 C.3       13 UNK        -0.1800 
     77 C          -2.6214  -26.9681  -47.0204 C.2       13 UNK         0.5000 
     78 O          -3.1999  -27.9647  -47.4539 O.2       13 UNK        -0.5000 
     79 N          -1.2935  -26.8905  -46.8522 N.am      14 UNK        -0.5000 
     80 CA         -0.3502  -27.9559  -47.1969 C.3       14 UNK         0.1400 
     81 CB          1.0300  -27.6291  -46.6060 C.3       14 UNK        -0.1800 
     82 C          -0.2536  -28.1990  -48.7153 C.2       14 UNK         0.5000 
     83 O          -0.2231  -29.3523  -49.1465 O.2       14 UNK        -0.5000 
     84 N          -0.2253  -27.1113  -49.4965 N.am      15 UNK        -0.5000 
     85 CA         -0.1848  -27.1295  -50.9602 C.3       15 UNK         0.1400 
     86 CB          0.2703  -25.7468  -51.4560 C.3       15 UNK        -0.1800 
     87 C          -1.5306  -27.5052  -51.6120 C.2       15 UNK         0.5000 
     88 O          -1.5412  -27.8873  -52.7827 O.2       15 UNK        -0.5000 
     89 N          -2.6301  -27.3576  -50.8581 N.am      16 UNK        -0.5000 
     90 CA         -4.0308  -27.4376  -51.2858 C.3       16 UNK         0.1400 
     91 CB         -4.3957  -28.8618  -51.7536 C.3       16 UNK        -0.1800 
     92 C          -4.3771  -26.3397  -52.3160 C.2       16 UNK         0.5000 
     93 O          -5.0638  -26.6017  -53.3057 O.2       16 UNK        -0.5000 
     94 N          -3.8656  -25.1269  -52.0688 N.am      17 UNK        -0.5000 
     95 CA         -4.0501  -23.9499  -52.9108 C.3       17 UNK         0.1400 
     96 CB         -2.9264  -22.9412  -52.6224 C.3       17 UNK        -0.1800 
     97 C          -5.4267  -23.3108  -52.6653 C.2       17 UNK         0.5000 
     98 O          -5.8211  -23.1255  -51.5120 O.2       17 UNK        -0.5000 
     99 N          -6.1115  -22.9507  -53.7563 N.am      18 UNK        -0.5000 
    100 CA        -7.4225  -22.2938  -53.7456 C.3       18 UNK         0.1400 
    101 CB        -8.2407  -22.8263  -54.9339 C.3       18 UNK        -0.1800 
    102 C         -7.3216  -20.7549  -53.8025 C.2       18 UNK         0.5000 
    103 O         -8.3535  -20.0816  -53.8046 O.2       18 UNK        -0.5000 
    104 N         -6.0949  -20.2182  -53.8669 N.am      19 UNK        -0.5000 
    105 CA        -5.7594  -18.8031  -54.0465 C.3       19 UNK         0.1400 
    106 CB        -4.3016  -18.7153  -54.5368 C.3       19 UNK        -0.1800 
    107 C         -6.0097  -17.9370  -52.7911 C.2       19 UNK         0.5000 
    108 O         -5.0918  -17.2697  -52.3121 O.2       19 UNK        -0.5000 
    109 N         -7.2446  -17.9722  -52.2695 N.am      20 UNK        -0.5000 
    110 CA        -7.7669  -17.1869  -51.1404 C.3       20 UNK         0.1400 
    111 CB        -7.9406  -15.7128  -51.5607 C.3       20 UNK        -0.1800 
    112 C         -6.9416  -17.3407  -49.8429 C.2       20 UNK         0.5000 
    113 O         -6.7452  -16.3683  -49.1111 O.2       20 UNK        -0.5000 
    114 N         -6.4338  -18.5617  -49.6152 N.am      21 UNK        -0.5000 
    115 CA        -5.5140  -18.9564  -48.5405 C.3       21 UNK         0.1400 
    116 CB        -6.2043  -18.8729  -47.1628 C.3       21 UNK        -0.1800 
    117 C         -4.1582  -18.2137  -48.5697 C.2       21 UNK         0.5000 
    118 O         -3.4832  -18.1486  -47.5437 O.2       21 UNK        -0.5000 
    119 N         -3.7781  -17.6787  -49.7390 N.am      22 UNK        -0.5000 
    120 CA        -2.5134  -16.9721  -49.9994 C.3       22 UNK         0.1400 
    121 C         -2.3358  -15.6549  -49.1832 C.2       22 UNK         0.5000 
    122 N         -3.4120  -14.9943  -48.7706 N.am      22 UNK        -0.7600 
    123 O         -1.2199  -15.2075  -48.9421 O.2       22 UNK        -0.5000 
    124 C124       -1.2807  -17.9162  -49.9349 C.3       23 UNK        -0.0398 
    125 S125       -1.4204  -19.3005  -51.1228 S.3       23 UNK        -0.2404 
    126 C126        0.0634  -19.0756  -52.1481 C.3       23 UNK        -0.0205 
    127 H127        2.2976  -13.5713  -44.4604 H         1 UNK         0.0600 
    128 H128        2.6825  -11.9287  -44.9774 H         1 UNK         0.0600 
    129 H129        3.8133  -13.2461  -45.3067 H         1 UNK         0.0600 
    130 H130        3.7026  -14.0803  -47.3656 H         1 UNK         0.3000 
    131 H131        1.3903  -14.8980  -48.6721 H         1 UNK         0.0600 
    132 H132        4.1413  -14.3957  -49.9170 H         1 UNK         0.0800 
    133 H133        2.8722  -15.3735  -50.6056 H         1 UNK         0.0800 
    134 H134        4.6396  -16.9826  -51.0288 H         1 UNK         0.0800 
    135 H135        5.4236  -18.0086  -49.8635 H         1 UNK         0.0800 
    136 H136        2.0486  -17.3623  -51.3983 H         1 UNK         0.1150 
    137 H137        0.9121  -21.4864  -51.2257 H         1 UNK         0.1150 
    138 H138        4.6392  -20.2179  -49.5261 H         1 UNK         0.1150 
    139 H139        2.2201  -23.0832  -50.0740 H         1 UNK         0.0800 
    140 H140        3.8462  -22.8449  -50.6546 H         1 UNK         0.0800 
    141 H141        1.8393  -21.2722  -47.7577 H         1 UNK         0.0800 
    142 H142        2.8562  -21.5656  -46.3832 H         1 UNK         0.0800 
    143 H143        2.0378  -24.0821  -46.5659 H         1 UNK         0.0600 
    144 H144        1.0288  -21.9268  -45.0665 H         1 UNK         0.3000 
    145 H145       -1.4324  -23.7150  -43.1905 H         1 UNK         0.0600 
    146 H146       -0.1182  -22.6461  -41.3677 H         1 UNK         0.0600 
    147 H147        0.7221  -24.0495  -42.0088 H         1 UNK         0.0600 
    148 H148        1.2552  -22.4349  -42.4518 H         1 UNK         0.0600 
    149 H149       -0.5844  -20.9579  -43.3235 H         1 UNK         0.3000 
    150 H150       -2.8552  -19.9756  -45.8804 H         1 UNK         0.0600 
    151 H151       -4.2765  -19.8952  -43.8699 H         1 UNK         0.0600 
    152 H152       -3.5452  -18.3259  -44.1508 H         1 UNK         0.0600 
    153 H153       -2.9224  -19.3782  -42.8785 H         1 UNK         0.0600 
    154 H154       -0.8825  -18.6603  -44.1906 H         1 UNK         0.3000 
    155 H155        1.8387  -19.1517  -46.4173 H         1 UNK         0.0600 
    156 H156        1.8376  -16.5985  -46.5190 H         1 UNK         0.0600 
    157 H157        0.8955  -17.4021  -47.7644 H         1 UNK         0.0600 
    158 H158        0.0805  -16.6566  -46.4032 H         1 UNK         0.0600 
    159 H159        1.4003  -17.3747  -44.1983 H         1 UNK         0.3000 
    160 H160        1.9295  -19.7733  -41.6370 H         1 UNK         0.0600 
    161 H161        4.0484  -17.8106  -42.6678 H         1 UNK         0.0600 
    162 H162        4.2958  -19.5338  -42.4107 H         1 UNK         0.0600 
    163 H163        3.9647  -18.4868  -41.0401 H         1 UNK         0.0600 
    164 H164        2.0125  -16.9274  -41.5790 H         1 UNK         0.3000 
    165 H165       -1.2525  -16.5069  -40.5738 H         1 UNK         0.0600 
    166 H166        0.0468  -14.4368  -40.2812 H         1 UNK         0.0600 
    167 H167        1.0198  -15.8024  -39.7669 H         1 UNK         0.0600 
    168 H168        1.3351  -15.0253  -41.3190 H         1 UNK         0.0600 
    169 H169       -2.0715  -15.3841  -42.3182 H         1 UNK         0.3000 
    170 H170       -0.8130  -14.5538  -45.5784 H         1 UNK         0.0600 
    171 H171       -2.2082  -16.6204  -45.4461 H         1 UNK         0.0600 
    172 H172       -3.2863  -15.8273  -44.3022 H         1 UNK         0.0600 
    173 H173       -3.1445  -15.2318  -45.9523 H         1 UNK         0.0600 
    174 H174       -2.9344  -13.2534  -44.5890 H         1 UNK         0.3000 
    175 H175       -2.9961  -11.1290  -44.2788 H         1 UNK         0.0600 
    176 H176       -1.1316  -10.2698  -41.9958 H         1 UNK         0.0600 
    177 H177       -2.6288   -9.4666  -42.4678 H         1 UNK         0.0600 
    178 H178       -2.6747  -11.0924  -41.8025 H         1 UNK         0.0600 
    179 H179       -0.5736   -9.4941  -44.2437 H         1 UNK         0.3000 
    180 H180       -0.6415   -8.4713  -47.1902 H         1 UNK         0.0600 
    181 H181        1.5374   -9.6076  -45.3428 H         1 UNK         0.0600 
    182 H182        0.6144   -8.1254  -45.0797 H         1 UNK         0.0600 
    183 H183        1.7490   -8.2227  -46.4081 H         1 UNK         0.0600 
    184 H184        0.5086  -11.1125  -47.6885 H         1 UNK         0.3000 
    185 H185        0.7186  -10.8412  -50.7386 H         1 UNK         0.0600 
    186 H186        2.3637   -9.1070  -51.3856 H         1 UNK         0.0600 
    187 H187        3.4998   -9.6807  -50.1688 H         1 UNK         0.0600 
    188 H188        3.0896  -10.6956  -51.5511 H         1 UNK         0.0600 
    189 H189        2.5408  -11.6960  -48.5418 H         1 UNK         0.3000 
    190 H190       -0.6579  -21.8176  -47.3528 H         1 UNK         0.3000 
    191 H191       -1.4634  -22.9394  -49.7685 H         1 UNK         0.0600 
    192 H192       -3.2534  -21.6192  -47.6539 H         1 UNK         0.0600 
    193 H193       -3.5866  -21.7499  -49.3741 H         1 UNK         0.0600 
    194 H194       -2.2615  -20.7451  -48.8084 H         1 UNK         0.0600 
    195 H195       -2.5341  -23.8054  -46.4445 H         1 UNK         0.3000 
    196 H196       -4.4080  -25.7997  -47.1792 H         1 UNK         0.0600 
    197 H197       -4.1881  -26.5119  -44.7957 H         1 UNK         0.0600 
    198 H198       -4.3395  -24.7664  -44.9305 H         1 UNK         0.0600 
    199 H199       -2.7668  -25.4921  -44.6091 H         1 UNK         0.0600 
    200 H200       -0.8990  -26.0452  -46.4513 H         1 UNK         0.3000 
    201 H201       -0.7042  -28.8799  -46.7350 H         1 UNK         0.0600 
    202 H202        0.9802  -27.5314  -45.5214 H         1 UNK         0.0600 
    203 H203        1.4308  -26.6973  -47.0059 H         1 UNK         0.0600 
    204 H204        1.7480  -28.4190  -46.8296 H         1 UNK         0.0600 
    205 H205       -0.1802  -26.1951  -49.0550 H         1 UNK         0.3000 
    206 H206        0.5542  -27.8681  -51.2773 H         1 UNK         0.0600 
    207 H207        1.2524  -25.4888  -51.0592 H         1 UNK         0.0600 
    208 H208        0.3424  -25.7226  -52.5440 H         1 UNK         0.0600 
    209 H209       -0.4278  -24.9644  -51.1552 H         1 UNK         0.0600 
    210 H210       -2.4946  -26.9768  -49.9300 H         1 UNK         0.3000 
    211 H211       -4.6284  -27.2206  -50.3992 H         1 UNK         0.0600 
    212 H212       -3.8879  -29.1307  -52.6800 H         1 UNK         0.0600 
    213 H213       -5.4677  -28.9485  -51.9335 H         1 UNK         0.0600 
    214 H214       -4.1325  -29.6027  -50.9986 H         1 UNK         0.0600 
    215 H215       -3.3984  -24.9842  -51.1765 H         1 UNK         0.3000 
    216 H216       -3.9731  -24.2559  -53.9564 H         1 UNK         0.0600 
    217 H217       -1.9435  -23.3907  -52.7654 H         1 UNK         0.0600 
    218 H218       -2.9769  -22.5638  -51.6016 H         1 UNK         0.0600 
    219 H219       -2.9906  -22.0811  -53.2900 H         1 UNK         0.0600 
    220 H220       -5.7177  -23.1394  -54.6677 H         1 UNK         0.3000 
    221 H221       -7.9569  -22.5486  -52.8280 H         1 UNK         0.0600 
    222 H222       -8.3469  -23.9102  -54.8843 H         1 UNK         0.0600 
    223 H223       -7.7745  -22.5778  -55.8882 H         1 UNK         0.0600 
    224 H224       -9.2467  -22.4046  -54.9402 H         1 UNK         0.0600 
    225 H225       -5.3122  -20.8527  -53.8284 H         1 UNK         0.3000 
    226 H226       -6.3976  -18.4012  -54.8360 H         1 UNK         0.0600 
    227 H227       -4.1599  -19.2782  -55.4595 H         1 UNK         0.0600 
    228 H228       -4.0181  -17.6826  -54.7442 H         1 UNK         0.0600 
    229 H229       -3.6031  -19.1049  -53.7946 H         1 UNK         0.0600 
    230 H230       -7.9088  -18.5941  -52.7247 H         1 UNK         0.3000 
    231 H231       -8.7572  -17.5868  -50.9186 H         1 UNK         0.0600 
    232 H232       -6.9805  -15.2344  -51.7579 H         1 UNK         0.0600 
    233 H233       -8.4400  -15.1373  -50.7804 H         1 UNK         0.0600 
    234 H234       -8.5481  -15.6289  -52.4618 H         1 UNK         0.0600 
    235 H235       -6.6424  -19.2810  -50.2932 H         1 UNK         0.3000 
    236 H236       -5.2797  -20.0057  -48.7217 H         1 UNK         0.0600 
    237 H237       -5.5810  -19.3169  -46.3855 H         1 UNK         0.0600 
    238 H238       -6.4017  -17.8412  -46.8709 H         1 UNK         0.0600 
    239 H239       -7.1522  -19.4106  -47.1624 H         1 UNK         0.0600 
    240 H240       -4.4034  -17.7307  -50.5364 H         1 UNK         0.3000 
    241 H241       -2.5878  -16.6288  -51.0317 H         1 UNK         0.0600 
    242 H242       -4.3366  -15.3590  -48.9471 H         1 UNK         0.3800 
    243 H243       -3.2951  -14.1335  -48.2617 H         1 UNK         0.3800 
    244 H244       -1.1637  -18.3279  -48.9324 H         1 UNK         0.0800 
    245 H245       -0.3646  -17.3617  -50.1411 H         1 UNK         0.0800 
    246 H246        0.0795  -18.0592  -52.5444 H         1 UNK         0.0800 
    247 H247       -0.0040  -19.7393  -53.0111 H         1 UNK         0.0800 
@<TRIPOS>BOND
     1    1    2 1    
     2    1  127 1    
     3    1  128 1    
     4    1  129 1    
     5    2    3 2    
     6    2    4 am   BACKBONE|DICT|INTERRES
     7    4    5 1    
     8    4  130 1    
     9    5    6 1    
    10    5   65 1    
    11    5  131 1    
    12    6    7 1    
    13    6  132 1    
    14    6  133 1    
    15    7    8 1    
    16    8    9 1    
    17    8  134 1    
    18    8  135 1    
    19    9   10 ar   
    20    9   14 ar   
    21   10   11 ar   
    22   10  136 1    
    23   11   12 ar   
    24   11  126 1    
    25   12   13 ar   
    26   12  137 1    
    27   13   14 ar   
    28   13   15 1    
    29   14  138 1    
    30   15   16 1    
    31   15  139 1    
    32   15  140 1    
    33   16   17 1    
    34   17   18 1    
    35   17  141 1    
    36   17  142 1    
    37   18   19 1    
    38   18   67 1    
    39   18  143 1    
    40   19   20 am   BACKBONE|DICT|INTERRES
    41   19  144 1    
    42   20   21 2    
    43   20   22 1    
    44   22   23 1    
    45   22   24 1    
    46   22  145 1    
    47   23  146 1    
    48   23  147 1    
    49   23  148 1    
    50   24   25 am   BACKBONE|DICT|INTERRES
    51   24  149 1    
    52   25   26 2    
    53   25   27 1    
    54   27   28 1    
    55   27   29 1    
    56   27  150 1    
    57   28  151 1    
    58   28  152 1    
    59   28  153 1    
    60   29   30 am   BACKBONE|DICT|INTERRES
    61   29  154 1    
    62   30   31 2    
    63   30   32 1    
    64   32   33 1    
    65   32   34 1    
    66   32  155 1    
    67   33  156 1    
    68   33  157 1    
    69   33  158 1    
    70   34   35 am   BACKBONE|DICT|INTERRES
    71   34  159 1    
    72   35   36 2    
    73   35   37 1    
    74   37   38 1    
    75   37   39 1    
    76   37  160 1    
    77   38  161 1    
    78   38  162 1    
    79   38  163 1    
    80   39   40 am   BACKBONE|DICT|INTERRES
    81   39  164 1    
    82   40   41 2    
    83   40   42 1    
    84   42   43 1    
    85   42   44 1    
    86   42  165 1    
    87   43  166 1    
    88   43  167 1    
    89   43  168 1    
    90   44   45 am   BACKBONE|DICT|INTERRES
    91   44  169 1    
    92   45   46 2    
    93   45   47 1    
    94   47   48 1    
    95   47   49 1    
    96   47  170 1    
    97   48  171 1    
    98   48  172 1    
    99   48  173 1    
   100   49   50 am   BACKBONE|DICT|INTERRES
   101   49  174 1    
   102   50   51 2    
   103   50   52 1    
   104   52   53 1    
   105   52   54 1    
   106   52  175 1    
   107   53  176 1    
   108   53  177 1    
   109   53  178 1    
   110   54   55 am   BACKBONE|DICT|INTERRES
   111   54  179 1    
   112   55   56 2    
   113   55   57 1    
   114   57   58 1    
   115   57   59 1    
   116   57  180 1    
   117   58  181 1    
   118   58  182 1    
   119   58  183 1    
   120   59   60 am   BACKBONE|DICT|INTERRES
   121   59  184 1    
   122   60   61 2    
   123   60   62 1    
   124   62   63 1    
   125   62   64 1    
   126   62  185 1    
   127   63  186 1    
   128   63  187 1    
   129   63  188 1    
   130   64   65 am   BACKBONE|DICT|INTERRES
   131   64  189 1    
   132   65   66 2    
   133   67   68 2    
   134   67   69 am   BACKBONE|DICT|INTERRES
   135   69   70 1    
   136   69  190 1    
   137   70   71 1    
   138   70   72 1    
   139   70  191 1    
   140   71  192 1    
   141   71  193 1    
   142   71  194 1    
   143   72   73 2    
   144   72   74 am   BACKBONE|DICT|INTERRES
   145   74   75 1    
   146   74  195 1    
   147   75   76 1    
   148   75   77 1    
   149   75  196 1    
   150   76  197 1    
   151   76  198 1    
   152   76  199 1    
   153   77   78 2    
   154   77   79 am   BACKBONE|DICT|INTERRES
   155   79   80 1    
   156   79  200 1    
   157   80   81 1    
   158   80   82 1    
   159   80  201 1    
   160   81  202 1    
   161   81  203 1    
   162   81  204 1    
   163   82   83 2    
   164   82   84 am   BACKBONE|DICT|INTERRES
   165   84   85 1    
   166   84  205 1    
   167   85   86 1    
   168   85   87 1    
   169   85  206 1    
   170   86  207 1    
   171   86  208 1    
   172   86  209 1    
   173   87   88 2    
   174   87   89 am   BACKBONE|DICT|INTERRES
   175   89   90 1    
   176   89  210 1    
   177   90   91 1    
   178   90   92 1    
   179   90  211 1    
   180   91  212 1    
   181   91  213 1    
   182   91  214 1    
   183   92   93 2    
   184   92   94 am   BACKBONE|DICT|INTERRES
   185   94   95 1    
   186   94  215 1    
   187   95   96 1    
   188   95   97 1    
   189   95  216 1    
   190   96  217 1    
   191   96  218 1    
   192   96  219 1    
   193   97   98 2    
   194   97   99 am   BACKBONE|DICT|INTERRES
   195   99  100 1    
   196   99  220 1    
   197  100  101 1    
   198  100  102 1    
   199  100  221 1    
   200  101  222 1    
   201  101  223 1    
   202  101  224 1    
   203  102  103 2    
   204  102  104 am   BACKBONE|DICT|INTERRES
   205  104  105 1    
   206  104  225 1    
   207  105  106 1    
   208  105  107 1    
   209  105  226 1    
   210  106  227 1    
   211  106  228 1    
   212  106  229 1    
   213  107  108 2    
   214  107  109 am   BACKBONE|DICT|INTERRES
   215  109  110 1    
   216  109  230 1    
   217  110  111 1    
   218  110  112 1    
   219  110  231 1    
   220  111  232 1    
   221  111  233 1    
   222  111  234 1    
   223  112  113 2    
   224  112  114 am   BACKBONE|DICT|INTERRES
   225  114  115 1    
   226  114  235 1    
   227  115  116 1    
   228  115  117 1    
   229  115  236 1    
   230  116  237 1    
   231  116  238 1    
   232  116  239 1    
   233  117  118 2    
   234  117  119 am   BACKBONE|DICT|INTERRES
   235  119  120 1    
   236  119  240 1    
   237  120  121 1    
   238  120  124 1    
   239  120  241 1    
   240  121  122 am   BACKBONE|DICT|INTERRES
   241  121  123 2    
   242  122  242 1    
   243  122  243 1    
   244  124  125 1    
   245  124  244 1    
   246  124  245 1    
   247  125  126 1    
   248  126  246 1    
   249  126  247 1    
@<TRIPOS>SUBSTRUCTURE
     1 UNK         1 GROUP             0       ****    0 ROOT    
