@<TRIPOS>MOLECULE
3R540
247   249    1
SMALL
USER_CHARGES


@<TRIPOS>ATOM
      1 CA         -2.5815  -12.6951  -43.0859 C.3       0 UNK        -0.1800 
      2 C          -2.7881  -12.4972  -44.5794 C.2       0 UNK         0.5000 
      3 O          -3.5634  -11.6304  -44.9852 O.2       0 UNK        -0.5000 
      4 N          -2.1011  -13.3056  -45.3935 N.am      1 UNK        -0.5000 
      5 CA         -2.1047  -13.2196  -46.8561 C.3       1 UNK         0.1400 
      6 C6         -1.9451  -14.6204  -47.5029 C.3       23 UNK        -0.0398 
      7 S7         -0.3288  -15.4261  -47.2050 S.3       23 UNK        -0.2404 
      8 C8          0.1695  -15.9251  -48.8836 C.3       23 UNK        -0.0205 
      9 C9         -0.8715  -16.8025  -49.5669 C.ar      23 UNK        -0.0193 
     10 C10        -1.4611  -16.3856  -50.7643 C.ar      23 UNK        -0.1150 
     11 C11        -2.4115  -17.1857  -51.4029 C.ar      23 UNK        -0.0193 
     12 C12        -2.7722  -18.4102  -50.8345 C.ar      23 UNK        -0.1150 
     13 C13        -2.1951  -18.8385  -49.6371 C.ar      23 UNK        -0.0193 
     14 C14        -1.2411  -18.0314  -49.0095 C.ar      23 UNK        -0.1150 
     15 C15        -2.6073  -20.1730  -49.0348 C.3       23 UNK        -0.0205 
     16 S16        -1.3173  -21.4351  -49.2715 S.3       23 UNK        -0.2404 
     17 C17        -0.3958  -21.3036  -47.7005 C.3       23 UNK        -0.0398 
     18 CA         -0.2750  -22.6215  -46.8953 C.3       11 UNK         0.1400 
     19 N           0.4176  -22.3878  -45.6275 N.am      11 UNK        -0.5000 
     20 C           0.8239  -23.3371  -44.7746 C.2       10 UNK         0.5000 
     21 O           0.6869  -24.5441  -44.9734 O.2       10 UNK        -0.5000 
     22 CA          1.4467  -22.8492  -43.4548 C.3       10 UNK         0.1400 
     23 CB          2.8965  -22.3914  -43.6725 C.3       10 UNK        -0.1800 
     24 N           0.6765  -21.7696  -42.8336 N.am      10 UNK        -0.5000 
     25 C          -0.5831  -21.8972  -42.3915 C.2       9 UNK         0.5000 
     26 O          -1.2219  -22.9475  -42.4419 O.2       9 UNK        -0.5000 
     27 CA         -1.2630  -20.6331  -41.8384 C.3       9 UNK         0.1400 
     28 CB         -0.7632  -20.3155  -40.4212 C.3       9 UNK        -0.1800 
     29 N          -1.0797  -19.4656  -42.6990 N.am      9 UNK        -0.5000 
     30 C          -1.5111  -19.3720  -43.9652 C.2       8 UNK         0.5000 
     31 O          -2.1249  -20.2608  -44.5539 O.2       8 UNK        -0.5000 
     32 CA         -1.1474  -18.0827  -44.7181 C.3       8 UNK         0.1400 
     33 CB         -2.0283  -16.9159  -44.2437 C.3       8 UNK        -0.1800 
     34 N           0.2681  -17.7399  -44.5725 N.am      8 UNK        -0.5000 
     35 C           1.2871  -18.5243  -44.9570 C.2       7 UNK         0.5000 
     36 O           1.1482  -19.6076  -45.5235 O.2       7 UNK        -0.5000 
     37 CA          2.7016  -18.0513  -44.5884 C.3       7 UNK         0.1400 
     38 CB          3.2028  -16.9888  -45.5768 C.3       7 UNK        -0.1800 
     39 N           2.7598  -17.5324  -43.2224 N.am      7 UNK        -0.5000 
     40 C           2.5899  -18.2785  -42.1205 C.2       6 UNK         0.5000 
     41 O           2.4159  -19.4967  -42.1358 O.2       6 UNK        -0.5000 
     42 CA          2.5634  -17.5238  -40.7792 C.3       6 UNK         0.1400 
     43 CB          3.9900  -17.2812  -40.2649 C.3       6 UNK        -0.1800 
     44 N           1.8585  -16.2449  -40.8787 N.am      6 UNK        -0.5000 
     45 C           0.5447  -16.1221  -41.1178 C.2       5 UNK         0.5000 
     46 O          -0.2232  -17.0788  -41.2129 O.2       5 UNK        -0.5000 
     47 CA          0.0149  -14.6942  -41.3456 C.3       5 UNK         0.1400 
     48 CB         -0.3875  -14.0398  -40.0164 C.3       5 UNK        -0.1800 
     49 N           0.9860  -13.8421  -42.0398 N.am      5 UNK        -0.5000 
     50 C           1.3489  -14.0152  -43.3168 C.2       4 UNK         0.5000 
     51 O           0.8263  -14.8464  -44.0633 O.2       4 UNK        -0.5000 
     52 CA          2.5344  -13.1755  -43.8132 C.3       4 UNK         0.1400 
     53 CB          3.8474  -13.7188  -43.2083 C.3       4 UNK        -0.1800 
     54 N           2.5820  -13.2272  -45.2731 N.am      4 UNK        -0.5000 
     55 C           3.3926  -12.5078  -46.0604 C.2       3 UNK         0.5000 
     56 O           4.1934  -11.6702  -45.6436 O.2       3 UNK        -0.5000 
     57 CA          3.2529  -12.7254  -47.5719 C.3       3 UNK         0.1400 
     58 CB          3.4354  -14.2008  -47.9765 C.3       3 UNK        -0.1800 
     59 N           1.9496  -12.2232  -47.9806 N.am      3 UNK        -0.5000 
     60 C           1.5725  -11.8756  -49.2133 C.2       2 UNK         0.5000 
     61 O           2.2983  -11.9936  -50.2021 O.2       2 UNK        -0.5000 
     62 CA          0.1407  -11.3005  -49.3557 C.3       2 UNK         0.1400 
     63 CB         -0.2828  -11.1276  -50.8258 C.3       2 UNK        -0.1800 
     64 N          -0.8781  -12.1053  -48.6718 N.am      2 UNK        -0.5000 
     65 C          -1.0505  -12.2013  -47.3462 C.2       1 UNK         0.5000 
     66 O          -0.3784  -11.5562  -46.5351 O.2       1 UNK        -0.5000 
     67 C          -1.6277  -23.3362  -46.6813 C.2       11 UNK         0.5000 
     68 O          -1.9158  -24.3005  -47.3926 O.2       11 UNK        -0.5000 
     69 N          -2.4098  -22.8816  -45.6915 N.am      12 UNK        -0.5000 
     70 CA         -3.6884  -23.4768  -45.3040 C.3       12 UNK         0.1400 
     71 CB         -4.4118  -22.5530  -44.3130 C.3       12 UNK        -0.1800 
     72 C          -3.5388  -24.8924  -44.7195 C.2       12 UNK         0.5000 
     73 O          -4.3272  -25.7707  -45.0686 O.2       12 UNK        -0.5000 
     74 N          -2.5215  -25.0988  -43.8702 N.am      13 UNK        -0.5000 
     75 CA         -2.1885  -26.3925  -43.2685 C.3       13 UNK         0.1400 
     76 CB         -1.1229  -26.1987  -42.1792 C.3       13 UNK        -0.1800 
     77 C          -1.7235  -27.4303  -44.3058 C.2       13 UNK         0.5000 
     78 O          -2.1213  -28.5931  -44.2236 O.2       13 UNK        -0.5000 
     79 N          -0.9153  -26.9861  -45.2777 N.am      14 UNK        -0.5000 
     80 CA         -0.4713  -27.7892  -46.4182 C.3       14 UNK         0.1400 
     81 CB          0.7269  -27.0886  -47.0782 C.3       14 UNK        -0.1800 
     82 C          -1.5812  -28.0283  -47.4613 C.2       14 UNK         0.5000 
     83 O          -1.4781  -28.9768  -48.2400 O.2       14 UNK        -0.5000 
     84 N          -2.5933  -27.1469  -47.4747 N.am      15 UNK        -0.5000 
     85 CA         -3.6632  -27.0154  -48.4696 C.3       15 UNK         0.1400 
     86 CB         -4.6043  -28.2369  -48.4377 C.3       15 UNK        -0.1800 
     87 C          -3.0984  -26.7086  -49.8734 C.2       15 UNK         0.5000 
     88 O          -3.5679  -27.2576  -50.8720 O.2       15 UNK        -0.5000 
     89 N          -2.0606  -25.8615  -49.9088 N.am      16 UNK        -0.5000 
     90 CA         -1.2615  -25.5771  -51.0991 C.3       16 UNK         0.1400 
     91 CB          0.0956  -25.0030  -50.6616 C.3       16 UNK        -0.1800 
     92 C          -1.9593  -24.6259  -52.0852 C.2       16 UNK         0.5000 
     93 O          -1.7945  -24.7844  -53.2943 O.2       16 UNK        -0.5000 
     94 N          -2.6921  -23.6402  -51.5452 N.am      17 UNK        -0.5000 
     95 CA         -3.4073  -22.5546  -52.2367 C.3       17 UNK         0.1400 
     96 CB         -4.5059  -23.1210  -53.1591 C.3       17 UNK        -0.1800 
     97 C          -2.5056  -21.5343  -52.9739 C.2       17 UNK         0.5000 
     98 O          -3.0371  -20.6128  -53.5969 O.2       17 UNK        -0.5000 
     99 N          -1.1771  -21.6961  -52.8652 N.am      18 UNK        -0.5000 
    100 CA        -0.1075  -20.8930  -53.4629 C.3       18 UNK         0.1400 
    101 CB         0.0211  -19.5444  -52.7233 C.3       18 UNK        -0.1800 
    102 C         -0.2701  -20.7634  -54.9928 C.2       18 UNK         0.5000 
    103 O         -0.2006  -21.7745  -55.6940 O.2       18 UNK        -0.5000 
    104 N         -0.4931  -19.5384  -55.4751 N.am      19 UNK        -0.5000 
    105 CA        -0.8709  -19.2078  -56.8418 C.3       19 UNK         0.1400 
    106 CB         0.3028  -18.4995  -57.5360 C.3       19 UNK        -0.1800 
    107 C         -2.1005  -18.2920  -56.7694 C.2       19 UNK         0.5000 
    108 O         -2.2789  -17.5915  -55.7713 O.2       19 UNK        -0.5000 
    109 N         -2.9294  -18.3250  -57.8200 N.am      20 UNK        -0.5000 
    110 CA        -4.1824  -17.5747  -58.0054 C.3       20 UNK         0.1400 
    111 CB        -3.9540  -16.0521  -57.8990 C.3       20 UNK        -0.1800 
    112 C         -5.3661  -18.0379  -57.1251 C.2       20 UNK         0.5000 
    113 O         -6.4805  -17.5625  -57.3461 O.2       20 UNK        -0.5000 
    114 N         -5.1275  -18.9769  -56.1954 N.am      21 UNK        -0.5000 
    115 CA        -6.0974  -19.6453  -55.3216 C.3       21 UNK         0.1400 
    116 CB        -6.9948  -20.5941  -56.1430 C.3       21 UNK        -0.1800 
    117 C         -6.9013  -18.6604  -54.4486 C.2       21 UNK         0.5000 
    118 O         -8.1130  -18.5154  -54.6254 O.2       21 UNK        -0.5000 
    119 N         -6.1923  -17.9877  -53.5335 N.am      22 UNK        -0.5000 
    120 CA        -6.7419  -17.0454  -52.5433 C.3       22 UNK         0.1400 
    121 C         -7.8506  -17.6704  -51.6472 C.2       22 UNK         0.5000 
    122 N         -8.9124  -16.9317  -51.3545 N.am      22 UNK        -0.7600 
    123 O         -7.7313  -18.8000  -51.1773 O.2       22 UNK        -0.5000 
    124 C124       -5.6308  -16.4531  -51.6395 C.3       23 UNK        -0.0398 
    125 S125       -4.3473  -15.5278  -52.5514 S.3       23 UNK        -0.2404 
    126 C126       -3.0123  -16.7549  -52.7327 C.3       23 UNK        -0.0205 
    127 H127       -1.5460  -12.4890  -42.8162 H         1 UNK         0.0600 
    128 H128       -2.8256  -13.7182  -42.8006 H         1 UNK         0.0600 
    129 H129       -3.2208  -12.0230  -42.5132 H         1 UNK         0.0600 
    130 H130       -1.4310  -13.9563  -45.0059 H         1 UNK         0.3000 
    131 H131       -3.0741  -12.8334  -47.1780 H         1 UNK         0.0600 
    132 H132       -2.7198  -15.2869  -47.1216 H         1 UNK         0.0800 
    133 H133       -2.1348  -14.5567  -48.5744 H         1 UNK         0.0800 
    134 H134        1.1089  -16.4759  -48.8223 H         1 UNK         0.0800 
    135 H135        0.3758  -15.0291  -49.4712 H         1 UNK         0.0800 
    136 H136       -1.1768  -15.4417  -51.2078 H         1 UNK         0.1150 
    137 H137       -3.4975  -19.0368  -51.3338 H         1 UNK         0.1150 
    138 H138       -0.7812  -18.3564  -48.0879 H         1 UNK         0.1150 
    139 H139       -2.8494  -20.0499  -47.9783 H         1 UNK         0.0800 
    140 H140       -3.5249  -20.5287  -49.5045 H         1 UNK         0.0800 
    141 H141       -0.8527  -20.5379  -47.0736 H         1 UNK         0.0800 
    142 H142        0.6012  -20.9293  -47.9365 H         1 UNK         0.0800 
    143 H143        0.3495  -23.3028  -47.4769 H         1 UNK         0.0600 
    144 H144        0.5963  -21.4142  -45.3934 H         1 UNK         0.3000 
    145 H145        1.4573  -23.6928  -42.7617 H         1 UNK         0.0600 
    146 H146        3.3731  -22.1331  -42.7267 H         1 UNK         0.0600 
    147 H147        3.4918  -23.1814  -44.1320 H         1 UNK         0.0600 
    148 H148        2.9499  -21.5172  -44.3223 H         1 UNK         0.0600 
    149 H149        1.1492  -20.8766  -42.7270 H         1 UNK         0.3000 
    150 H150       -2.3349  -20.8335  -41.7816 H         1 UNK         0.0600 
    151 H151       -0.9067  -21.1679  -39.7560 H         1 UNK         0.0600 
    152 H152       -1.3058  -19.4728  -39.9924 H         1 UNK         0.0600 
    153 H153        0.2982  -20.0669  -40.4137 H         1 UNK         0.0600 
    154 H154       -0.6100  -18.6658  -42.2842 H         1 UNK         0.3000 
    155 H155       -1.3399  -18.2442  -45.7799 H         1 UNK         0.0600 
    156 H156       -1.9457  -16.7490  -43.1706 H         1 UNK         0.0600 
    157 H157       -3.0786  -17.1105  -44.4632 H         1 UNK         0.0600 
    158 H158       -1.7598  -15.9876  -44.7411 H         1 UNK         0.0600 
    159 H159        0.4766  -16.8315  -44.1726 H         1 UNK         0.3000 
    160 H160        3.3694  -18.9132  -44.6508 H         1 UNK         0.0600 
    161 H161        2.5722  -16.1018  -45.5664 H         1 UNK         0.0600 
    162 H162        3.2016  -17.3754  -46.5967 H         1 UNK         0.0600 
    163 H163        4.2225  -16.6804  -45.3464 H         1 UNK         0.0600 
    164 H164        2.8586  -16.5354  -43.1187 H         1 UNK         0.3000 
    165 H165        2.0381  -18.1485  -40.0536 H         1 UNK         0.0600 
    166 H166        3.9796  -16.8107  -39.2816 H         1 UNK         0.0600 
    167 H167        4.5343  -18.2216  -40.1681 H         1 UNK         0.0600 
    168 H168        4.5598  -16.6397  -40.9385 H         1 UNK         0.0600 
    169 H169        2.4157  -15.4081  -40.7974 H         1 UNK         0.3000 
    170 H170       -0.8766  -14.7791  -41.9680 H         1 UNK         0.0600 
    171 H171       -1.1235  -14.6486  -39.4896 H         1 UNK         0.0600 
    172 H172        0.4687  -13.9116  -39.3531 H         1 UNK         0.0600 
    173 H173       -0.8361  -13.0598  -40.1804 H         1 UNK         0.0600 
    174 H174        1.4484  -13.1364  -41.4844 H         1 UNK         0.3000 
    175 H175        2.3792  -12.1410  -43.5014 H         1 UNK         0.0600 
    176 H176        4.0667  -14.7261  -43.5630 H         1 UNK         0.0600 
    177 H177        4.6986  -13.0879  -43.4623 H         1 UNK         0.0600 
    178 H178        3.8022  -13.7551  -42.1194 H         1 UNK         0.0600 
    179 H179        1.9172  -13.8745  -45.6801 H         1 UNK         0.3000 
    180 H180        4.0270  -12.1326  -48.0639 H         1 UNK         0.0600 
    181 H181        2.6251  -14.8256  -47.6050 H         1 UNK         0.0600 
    182 H182        4.3700  -14.6021  -47.5829 H         1 UNK         0.0600 
    183 H183        3.4660  -14.3118  -49.0603 H         1 UNK         0.0600 
    184 H184        1.2880  -12.0439  -47.2281 H         1 UNK         0.3000 
    185 H185        0.1546  -10.3092  -48.8982 H         1 UNK         0.0600 
    186 H186        0.4094  -10.4759  -51.3606 H         1 UNK         0.0600 
    187 H187       -0.3089  -12.0831  -51.3513 H         1 UNK         0.0600 
    188 H188       -1.2718  -10.6753  -50.9015 H         1 UNK         0.0600 
    189 H189       -1.4520  -12.6745  -49.2756 H         1 UNK         0.3000 
    190 H190       -2.1257  -22.0521  -45.1761 H         1 UNK         0.3000 
    191 H191       -4.3038  -23.5543  -46.2029 H         1 UNK         0.0600 
    192 H192       -3.8246  -22.3950  -43.4078 H         1 UNK         0.0600 
    193 H193       -5.3723  -22.9741  -44.0139 H         1 UNK         0.0600 
    194 H194       -4.6089  -21.5773  -44.7575 H         1 UNK         0.0600 
    195 H195       -1.9492  -24.3076  -43.5868 H         1 UNK         0.3000 
    196 H196       -3.0912  -26.7816  -42.7929 H         1 UNK         0.0600 
    197 H197       -0.8606  -27.1496  -41.7139 H         1 UNK         0.0600 
    198 H198       -1.4832  -25.5393  -41.3895 H         1 UNK         0.0600 
    199 H199       -0.2074  -25.7661  -42.5839 H         1 UNK         0.0600 
    200 H200       -0.5741  -26.0296  -45.2345 H         1 UNK         0.3000 
    201 H201       -0.1417  -28.7637  -46.0522 H         1 UNK         0.0600 
    202 H202        1.5515  -26.9717  -46.3748 H         1 UNK         0.0600 
    203 H203        0.4584  -26.0969  -47.4452 H         1 UNK         0.0600 
    204 H204        1.1009  -27.6635  -47.9263 H         1 UNK         0.0600 
    205 H205       -2.5419  -26.3861  -46.8096 H         1 UNK         0.3000 
    206 H206       -4.2456  -26.1410  -48.1760 H         1 UNK         0.0600 
    207 H207       -4.1058  -29.1448  -48.7781 H         1 UNK         0.0600 
    208 H208       -5.4697  -28.0786  -49.0821 H         1 UNK         0.0600 
    209 H209       -4.9788  -28.4168  -47.4300 H         1 UNK         0.0600 
    210 H210       -1.7801  -25.4168  -49.0398 H         1 UNK         0.3000 
    211 H211       -1.0759  -26.5176  -51.6225 H         1 UNK         0.0600 
    212 H212       -0.0196  -24.0847  -50.0853 H         1 UNK         0.0600 
    213 H213        0.7218  -24.7745  -51.5250 H         1 UNK         0.0600 
    214 H214        0.6427  -25.7166  -50.0453 H         1 UNK         0.0600 
    215 H215       -2.7280  -23.6000  -50.5359 H         1 UNK         0.3000 
    216 H216       -3.9076  -21.9885  -51.4505 H         1 UNK         0.0600 
    217 H217       -5.1629  -22.3292  -53.5179 H         1 UNK         0.0600 
    218 H218       -5.1305  -23.8425  -52.6324 H         1 UNK         0.0600 
    219 H219       -4.0856  -23.6159  -54.0349 H         1 UNK         0.0600 
    220 H220       -0.8662  -22.4994  -52.3413 H         1 UNK         0.3000 
    221 H221        0.8186  -21.4458  -53.2996 H         1 UNK         0.0600 
    222 H222       -0.8608  -18.9224  -52.8646 H         1 UNK         0.0600 
    223 H223        0.1490  -19.6943  -51.6510 H         1 UNK         0.0600 
    224 H224        0.8860  -18.9813  -53.0755 H         1 UNK         0.0600 
    225 H225       -0.6295  -18.7808  -54.8185 H         1 UNK         0.3000 
    226 H226       -1.1363  -20.1092  -57.3982 H         1 UNK         0.0600 
    227 H227        1.1828  -19.1418  -57.5721 H         1 UNK         0.0600 
    228 H228        0.0490  -18.2365  -58.5636 H         1 UNK         0.0600 
    229 H229        0.5805  -17.5798  -57.0193 H         1 UNK         0.0600 
    230 H230       -2.6980  -18.9481  -58.5819 H         1 UNK         0.3000 
    231 H231       -4.4870  -17.7797  -59.0328 H         1 UNK         0.0600 
    232 H232       -3.1260  -15.7305  -58.5306 H         1 UNK         0.0600 
    233 H233       -3.7398  -15.7407  -56.8764 H         1 UNK         0.0600 
    234 H234       -4.8394  -15.5033  -58.2220 H         1 UNK         0.0600 
    235 H235       -4.1662  -19.2579  -56.0647 H         1 UNK         0.3000 
    236 H236       -5.5181  -20.2629  -54.6355 H         1 UNK         0.0600 
    237 H237       -7.6050  -20.0536  -56.8672 H         1 UNK         0.0600 
    238 H238       -6.3981  -21.3258  -56.6876 H         1 UNK         0.0600 
    239 H239       -7.6727  -21.1482  -55.4926 H         1 UNK         0.0600 
    240 H240       -5.2004  -18.1579  -53.4761 H         1 UNK         0.3000 
    241 H241       -7.1899  -16.2271  -53.1102 H         1 UNK         0.0600 
    242 H242       -9.6300  -17.3201  -50.7620 H         1 UNK         0.3800 
    243 H243       -9.0287  -16.0000  -51.7230 H         1 UNK         0.3800 
    244 H244       -5.1763  -17.2334  -51.0310 H         1 UNK         0.0800 
    245 H245       -6.0688  -15.7507  -50.9279 H         1 UNK         0.0800 
    246 H246       -2.2272  -16.3202  -53.3528 H         1 UNK         0.0800 
    247 H247       -3.3768  -17.6220  -53.2841 H         1 UNK         0.0800 
@<TRIPOS>BOND
     1    1    2 1    
     2    1  127 1    
     3    1  128 1    
     4    1  129 1    
     5    2    3 2    
     6    2    4 am   BACKBONE|DICT|INTERRES
     7    4    5 1    
     8    4  130 1    
     9    5    6 1    
    10    5   65 1    
    11    5  131 1    
    12    6    7 1    
    13    6  132 1    
    14    6  133 1    
    15    7    8 1    
    16    8    9 1    
    17    8  134 1    
    18    8  135 1    
    19    9   10 ar   
    20    9   14 ar   
    21   10   11 ar   
    22   10  136 1    
    23   11   12 ar   
    24   11  126 1    
    25   12   13 ar   
    26   12  137 1    
    27   13   14 ar   
    28   13   15 1    
    29   14  138 1    
    30   15   16 1    
    31   15  139 1    
    32   15  140 1    
    33   16   17 1    
    34   17   18 1    
    35   17  141 1    
    36   17  142 1    
    37   18   19 1    
    38   18   67 1    
    39   18  143 1    
    40   19   20 am   BACKBONE|DICT|INTERRES
    41   19  144 1    
    42   20   21 2    
    43   20   22 1    
    44   22   23 1    
    45   22   24 1    
    46   22  145 1    
    47   23  146 1    
    48   23  147 1    
    49   23  148 1    
    50   24   25 am   BACKBONE|DICT|INTERRES
    51   24  149 1    
    52   25   26 2    
    53   25   27 1    
    54   27   28 1    
    55   27   29 1    
    56   27  150 1    
    57   28  151 1    
    58   28  152 1    
    59   28  153 1    
    60   29   30 am   BACKBONE|DICT|INTERRES
    61   29  154 1    
    62   30   31 2    
    63   30   32 1    
    64   32   33 1    
    65   32   34 1    
    66   32  155 1    
    67   33  156 1    
    68   33  157 1    
    69   33  158 1    
    70   34   35 am   BACKBONE|DICT|INTERRES
    71   34  159 1    
    72   35   36 2    
    73   35   37 1    
    74   37   38 1    
    75   37   39 1    
    76   37  160 1    
    77   38  161 1    
    78   38  162 1    
    79   38  163 1    
    80   39   40 am   BACKBONE|DICT|INTERRES
    81   39  164 1    
    82   40   41 2    
    83   40   42 1    
    84   42   43 1    
    85   42   44 1    
    86   42  165 1    
    87   43  166 1    
    88   43  167 1    
    89   43  168 1    
    90   44   45 am   BACKBONE|DICT|INTERRES
    91   44  169 1    
    92   45   46 2    
    93   45   47 1    
    94   47   48 1    
    95   47   49 1    
    96   47  170 1    
    97   48  171 1    
    98   48  172 1    
    99   48  173 1    
   100   49   50 am   BACKBONE|DICT|INTERRES
   101   49  174 1    
   102   50   51 2    
   103   50   52 1    
   104   52   53 1    
   105   52   54 1    
   106   52  175 1    
   107   53  176 1    
   108   53  177 1    
   109   53  178 1    
   110   54   55 am   BACKBONE|DICT|INTERRES
   111   54  179 1    
   112   55   56 2    
   113   55   57 1    
   114   57   58 1    
   115   57   59 1    
   116   57  180 1    
   117   58  181 1    
   118   58  182 1    
   119   58  183 1    
   120   59   60 am   BACKBONE|DICT|INTERRES
   121   59  184 1    
   122   60   61 2    
   123   60   62 1    
   124   62   63 1    
   125   62   64 1    
   126   62  185 1    
   127   63  186 1    
   128   63  187 1    
   129   63  188 1    
   130   64   65 am   BACKBONE|DICT|INTERRES
   131   64  189 1    
   132   65   66 2    
   133   67   68 2    
   134   67   69 am   BACKBONE|DICT|INTERRES
   135   69   70 1    
   136   69  190 1    
   137   70   71 1    
   138   70   72 1    
   139   70  191 1    
   140   71  192 1    
   141   71  193 1    
   142   71  194 1    
   143   72   73 2    
   144   72   74 am   BACKBONE|DICT|INTERRES
   145   74   75 1    
   146   74  195 1    
   147   75   76 1    
   148   75   77 1    
   149   75  196 1    
   150   76  197 1    
   151   76  198 1    
   152   76  199 1    
   153   77   78 2    
   154   77   79 am   BACKBONE|DICT|INTERRES
   155   79   80 1    
   156   79  200 1    
   157   80   81 1    
   158   80   82 1    
   159   80  201 1    
   160   81  202 1    
   161   81  203 1    
   162   81  204 1    
   163   82   83 2    
   164   82   84 am   BACKBONE|DICT|INTERRES
   165   84   85 1    
   166   84  205 1    
   167   85   86 1    
   168   85   87 1    
   169   85  206 1    
   170   86  207 1    
   171   86  208 1    
   172   86  209 1    
   173   87   88 2    
   174   87   89 am   BACKBONE|DICT|INTERRES
   175   89   90 1    
   176   89  210 1    
   177   90   91 1    
   178   90   92 1    
   179   90  211 1    
   180   91  212 1    
   181   91  213 1    
   182   91  214 1    
   183   92   93 2    
   184   92   94 am   BACKBONE|DICT|INTERRES
   185   94   95 1    
   186   94  215 1    
   187   95   96 1    
   188   95   97 1    
   189   95  216 1    
   190   96  217 1    
   191   96  218 1    
   192   96  219 1    
   193   97   98 2    
   194   97   99 am   BACKBONE|DICT|INTERRES
   195   99  100 1    
   196   99  220 1    
   197  100  101 1    
   198  100  102 1    
   199  100  221 1    
   200  101  222 1    
   201  101  223 1    
   202  101  224 1    
   203  102  103 2    
   204  102  104 am   BACKBONE|DICT|INTERRES
   205  104  105 1    
   206  104  225 1    
   207  105  106 1    
   208  105  107 1    
   209  105  226 1    
   210  106  227 1    
   211  106  228 1    
   212  106  229 1    
   213  107  108 2    
   214  107  109 am   BACKBONE|DICT|INTERRES
   215  109  110 1    
   216  109  230 1    
   217  110  111 1    
   218  110  112 1    
   219  110  231 1    
   220  111  232 1    
   221  111  233 1    
   222  111  234 1    
   223  112  113 2    
   224  112  114 am   BACKBONE|DICT|INTERRES
   225  114  115 1    
   226  114  235 1    
   227  115  116 1    
   228  115  117 1    
   229  115  236 1    
   230  116  237 1    
   231  116  238 1    
   232  116  239 1    
   233  117  118 2    
   234  117  119 am   BACKBONE|DICT|INTERRES
   235  119  120 1    
   236  119  240 1    
   237  120  121 1    
   238  120  124 1    
   239  120  241 1    
   240  121  122 am   BACKBONE|DICT|INTERRES
   241  121  123 2    
   242  122  242 1    
   243  122  243 1    
   244  124  125 1    
   245  124  244 1    
   246  124  245 1    
   247  125  126 1    
   248  126  246 1    
   249  126  247 1    
@<TRIPOS>SUBSTRUCTURE
     1 UNK         1 GROUP             0       ****    0 ROOT    
