@<TRIPOS>MOLECULE
3R540
247   249    1
SMALL
USER_CHARGES


@<TRIPOS>ATOM
      1 CA         -2.8411  -11.8742  -53.0239 C.3       0 UNK        -0.1800 
      2 C          -1.7487  -11.9744  -51.9686 C.2       0 UNK         0.5000 
      3 O          -1.0223  -11.0061  -51.7442 O.2       0 UNK        -0.5000 
      4 N          -1.6323  -13.1401  -51.3198 N.am      1 UNK        -0.5000 
      5 CA         -0.6265  -13.4326  -50.2863 C.3       1 UNK         0.1400 
      6 C6         -0.4077  -14.9571  -50.0996 C.3       23 UNK        -0.0398 
      7 S7          0.0359  -15.7780  -51.6699 S.3       23 UNK        -0.2404 
      8 C8          1.8410  -15.9669  -51.5173 C.3       23 UNK        -0.0205 
      9 C9          2.2366  -17.2591  -50.8145 C.ar      23 UNK        -0.0193 
     10 C10         2.0215  -18.4877  -51.4446 C.ar      23 UNK        -0.1150 
     11 C11         2.4049  -19.6891  -50.8346 C.ar      23 UNK        -0.0193 
     12 C12         3.0602  -19.6364  -49.5997 C.ar      23 UNK        -0.1150 
     13 C13         3.2919  -18.4132  -48.9548 C.ar      23 UNK        -0.0193 
     14 C14         2.8629  -17.2304  -49.5660 C.ar      23 UNK        -0.1150 
     15 C15         4.0622  -18.3310  -47.6363 C.3       23 UNK        -0.0205 
     16 S16         3.7591  -19.7095  -46.4803 S.3       23 UNK        -0.2404 
     17 C17         2.0515  -19.3674  -45.9358 C.3       23 UNK        -0.0398 
     18 CA          0.9846  -20.1456  -46.7345 C.3       11 UNK         0.1400 
     19 N           1.2880  -21.5708  -46.8074 N.am      11 UNK        -0.5000 
     20 C           0.7986  -22.4191  -47.7159 C.2       10 UNK         0.5000 
     21 O           0.0069  -22.0955  -48.6003 O.2       10 UNK        -0.5000 
     22 CA          1.2556  -23.8819  -47.5646 C.3       10 UNK         0.1400 
     23 CB          2.6713  -24.0533  -48.1405 C.3       10 UNK        -0.1800 
     24 N           1.2733  -24.3198  -46.1668 N.am      10 UNK        -0.5000 
     25 C           0.2135  -24.3475  -45.3463 C.2       9 UNK         0.5000 
     26 O          -0.9381  -24.1098  -45.7090 O.2       9 UNK        -0.5000 
     27 CA          0.5068  -24.6194  -43.8558 C.3       9 UNK         0.1400 
     28 CB          0.4297  -26.1237  -43.5573 C.3       9 UNK        -0.1800 
     29 N           1.8093  -24.1017  -43.4156 N.am      9 UNK        -0.5000 
     30 C           2.1656  -22.8091  -43.4363 C.2       8 UNK         0.5000 
     31 O           1.4123  -21.9070  -43.8060 O.2       8 UNK        -0.5000 
     32 CA          3.6294  -22.5005  -43.0665 C.3       8 UNK         0.1400 
     33 CB          4.5685  -22.9682  -44.1916 C.3       8 UNK        -0.1800 
     34 N           3.8779  -21.0767  -42.8302 N.am      8 UNK        -0.5000 
     35 C           3.4737  -20.3853  -41.7568 C.2       7 UNK         0.5000 
     36 O           2.8268  -20.8903  -40.8368 O.2       7 UNK        -0.5000 
     37 CA          3.9097  -18.9040  -41.6652 C.3       7 UNK         0.1400 
     38 CB          4.4680  -18.3213  -42.9790 C.3       7 UNK        -0.1800 
     39 N           2.8051  -18.0617  -41.2116 N.am      7 UNK        -0.5000 
     40 C           2.5367  -17.7570  -39.9329 C.2       6 UNK         0.5000 
     41 O           3.2481  -18.0963  -38.9858 O.2       6 UNK        -0.5000 
     42 CA          1.2681  -16.9208  -39.6510 C.3       6 UNK         0.1400 
     43 CB          1.6367  -15.4490  -39.4076 C.3       6 UNK        -0.1800 
     44 N           0.2791  -16.9823  -40.7273 N.am      6 UNK        -0.5000 
     45 C          -0.4197  -18.0741  -41.0651 C.2       5 UNK         0.5000 
     46 O          -0.4187  -19.1115  -40.4027 O.2       5 UNK        -0.5000 
     47 CA         -1.2434  -18.0159  -42.3681 C.3       5 UNK         0.1400 
     48 CB         -2.7480  -18.0234  -42.0532 C.3       5 UNK        -0.1800 
     49 N          -0.9536  -16.8797  -43.2504 N.am      5 UNK        -0.5000 
     50 C           0.2231  -16.6004  -43.8307 C.2       4 UNK         0.5000 
     51 O           1.2370  -17.2736  -43.6514 O.2       4 UNK        -0.5000 
     52 CA          0.2969  -15.3479  -44.7290 C.3       4 UNK         0.1400 
     53 CB          0.5568  -15.7247  -46.1954 C.3       4 UNK        -0.1800 
     54 N          -0.9028  -14.5113  -44.6708 N.am      4 UNK        -0.5000 
     55 C          -1.2342  -13.6889  -43.6695 C.2       3 UNK         0.5000 
     56 O          -0.5680  -13.5817  -42.6385 O.2       3 UNK        -0.5000 
     57 CA         -2.5238  -12.8584  -43.8646 C.3       3 UNK         0.1400 
     58 CB         -2.7675  -11.8651  -42.7142 C.3       3 UNK        -0.1800 
     59 N          -2.5421  -12.1202  -45.1322 N.am      3 UNK        -0.5000 
     60 C          -2.7592  -12.6430  -46.3463 C.2       2 UNK         0.5000 
     61 O          -2.9631  -13.8444  -46.5327 O.2       2 UNK        -0.5000 
     62 CA         -2.7627  -11.6809  -47.5534 C.3       2 UNK         0.1400 
     63 CB         -2.0902  -10.3163  -47.2798 C.3       2 UNK        -0.1800 
     64 N          -2.2027  -12.3120  -48.7529 N.am      2 UNK        -0.5000 
     65 C          -0.9464  -12.7503  -48.9359 C.2       1 UNK         0.5000 
     66 O          -0.0494  -12.6275  -48.1016 O.2       1 UNK        -0.5000 
     67 C          -0.4244  -19.9060  -46.1626 C.2       11 UNK         0.5000 
     68 O          -1.1014  -18.9779  -46.5988 O.2       11 UNK        -0.5000 
     69 N          -0.8684  -20.7674  -45.2360 N.am      12 UNK        -0.5000 
     70 CA         -2.2369  -20.7858  -44.7195 C.3       12 UNK         0.1400 
     71 CB         -2.3291  -21.7076  -43.4957 C.3       12 UNK        -0.1800 
     72 C          -3.2665  -21.1684  -45.7952 C.2       12 UNK         0.5000 
     73 O          -4.3251  -20.5452  -45.8564 O.2       12 UNK        -0.5000 
     74 N          -2.9220  -22.1325  -46.6617 N.am      13 UNK        -0.5000 
     75 CA         -3.7013  -22.4751  -47.8533 C.3       13 UNK         0.1400 
     76 CB         -3.1264  -23.7355  -48.5174 C.3       13 UNK        -0.1800 
     77 C          -3.7714  -21.3049  -48.8516 C.2       13 UNK         0.5000 
     78 O          -4.8477  -21.0134  -49.3722 O.2       13 UNK        -0.5000 
     79 N          -2.6400  -20.6176  -49.0580 N.am      14 UNK        -0.5000 
     80 CA         -2.5477  -19.4181  -49.8893 C.3       14 UNK         0.1400 
     81 CB         -1.0799  -19.0029  -50.0344 C.3       14 UNK        -0.1800 
     82 C          -3.4035  -18.2549  -49.3536 C.2       14 UNK         0.5000 
     83 O          -4.1458  -17.6443  -50.1226 O.2       14 UNK        -0.5000 
     84 N          -3.3308  -18.0111  -48.0374 N.am      15 UNK        -0.5000 
     85 CA         -4.1361  -17.0279  -47.3076 C.3       15 UNK         0.1400 
     86 CB         -3.6417  -16.9505  -45.8556 C.3       15 UNK        -0.1800 
     87 C          -5.6476  -17.3293  -47.3483 C.2       15 UNK         0.5000 
     88 O          -6.4531  -16.3998  -47.3978 O.2       15 UNK        -0.5000 
     89 N          -6.0028  -18.6212  -47.3769 N.am      16 UNK        -0.5000 
     90 CA         -7.3639  -19.1316  -47.5616 C.3       16 UNK         0.1400 
     91 CB         -7.4420  -20.5575  -46.9904 C.3       16 UNK        -0.1800 
     92 C          -7.8506  -19.0908  -49.0288 C.2       16 UNK         0.5000 
     93 O          -8.9537  -19.5646  -49.3042 O.2       16 UNK        -0.5000 
     94 N          -7.0375  -18.5301  -49.9368 N.am      17 UNK        -0.5000 
     95 CA         -7.2779  -18.3382  -51.3693 C.3       17 UNK         0.1400 
     96 CB         -8.5519  -17.5068  -51.6316 C.3       17 UNK        -0.1800 
     97 C          -7.2210  -19.6394  -52.1943 C.2       17 UNK         0.5000 
     98 O          -7.7372  -19.6724  -53.3122 O.2       17 UNK        -0.5000 
     99 N          -6.5372  -20.6671  -51.6732 N.am      18 UNK        -0.5000 
    100 CA        -6.2072  -21.9063  -52.3799 C.3       18 UNK         0.1400 
    101 CB        -6.4435  -23.1089  -51.4488 C.3       18 UNK        -0.1800 
    102 C         -4.7625  -21.8569  -52.9189 C.2       18 UNK         0.5000 
    103 O         -4.1129  -22.8963  -53.0404 O.2       18 UNK        -0.5000 
    104 N         -4.2794  -20.6508  -53.2554 N.am      19 UNK        -0.5000 
    105 CA        -2.9310  -20.3655  -53.7592 C.3       19 UNK         0.1400 
    106 CB        -2.7371  -18.8423  -53.8286 C.3       19 UNK        -0.1800 
    107 C         -2.6044  -21.0164  -55.1197 C.2       19 UNK         0.5000 
    108 O         -1.4301  -21.1336  -55.4677 O.2       19 UNK        -0.5000 
    109 N         -3.6376  -21.4523  -55.8550 N.am      20 UNK        -0.5000 
    110 CA        -3.5133  -22.2698  -57.0633 C.3       20 UNK         0.1400 
    111 CB        -4.8872  -22.3759  -57.7422 C.3       20 UNK        -0.1800 
    112 C         -2.9404  -23.6731  -56.7742 C.2       20 UNK         0.5000 
    113 O         -2.2396  -24.2253  -57.6232 O.2       20 UNK        -0.5000 
    114 N         -3.2310  -24.2090  -55.5803 N.am      21 UNK        -0.5000 
    115 CA        -2.6344  -25.4331  -55.0514 C.3       21 UNK         0.1400 
    116 CB        -3.6879  -26.2101  -54.2448 C.3       21 UNK        -0.1800 
    117 C         -1.4153  -25.0924  -54.1789 C.2       21 UNK         0.5000 
    118 O         -0.3562  -25.6955  -54.3540 O.2       21 UNK        -0.5000 
    119 N         -1.5857  -24.1154  -53.2754 N.am      22 UNK        -0.5000 
    120 CA        -0.5722  -23.6200  -52.3283 C.3       22 UNK         0.1400 
    121 C         -0.1051  -24.6895  -51.2929 C.2       22 UNK         0.5000 
    122 N         -0.9663  -25.6168  -50.8894 N.am      22 UNK        -0.7600 
    123 O          1.0379  -24.6940  -50.8498 O.2       22 UNK        -0.5000 
    124 C124        0.5930  -22.8605  -53.0429 C.3       23 UNK        -0.0398 
    125 S125        0.6710  -21.1051  -52.5553 S.3       23 UNK        -0.2404 
    126 C126        2.1557  -21.0495  -51.4932 C.3       23 UNK        -0.0205 
    127 H127       -3.5403  -11.0787  -52.7660 H         1 UNK         0.0600 
    128 H128       -3.4026  -12.8042  -53.1162 H         1 UNK         0.0600 
    129 H129       -2.4038  -11.6437  -53.9954 H         1 UNK         0.0600 
    130 H130       -2.2388  -13.9091  -51.5677 H         1 UNK         0.3000 
    131 H131        0.3229  -13.0100  -50.6230 H         1 UNK         0.0600 
    132 H132        0.3735  -15.1518  -49.3626 H         1 UNK         0.0800 
    133 H133       -1.3124  -15.4305  -49.7134 H         1 UNK         0.0800 
    134 H134        2.2722  -15.9720  -52.5193 H         1 UNK         0.0800 
    135 H135        2.2634  -15.0964  -51.0130 H         1 UNK         0.0800 
    136 H136        1.5447  -18.4979  -52.4140 H         1 UNK         0.1150 
    137 H137        3.3927  -20.5562  -49.1401 H         1 UNK         0.1150 
    138 H138        3.0486  -16.2805  -49.0846 H         1 UNK         0.1150 
    139 H139        5.1270  -18.3126  -47.8709 H         1 UNK         0.0800 
    140 H140        3.8474  -17.3923  -47.1233 H         1 UNK         0.0800 
    141 H141        1.9881  -19.6089  -44.8741 H         1 UNK         0.0800 
    142 H142        1.8667  -18.2995  -46.0104 H         1 UNK         0.0800 
    143 H143        0.9788  -19.7532  -47.7527 H         1 UNK         0.0600 
    144 H144        1.8896  -21.9262  -46.0794 H         1 UNK         0.3000 
    145 H145        0.5605  -24.5147  -48.1196 H         1 UNK         0.0600 
    146 H146        2.9548  -25.1051  -48.1798 H         1 UNK         0.0600 
    147 H147        2.7361  -23.6626  -49.1561 H         1 UNK         0.0600 
    148 H148        3.4177  -23.5246  -47.5462 H         1 UNK         0.0600 
    149 H149        2.1760  -24.5490  -45.7794 H         1 UNK         0.3000 
    150 H150       -0.2641  -24.1160  -43.2699 H         1 UNK         0.0600 
    151 H151        0.5510  -26.3214  -42.4921 H         1 UNK         0.0600 
    152 H152        1.1986  -26.6815  -44.0931 H         1 UNK         0.0600 
    153 H153       -0.5381  -26.5309  -43.8535 H         1 UNK         0.0600 
    154 H154        2.4809  -24.7889  -43.1044 H         1 UNK         0.3000 
    155 H155        3.8729  -23.0484  -42.1539 H         1 UNK         0.0600 
    156 H156        4.4796  -24.0411  -44.3656 H         1 UNK         0.0600 
    157 H157        5.6112  -22.7717  -43.9413 H         1 UNK         0.0600 
    158 H158        4.3514  -22.4642  -45.1342 H         1 UNK         0.0600 
    159 H159        4.3737  -20.5845  -43.5587 H         1 UNK         0.3000 
    160 H160        4.7173  -18.8677  -40.9316 H         1 UNK         0.0600 
    161 H161        3.7268  -18.3373  -43.7764 H         1 UNK         0.0600 
    162 H162        5.3478  -18.8665  -43.3223 H         1 UNK         0.0600 
    163 H163        4.7747  -17.2842  -42.8424 H         1 UNK         0.0600 
    164 H164        2.1570  -17.7615  -41.9329 H         1 UNK         0.3000 
    165 H165        0.8089  -17.3153  -38.7423 H         1 UNK         0.0600 
    166 H166        2.0865  -14.9962  -40.2922 H         1 UNK         0.0600 
    167 H167        0.7588  -14.8611  -39.1390 H         1 UNK         0.0600 
    168 H168        2.3525  -15.3549  -38.5899 H         1 UNK         0.0600 
    169 H169        0.2055  -16.1688  -41.3212 H         1 UNK         0.3000 
    170 H170       -0.9913  -18.9216  -42.9195 H         1 UNK         0.0600 
    171 H171       -3.0199  -18.8986  -41.4614 H         1 UNK         0.0600 
    172 H172       -3.0414  -17.1393  -41.4859 H         1 UNK         0.0600 
    173 H173       -3.3490  -18.0509  -42.9612 H         1 UNK         0.0600 
    174 H174       -1.7226  -16.2560  -43.4420 H         1 UNK         0.3000 
    175 H175        1.1419  -14.7501  -44.3812 H         1 UNK         0.0600 
    176 H176       -0.1710  -16.4452  -46.5692 H         1 UNK         0.0600 
    177 H177        0.5170  -14.8475  -46.8385 H         1 UNK         0.0600 
    178 H178        1.5516  -16.1499  -46.3173 H         1 UNK         0.0600 
    179 H179       -1.5119  -14.5203  -45.4847 H         1 UNK         0.3000 
    180 H180       -3.3554  -13.5661  -43.8684 H         1 UNK         0.0600 
    181 H181       -1.9697  -11.1244  -42.6463 H         1 UNK         0.0600 
    182 H182       -2.8210  -12.3807  -41.7544 H         1 UNK         0.0600 
    183 H183       -3.7097  -11.3327  -42.8455 H         1 UNK         0.0600 
    184 H184       -2.3472  -11.1316  -45.0696 H         1 UNK         0.3000 
    185 H185       -3.8127  -11.4890  -47.7781 H         1 UNK         0.0600 
    186 H186       -2.0762   -9.7019  -48.1802 H         1 UNK         0.0600 
    187 H187       -2.6322   -9.7515  -46.5205 H         1 UNK         0.0600 
    188 H188       -1.0598  -10.4272  -46.9404 H         1 UNK         0.0600 
    189 H189       -2.8610  -12.4839  -49.4989 H         1 UNK         0.3000 
    190 H190       -0.2214  -21.4583  -44.8706 H         1 UNK         0.3000 
    191 H191       -2.4821  -19.7736  -44.4000 H         1 UNK         0.0600 
    192 H192       -1.5869  -21.4435  -42.7419 H         1 UNK         0.0600 
    193 H193       -2.1800  -22.7525  -43.7645 H         1 UNK         0.0600 
    194 H194       -3.3112  -21.6297  -43.0280 H         1 UNK         0.0600 
    195 H195       -2.0612  -22.6480  -46.5074 H         1 UNK         0.3000 
    196 H196       -4.7206  -22.6990  -47.5325 H         1 UNK         0.0600 
    197 H197       -3.7197  -24.0248  -49.3855 H         1 UNK         0.0600 
    198 H198       -3.1256  -24.5788  -47.8267 H         1 UNK         0.0600 
    199 H199       -2.1030  -23.5860  -48.8591 H         1 UNK         0.0600 
    200 H200       -1.7821  -20.9483  -48.6311 H         1 UNK         0.3000 
    201 H201       -2.9242  -19.6904  -50.8753 H         1 UNK         0.0600 
    202 H202       -0.9545  -18.3614  -50.9048 H         1 UNK         0.0600 
    203 H203       -0.4351  -19.8681  -50.1762 H         1 UNK         0.0600 
    204 H204       -0.7096  -18.4563  -49.1672 H         1 UNK         0.0600 
    205 H205       -2.6432  -18.5244  -47.4896 H         1 UNK         0.3000 
    206 H206       -3.9776  -16.0562  -47.7793 H         1 UNK         0.0600 
    207 H207       -2.5832  -16.6967  -45.8151 H         1 UNK         0.0600 
    208 H208       -4.1825  -16.1847  -45.2984 H         1 UNK         0.0600 
    209 H209       -3.7798  -17.8980  -45.3362 H         1 UNK         0.0600 
    210 H210       -5.2769  -19.3211  -47.2680 H         1 UNK         0.3000 
    211 H211       -8.0461  -18.5041  -46.9849 H         1 UNK         0.0600 
    212 H212       -6.8023  -21.2470  -47.5407 H         1 UNK         0.0600 
    213 H213       -8.4596  -20.9467  -47.0374 H         1 UNK         0.0600 
    214 H214       -7.1368  -20.5803  -45.9441 H         1 UNK         0.0600 
    215 H215       -6.1312  -18.2072  -49.6184 H         1 UNK         0.3000 
    216 H216       -6.4358  -17.7405  -51.7204 H         1 UNK         0.0600 
    217 H217       -8.6101  -17.2016  -52.6769 H         1 UNK         0.0600 
    218 H218       -8.5613  -16.5980  -51.0297 H         1 UNK         0.0600 
    219 H219       -9.4592  -18.0685  -51.4087 H         1 UNK         0.0600 
    220 H220       -6.1025  -20.5632  -50.7589 H         1 UNK         0.3000 
    221 H221       -6.8610  -22.0317  -53.2448 H         1 UNK         0.0600 
    222 H222       -6.3133  -24.0495  -51.9855 H         1 UNK         0.0600 
    223 H223       -5.7512  -23.1169  -50.6080 H         1 UNK         0.0600 
    224 H224       -7.4570  -23.1028  -51.0476 H         1 UNK         0.0600 
    225 H225       -4.8892  -19.8555  -53.1410 H         1 UNK         0.3000 
    226 H226       -2.2233  -20.7687  -53.0335 H         1 UNK         0.0600 
    227 H227       -2.9115  -18.3691  -52.8625 H         1 UNK         0.0600 
    228 H228       -1.7178  -18.5934  -54.1274 H         1 UNK         0.0600 
    229 H229       -3.4131  -18.3846  -54.5519 H         1 UNK         0.0600 
    230 H230       -4.5715  -21.2884  -55.5102 H         1 UNK         0.3000 
    231 H231       -2.8289  -21.7645  -57.7480 H         1 UNK         0.0600 
    232 H232       -4.8239  -22.9614  -58.6604 H         1 UNK         0.0600 
    233 H233       -5.2715  -21.3919  -58.0115 H         1 UNK         0.0600 
    234 H234       -5.6207  -22.8586  -57.0951 H         1 UNK         0.0600 
    235 H235       -3.7780  -23.6645  -54.9246 H         1 UNK         0.3000 
    236 H236       -2.2994  -26.0738  -55.8700 H         1 UNK         0.0600 
    237 H237       -4.5308  -26.4949  -54.8746 H         1 UNK         0.0600 
    238 H238       -3.2647  -27.1276  -53.8339 H         1 UNK         0.0600 
    239 H239       -4.0785  -25.6260  -53.4108 H         1 UNK         0.0600 
    240 H240       -2.5071  -23.6919  -53.1880 H         1 UNK         0.3000 
    241 H241       -1.1173  -22.9038  -51.7119 H         1 UNK         0.0600 
    242 H242       -1.9052  -25.6409  -51.2521 H         1 UNK         0.3800 
    243 H243       -0.6639  -26.3170  -50.2319 H         1 UNK         0.3800 
    244 H244        1.5651  -23.3302  -52.8883 H         1 UNK         0.0800 
    245 H245        0.4535  -22.8703  -54.1247 H         1 UNK         0.0800 
    246 H246        2.0456  -21.8142  -50.7226 H         1 UNK         0.0800 
    247 H247        3.0308  -21.3189  -52.0856 H         1 UNK         0.0800 
@<TRIPOS>BOND
     1    1    2 1    
     2    1  127 1    
     3    1  128 1    
     4    1  129 1    
     5    2    3 2    
     6    2    4 am   BACKBONE|DICT|INTERRES
     7    4    5 1    
     8    4  130 1    
     9    5    6 1    
    10    5   65 1    
    11    5  131 1    
    12    6    7 1    
    13    6  132 1    
    14    6  133 1    
    15    7    8 1    
    16    8    9 1    
    17    8  134 1    
    18    8  135 1    
    19    9   10 ar   
    20    9   14 ar   
    21   10   11 ar   
    22   10  136 1    
    23   11   12 ar   
    24   11  126 1    
    25   12   13 ar   
    26   12  137 1    
    27   13   14 ar   
    28   13   15 1    
    29   14  138 1    
    30   15   16 1    
    31   15  139 1    
    32   15  140 1    
    33   16   17 1    
    34   17   18 1    
    35   17  141 1    
    36   17  142 1    
    37   18   19 1    
    38   18   67 1    
    39   18  143 1    
    40   19   20 am   BACKBONE|DICT|INTERRES
    41   19  144 1    
    42   20   21 2    
    43   20   22 1    
    44   22   23 1    
    45   22   24 1    
    46   22  145 1    
    47   23  146 1    
    48   23  147 1    
    49   23  148 1    
    50   24   25 am   BACKBONE|DICT|INTERRES
    51   24  149 1    
    52   25   26 2    
    53   25   27 1    
    54   27   28 1    
    55   27   29 1    
    56   27  150 1    
    57   28  151 1    
    58   28  152 1    
    59   28  153 1    
    60   29   30 am   BACKBONE|DICT|INTERRES
    61   29  154 1    
    62   30   31 2    
    63   30   32 1    
    64   32   33 1    
    65   32   34 1    
    66   32  155 1    
    67   33  156 1    
    68   33  157 1    
    69   33  158 1    
    70   34   35 am   BACKBONE|DICT|INTERRES
    71   34  159 1    
    72   35   36 2    
    73   35   37 1    
    74   37   38 1    
    75   37   39 1    
    76   37  160 1    
    77   38  161 1    
    78   38  162 1    
    79   38  163 1    
    80   39   40 am   BACKBONE|DICT|INTERRES
    81   39  164 1    
    82   40   41 2    
    83   40   42 1    
    84   42   43 1    
    85   42   44 1    
    86   42  165 1    
    87   43  166 1    
    88   43  167 1    
    89   43  168 1    
    90   44   45 am   BACKBONE|DICT|INTERRES
    91   44  169 1    
    92   45   46 2    
    93   45   47 1    
    94   47   48 1    
    95   47   49 1    
    96   47  170 1    
    97   48  171 1    
    98   48  172 1    
    99   48  173 1    
   100   49   50 am   BACKBONE|DICT|INTERRES
   101   49  174 1    
   102   50   51 2    
   103   50   52 1    
   104   52   53 1    
   105   52   54 1    
   106   52  175 1    
   107   53  176 1    
   108   53  177 1    
   109   53  178 1    
   110   54   55 am   BACKBONE|DICT|INTERRES
   111   54  179 1    
   112   55   56 2    
   113   55   57 1    
   114   57   58 1    
   115   57   59 1    
   116   57  180 1    
   117   58  181 1    
   118   58  182 1    
   119   58  183 1    
   120   59   60 am   BACKBONE|DICT|INTERRES
   121   59  184 1    
   122   60   61 2    
   123   60   62 1    
   124   62   63 1    
   125   62   64 1    
   126   62  185 1    
   127   63  186 1    
   128   63  187 1    
   129   63  188 1    
   130   64   65 am   BACKBONE|DICT|INTERRES
   131   64  189 1    
   132   65   66 2    
   133   67   68 2    
   134   67   69 am   BACKBONE|DICT|INTERRES
   135   69   70 1    
   136   69  190 1    
   137   70   71 1    
   138   70   72 1    
   139   70  191 1    
   140   71  192 1    
   141   71  193 1    
   142   71  194 1    
   143   72   73 2    
   144   72   74 am   BACKBONE|DICT|INTERRES
   145   74   75 1    
   146   74  195 1    
   147   75   76 1    
   148   75   77 1    
   149   75  196 1    
   150   76  197 1    
   151   76  198 1    
   152   76  199 1    
   153   77   78 2    
   154   77   79 am   BACKBONE|DICT|INTERRES
   155   79   80 1    
   156   79  200 1    
   157   80   81 1    
   158   80   82 1    
   159   80  201 1    
   160   81  202 1    
   161   81  203 1    
   162   81  204 1    
   163   82   83 2    
   164   82   84 am   BACKBONE|DICT|INTERRES
   165   84   85 1    
   166   84  205 1    
   167   85   86 1    
   168   85   87 1    
   169   85  206 1    
   170   86  207 1    
   171   86  208 1    
   172   86  209 1    
   173   87   88 2    
   174   87   89 am   BACKBONE|DICT|INTERRES
   175   89   90 1    
   176   89  210 1    
   177   90   91 1    
   178   90   92 1    
   179   90  211 1    
   180   91  212 1    
   181   91  213 1    
   182   91  214 1    
   183   92   93 2    
   184   92   94 am   BACKBONE|DICT|INTERRES
   185   94   95 1    
   186   94  215 1    
   187   95   96 1    
   188   95   97 1    
   189   95  216 1    
   190   96  217 1    
   191   96  218 1    
   192   96  219 1    
   193   97   98 2    
   194   97   99 am   BACKBONE|DICT|INTERRES
   195   99  100 1    
   196   99  220 1    
   197  100  101 1    
   198  100  102 1    
   199  100  221 1    
   200  101  222 1    
   201  101  223 1    
   202  101  224 1    
   203  102  103 2    
   204  102  104 am   BACKBONE|DICT|INTERRES
   205  104  105 1    
   206  104  225 1    
   207  105  106 1    
   208  105  107 1    
   209  105  226 1    
   210  106  227 1    
   211  106  228 1    
   212  106  229 1    
   213  107  108 2    
   214  107  109 am   BACKBONE|DICT|INTERRES
   215  109  110 1    
   216  109  230 1    
   217  110  111 1    
   218  110  112 1    
   219  110  231 1    
   220  111  232 1    
   221  111  233 1    
   222  111  234 1    
   223  112  113 2    
   224  112  114 am   BACKBONE|DICT|INTERRES
   225  114  115 1    
   226  114  235 1    
   227  115  116 1    
   228  115  117 1    
   229  115  236 1    
   230  116  237 1    
   231  116  238 1    
   232  116  239 1    
   233  117  118 2    
   234  117  119 am   BACKBONE|DICT|INTERRES
   235  119  120 1    
   236  119  240 1    
   237  120  121 1    
   238  120  124 1    
   239  120  241 1    
   240  121  122 am   BACKBONE|DICT|INTERRES
   241  121  123 2    
   242  122  242 1    
   243  122  243 1    
   244  124  125 1    
   245  124  244 1    
   246  124  245 1    
   247  125  126 1    
   248  126  246 1    
   249  126  247 1    
@<TRIPOS>SUBSTRUCTURE
     1 UNK         1 GROUP             0       ****    0 ROOT    
