@<TRIPOS>MOLECULE
3R540
247   249    1
SMALL
USER_CHARGES


@<TRIPOS>ATOM
      1 CA          9.4186  -15.8640  -47.9098 C.3       0 UNK        -0.1800 
      2 C           8.2907  -16.8320  -47.5817 C.2       0 UNK         0.5000 
      3 O           8.3222  -17.4782  -46.5346 O.2       0 UNK        -0.5000 
      4 N           7.2933  -16.9312  -48.4694 N.am      1 UNK        -0.5000 
      5 CA          6.1213  -17.8064  -48.3277 C.3       1 UNK         0.1400 
      6 C6          5.5145  -18.1691  -49.7061 C.3       23 UNK        -0.0398 
      7 S7          4.9107  -16.7340  -50.6694 S.3       23 UNK        -0.2404 
      8 C8          3.5330  -17.4784  -51.6022 C.3       23 UNK        -0.0205 
      9 C9          2.1680  -17.2045  -50.9806 C.ar      23 UNK        -0.0193 
     10 C10         1.2088  -16.4817  -51.6977 C.ar      23 UNK        -0.1150 
     11 C11        -0.0695  -16.2746  -51.1710 C.ar      23 UNK        -0.0193 
     12 C12        -0.3815  -16.7788  -49.9064 C.ar      23 UNK        -0.1150 
     13 C13         0.5648  -17.5030  -49.1778 C.ar      23 UNK        -0.0193 
     14 C14         1.8375  -17.7100  -49.7189 C.ar      23 UNK        -0.1150 
     15 C15         0.1992  -18.0667  -47.8134 C.3       23 UNK        -0.0205 
     16 S16        -0.8021  -19.5801  -47.9756 S.3       23 UNK        -0.2404 
     17 C17         0.4550  -20.7924  -48.5141 C.3       23 UNK        -0.0398 
     18 CA          0.7497  -21.9207  -47.4956 C.3       11 UNK         0.1400 
     19 N           0.9998  -21.4132  -46.1427 N.am      11 UNK        -0.5000 
     20 C           2.0518  -21.7509  -45.3848 C.2       10 UNK         0.5000 
     21 O           2.9093  -22.5662  -45.7265 O.2       10 UNK        -0.5000 
     22 CA          2.1759  -21.0664  -44.0104 C.3       10 UNK         0.1400 
     23 CB          2.9518  -19.7468  -44.1426 C.3       10 UNK        -0.1800 
     24 N           0.8818  -20.8068  -43.3796 N.am      10 UNK        -0.5000 
     25 C           0.0738  -21.7600  -42.8892 C.2       9 UNK         0.5000 
     26 O           0.3619  -22.9571  -42.8824 O.2       9 UNK        -0.5000 
     27 CA         -1.2956  -21.3175  -42.3276 C.3       9 UNK         0.1400 
     28 CB         -1.2325  -21.1948  -40.7978 C.3       9 UNK        -0.1800 
     29 N          -1.7985  -20.0586  -42.8822 N.am      9 UNK        -0.5000 
     30 C          -2.0241  -19.8239  -44.1816 C.2       8 UNK         0.5000 
     31 O          -1.8691  -20.6752  -45.0552 O.2       8 UNK        -0.5000 
     32 CA         -2.4252  -18.3902  -44.5812 C.3       8 UNK         0.1400 
     33 CB         -3.9520  -18.2679  -44.6887 C.3       8 UNK        -0.1800 
     34 N          -1.9247  -17.3357  -43.6921 N.am      8 UNK        -0.5000 
     35 C          -0.6422  -17.1286  -43.3510 C.2       7 UNK         0.5000 
     36 O           0.2756  -17.8812  -43.6792 O.2       7 UNK        -0.5000 
     37 CA         -0.3391  -15.8974  -42.4755 C.3       7 UNK         0.1400 
     38 CB          0.9992  -15.2425  -42.8503 C.3       7 UNK        -0.1800 
     39 N          -1.3959  -14.8931  -42.5842 N.am      7 UNK        -0.5000 
     40 C          -2.1400  -14.4275  -41.5718 C.2       6 UNK         0.5000 
     41 O          -2.0208  -14.8066  -40.4063 O.2       6 UNK        -0.5000 
     42 CA         -3.1985  -13.3543  -41.9064 C.3       6 UNK         0.1400 
     43 CB         -2.7178  -11.9684  -41.4487 C.3       6 UNK        -0.1800 
     44 N          -3.5328  -13.2855  -43.3302 N.am      6 UNK        -0.5000 
     45 C          -4.2035  -14.2253  -44.0101 C.2       5 UNK         0.5000 
     46 O          -4.6818  -15.2311  -43.4873 O.2       5 UNK        -0.5000 
     47 CA         -4.3067  -14.0343  -45.5366 C.3       5 UNK         0.1400 
     48 CB         -5.6466  -13.3866  -45.9141 C.3       5 UNK        -0.1800 
     49 N          -3.2080  -13.2410  -46.1005 N.am      5 UNK        -0.5000 
     50 C          -1.9250  -13.6258  -46.1141 C.2       4 UNK         0.5000 
     51 O          -1.5278  -14.6954  -45.6479 O.2       4 UNK        -0.5000 
     52 CA         -0.9140  -12.6239  -46.6809 C.3       4 UNK         0.1400 
     53 CB         -0.3541  -11.7286  -45.5620 C.3       4 UNK        -0.1800 
     54 N           0.1730  -13.3612  -47.3103 N.am      4 UNK        -0.5000 
     55 C           0.9074  -12.9389  -48.3418 C.2       3 UNK         0.5000 
     56 O           0.7940  -11.8166  -48.8393 O.2       3 UNK        -0.5000 
     57 CA          1.9379  -13.9392  -48.9071 C.3       3 UNK         0.1400 
     58 CB          2.5392  -13.4724  -50.2452 C.3       3 UNK        -0.1800 
     59 N           3.0304  -14.2374  -47.9812 N.am      3 UNK        -0.5000 
     60 C           2.9421  -14.9660  -46.8604 C.2       2 UNK         0.5000 
     61 O           1.8952  -15.4615  -46.4420 O.2       2 UNK        -0.5000 
     62 CA          4.2761  -15.1945  -46.1239 C.3       2 UNK         0.1400 
     63 CB          4.1130  -15.8109  -44.7200 C.3       2 UNK        -0.1800 
     64 N           5.1979  -15.9815  -46.9480 N.am      2 UNK        -0.5000 
     65 C           5.0514  -17.2527  -47.3579 C.2       1 UNK         0.5000 
     66 O           4.1262  -17.9887  -47.0155 O.2       1 UNK        -0.5000 
     67 C          -0.3310  -23.0167  -47.5227 C.2       11 UNK         0.5000 
     68 O          -0.3428  -23.8020  -48.4711 O.2       11 UNK        -0.5000 
     69 N          -1.1917  -23.0916  -46.4951 N.am      12 UNK        -0.5000 
     70 CA         -2.2850  -24.0623  -46.3504 C.3       12 UNK         0.1400 
     71 CB         -2.9536  -23.8717  -44.9802 C.3       12 UNK        -0.1800 
     72 C          -1.8718  -25.5346  -46.5262 C.2       12 UNK         0.5000 
     73 O          -2.6241  -26.3089  -47.1165 O.2       12 UNK        -0.5000 
     74 N          -0.6706  -25.8806  -46.0475 N.am      13 UNK        -0.5000 
     75 CA         -0.0842  -27.2172  -46.1505 C.3       13 UNK         0.1400 
     76 CB          1.1488  -27.2827  -45.2359 C.3       13 UNK        -0.1800 
     77 C           0.2922  -27.6327  -47.5882 C.2       13 UNK         0.5000 
     78 O           0.3904  -28.8315  -47.8540 O.2       13 UNK        -0.5000 
     79 N           0.5102  -26.6540  -48.4768 N.am      14 UNK        -0.5000 
     80 CA          0.9261  -26.8655  -49.8627 C.3       14 UNK         0.1400 
     81 CB          2.1330  -25.9618  -50.1642 C.3       14 UNK        -0.1800 
     82 C          -0.2178  -26.5773  -50.8468 C.2       14 UNK         0.5000 
     83 O          -0.4465  -27.3693  -51.7617 O.2       14 UNK        -0.5000 
     84 N          -0.9058  -25.4446  -50.6549 N.am      15 UNK        -0.5000 
     85 CA         -1.9362  -24.9374  -51.5610 C.3       15 UNK         0.1400 
     86 CB         -2.0205  -23.4105  -51.4030 C.3       15 UNK        -0.1800 
     87 C          -3.3201  -25.5728  -51.3420 C.2       15 UNK         0.5000 
     88 O          -4.1714  -25.4543  -52.2239 O.2       15 UNK        -0.5000 
     89 N          -3.5426  -26.1884  -50.1696 N.am      16 UNK        -0.5000 
     90 CA         -4.7833  -26.8041  -49.6697 C.3       16 UNK         0.1400 
     91 CB         -5.2733  -27.9386  -50.5899 C.3       16 UNK        -0.1800 
     92 C          -5.9050  -25.7869  -49.3762 C.2       16 UNK         0.5000 
     93 O          -6.4637  -25.7954  -48.2794 O.2       16 UNK        -0.5000 
     94 N          -6.1833  -24.9018  -50.3405 N.am      17 UNK        -0.5000 
     95 CA         -7.0855  -23.7548  -50.2167 C.3       17 UNK         0.1400 
     96 CB         -7.5364  -23.3301  -51.6233 C.3       17 UNK        -0.1800 
     97 C          -6.4424  -22.5644  -49.4754 C.2       17 UNK         0.5000 
     98 O          -7.1490  -21.6143  -49.1377 O.2       17 UNK        -0.5000 
     99 N          -5.1224  -22.6308  -49.2438 N.am      18 UNK        -0.5000 
    100 CA        -4.2858  -21.6079  -48.6140 C.3       18 UNK         0.1400 
    101 CB        -4.7152  -21.3859  -47.1482 C.3       18 UNK        -0.1800 
    102 C         -4.2375  -20.3214  -49.4622 C.2       18 UNK         0.5000 
    103 O         -4.1885  -20.4108  -50.6902 O.2       18 UNK        -0.5000 
    104 N         -4.2605  -19.1521  -48.8089 N.am      19 UNK        -0.5000 
    105 CA        -4.1644  -17.8310  -49.4348 C.3       19 UNK         0.1400 
    106 CB        -4.0522  -16.7650  -48.3336 C.3       19 UNK        -0.1800 
    107 C         -5.3113  -17.4967  -50.4100 C.2       19 UNK         0.5000 
    108 O         -5.1380  -16.6249  -51.2611 O.2       19 UNK        -0.5000 
    109 N         -6.4412  -18.2145  -50.3121 N.am      20 UNK        -0.5000 
    110 CA        -7.5664  -18.1260  -51.2460 C.3       20 UNK         0.1400 
    111 CB        -8.7519  -18.9342  -50.6996 C.3       20 UNK        -0.1800 
    112 C         -7.2120  -18.5852  -52.6754 C.2       20 UNK         0.5000 
    113 O         -7.8529  -18.1325  -53.6252 O.2       20 UNK        -0.5000 
    114 N         -6.1730  -19.4253  -52.8194 N.am      21 UNK        -0.5000 
    115 CA        -5.6204  -19.8540  -54.1084 C.3       21 UNK         0.1400 
    116 CB        -4.5688  -20.9494  -53.8722 C.3       21 UNK        -0.1800 
    117 C         -5.0097  -18.6977  -54.9281 C.2       21 UNK         0.5000 
    118 O         -4.9118  -18.8116  -56.1506 O.2       21 UNK        -0.5000 
    119 N         -4.6289  -17.6073  -54.2498 N.am      22 UNK        -0.5000 
    120 CA        -4.1204  -16.3675  -54.8550 C.3       22 UNK         0.1400 
    121 C         -5.2361  -15.4381  -55.4203 C.2       22 UNK         0.5000 
    122 N         -6.5191  -15.7375  -55.2437 N.am      22 UNK        -0.7600 
    123 O         -4.9314  -14.4255  -56.0447 O.2       22 UNK        -0.5000 
    124 C124       -3.1890  -15.5936  -53.8849 C.3       23 UNK        -0.0398 
    125 S125       -1.8280  -16.6278  -53.2480 S.3       23 UNK        -0.2404 
    126 C126       -1.1209  -15.5343  -51.9803 C.3       23 UNK        -0.0205 
    127 H127        9.2567  -15.3606  -48.8634 H         1 UNK         0.0600 
    128 H128        9.4985  -15.1035  -47.1329 H         1 UNK         0.0600 
    129 H129       10.3672  -16.3982  -47.9644 H         1 UNK         0.0600 
    130 H130        7.3179  -16.3768  -49.3144 H         1 UNK         0.3000 
    131 H131        6.4646  -18.7433  -47.8834 H         1 UNK         0.0600 
    132 H132        4.7128  -18.8973  -49.5783 H         1 UNK         0.0800 
    133 H133        6.2679  -18.6780  -50.3087 H         1 UNK         0.0800 
    134 H134        3.6773  -18.5550  -51.7015 H         1 UNK         0.0800 
    135 H135        3.5683  -17.0815  -52.6178 H         1 UNK         0.0800 
    136 H136        1.4446  -16.0993  -52.6808 H         1 UNK         0.1150 
    137 H137       -1.3639  -16.6186  -49.4892 H         1 UNK         0.1150 
    138 H138        2.5675  -18.2710  -49.1564 H         1 UNK         0.1150 
    139 H139        1.0940  -18.2706  -47.2219 H         1 UNK         0.0800 
    140 H140       -0.3661  -17.3196  -47.2538 H         1 UNK         0.0800 
    141 H141        1.3884  -20.2701  -48.7175 H         1 UNK         0.0800 
    142 H142        0.1464  -21.2035  -49.4773 H         1 UNK         0.0800 
    143 H143        1.6520  -22.4169  -47.8592 H         1 UNK         0.0600 
    144 H144        0.3197  -20.7559  -45.7822 H         1 UNK         0.3000 
    145 H145        2.7450  -21.7303  -43.3562 H         1 UNK         0.0600 
    146 H146        3.0705  -19.2558  -43.1767 H         1 UNK         0.0600 
    147 H147        3.9501  -19.9182  -44.5473 H         1 UNK         0.0600 
    148 H148        2.4470  -19.0494  -44.8128 H         1 UNK         0.0600 
    149 H149        0.5713  -19.8394  -43.3724 H         1 UNK         0.3000 
    150 H150       -2.0169  -22.0972  -42.5786 H         1 UNK         0.0600 
    151 H151       -0.8889  -22.1257  -40.3445 H         1 UNK         0.0600 
    152 H152       -2.2140  -20.9742  -40.3780 H         1 UNK         0.0600 
    153 H153       -0.5472  -20.4053  -40.4866 H         1 UNK         0.0600 
    154 H154       -1.9318  -19.2979  -42.2330 H         1 UNK         0.3000 
    155 H155       -2.0001  -18.2046  -45.5683 H         1 UNK         0.0600 
    156 H156       -4.4277  -18.3075  -43.7082 H         1 UNK         0.0600 
    157 H157       -4.3792  -19.0689  -45.2893 H         1 UNK         0.0600 
    158 H158       -4.2370  -17.3295  -45.1621 H         1 UNK         0.0600 
    159 H159       -2.6109  -16.6694  -43.3663 H         1 UNK         0.3000 
    160 H160       -0.2606  -16.2632  -41.4501 H         1 UNK         0.0600 
    161 H161        1.2041  -14.3734  -42.2254 H         1 UNK         0.0600 
    162 H162        1.0056  -14.9178  -43.8916 H         1 UNK         0.0600 
    163 H163        1.8245  -15.9418  -42.7137 H         1 UNK         0.0600 
    164 H164       -1.5783  -14.5649  -43.5259 H         1 UNK         0.3000 
    165 H165       -4.1060  -13.6044  -41.3528 H         1 UNK         0.0600 
    166 H166       -3.4827  -11.2098  -41.6160 H         1 UNK         0.0600 
    167 H167       -2.4884  -11.9659  -40.3823 H         1 UNK         0.0600 
    168 H168       -1.8157  -11.6602  -41.9791 H         1 UNK         0.0600 
    169 H169       -3.1806  -12.4885  -43.8389 H         1 UNK         0.3000 
    170 H170       -4.2685  -15.0260  -45.9895 H         1 UNK         0.0600 
    171 H171       -6.4842  -13.9694  -45.5286 H         1 UNK         0.0600 
    172 H172       -5.7346  -12.3775  -45.5098 H         1 UNK         0.0600 
    173 H173       -5.7649  -13.3280  -46.9963 H         1 UNK         0.0600 
    174 H174       -3.4575  -12.3433  -46.4909 H         1 UNK         0.3000 
    175 H175       -1.4178  -12.0062  -47.4274 H         1 UNK         0.0600 
    176 H176        0.1575  -12.3156  -44.7977 H         1 UNK         0.0600 
    177 H177        0.3568  -11.0024  -45.9563 H         1 UNK         0.0600 
    178 H178       -1.1502  -11.1685  -45.0703 H         1 UNK         0.0600 
    179 H179        0.3542  -14.2853  -46.9228 H         1 UNK         0.3000 
    180 H180        1.4022  -14.8664  -49.0956 H         1 UNK         0.0600 
    181 H181        3.1206  -12.5569  -50.1307 H         1 UNK         0.0600 
    182 H182        1.7552  -13.2779  -50.9782 H         1 UNK         0.0600 
    183 H183        3.1922  -14.2336  -50.6710 H         1 UNK         0.0600 
    184 H184        3.9340  -13.8726  -48.2427 H         1 UNK         0.3000 
    185 H185        4.7392  -14.2152  -45.9933 H         1 UNK         0.0600 
    186 H186        3.5996  -15.1134  -44.0595 H         1 UNK         0.0600 
    187 H187        3.5338  -16.7346  -44.7381 H         1 UNK         0.0600 
    188 H188        5.0805  -16.0305  -44.2688 H         1 UNK         0.0600 
    189 H189        6.0019  -15.4832  -47.3010 H         1 UNK         0.3000 
    190 H190       -1.1696  -22.3495  -45.8030 H         1 UNK         0.3000 
    191 H191       -3.0196  -23.8465  -47.1262 H         1 UNK         0.0600 
    192 H192       -2.2513  -24.0504  -44.1651 H         1 UNK         0.0600 
    193 H193       -3.7887  -24.5619  -44.8525 H         1 UNK         0.0600 
    194 H194       -3.3499  -22.8641  -44.8630 H         1 UNK         0.0600 
    195 H195       -0.1180  -25.1739  -45.5836 H         1 UNK         0.3000 
    196 H196       -0.8196  -27.9371  -45.7852 H         1 UNK         0.0600 
    197 H197        1.6010  -28.2752  -45.2582 H         1 UNK         0.0600 
    198 H198        0.8837  -27.0715  -44.1997 H         1 UNK         0.0600 
    199 H199        1.9131  -26.5664  -45.5403 H         1 UNK         0.0600 
    200 H200        0.3532  -25.6938  -48.1938 H         1 UNK         0.3000 
    201 H201        1.2409  -27.8998  -50.0164 H         1 UNK         0.0600 
    202 H202        2.9766  -26.2070  -49.5188 H         1 UNK         0.0600 
    203 H203        1.8974  -24.9067  -50.0181 H         1 UNK         0.0600 
    204 H204        2.4663  -26.0852  -51.1954 H         1 UNK         0.0600 
    205 H205       -0.6584  -24.8409  -49.8727 H         1 UNK         0.3000 
    206 H206       -1.6404  -25.1525  -52.5901 H         1 UNK         0.0600 
    207 H207       -1.0729  -22.9359  -51.6579 H         1 UNK         0.0600 
    208 H208       -2.7827  -22.9833  -52.0566 H         1 UNK         0.0600 
    209 H209       -2.2677  -23.1266  -50.3813 H         1 UNK         0.0600 
    210 H210       -2.7777  -26.2048  -49.5074 H         1 UNK         0.3000 
    211 H211       -4.5210  -27.2618  -48.7150 H         1 UNK         0.0600 
    212 H212       -5.5979  -27.5707  -51.5633 H         1 UNK         0.0600 
    213 H213       -6.1207  -28.4595  -50.1427 H         1 UNK         0.0600 
    214 H214       -4.4885  -28.6769  -50.7551 H         1 UNK         0.0600 
    215 H215       -5.6586  -24.9841  -51.2085 H         1 UNK         0.3000 
    216 H216       -7.9677  -24.0574  -49.6489 H         1 UNK         0.0600 
    217 H217       -8.2242  -22.4846  -51.5786 H         1 UNK         0.0600 
    218 H218       -8.0547  -24.1427  -52.1326 H         1 UNK         0.0600 
    219 H219       -6.6903  -23.0326  -52.2426 H         1 UNK         0.0600 
    220 H220       -4.6381  -23.4399  -49.5996 H         1 UNK         0.3000 
    221 H221       -3.2685  -21.9983  -48.6034 H         1 UNK         0.0600 
    222 H222       -5.6314  -20.8001  -47.0656 H         1 UNK         0.0600 
    223 H223       -4.8932  -22.3336  -46.6416 H         1 UNK         0.0600 
    224 H224       -3.9313  -20.8712  -46.5973 H         1 UNK         0.0600 
    225 H225       -4.3067  -19.1683  -47.8017 H         1 UNK         0.3000 
    226 H226       -3.2448  -17.8204  -50.0224 H         1 UNK         0.0600 
    227 H227       -4.9405  -16.7495  -47.7013 H         1 UNK         0.0600 
    228 H228       -3.1862  -16.9435  -47.6951 H         1 UNK         0.0600 
    229 H229       -3.9362  -15.7685  -48.7621 H         1 UNK         0.0600 
    230 H230       -6.4966  -18.9329  -49.6038 H         1 UNK         0.3000 
    231 H231       -7.8671  -17.0779  -51.3036 H         1 UNK         0.0600 
    232 H232       -9.0178  -18.6187  -49.6906 H         1 UNK         0.0600 
    233 H233       -8.5332  -20.0014  -50.6735 H         1 UNK         0.0600 
    234 H234       -9.6348  -18.7992  -51.3258 H         1 UNK         0.0600 
    235 H235       -5.6686  -19.7324  -51.9940 H         1 UNK         0.3000 
    236 H236       -6.4360  -20.2816  -54.6950 H         1 UNK         0.0600 
    237 H237       -4.2104  -21.3563  -54.8184 H         1 UNK         0.0600 
    238 H238       -3.7020  -20.5631  -53.3345 H         1 UNK         0.0600 
    239 H239       -4.9765  -21.7788  -53.2955 H         1 UNK         0.0600 
    240 H240       -4.7533  -17.5832  -53.2458 H         1 UNK         0.3000 
    241 H241       -3.5135  -16.6492  -55.7175 H         1 UNK         0.0600 
    242 H242       -7.2246  -15.1258  -55.6229 H         1 UNK         0.3800 
    243 H243       -6.7986  -16.5697  -54.7406 H         1 UNK         0.3800 
    244 H244       -2.7489  -14.7292  -54.3852 H         1 UNK         0.0800 
    245 H245       -3.7603  -15.2033  -53.0414 H         1 UNK         0.0800 
    246 H246       -0.6774  -14.6582  -52.4558 H         1 UNK         0.0800 
    247 H247       -1.9159  -15.1696  -51.3276 H         1 UNK         0.0800 
@<TRIPOS>BOND
     1    1    2 1    
     2    1  127 1    
     3    1  128 1    
     4    1  129 1    
     5    2    3 2    
     6    2    4 am   BACKBONE|DICT|INTERRES
     7    4    5 1    
     8    4  130 1    
     9    5    6 1    
    10    5   65 1    
    11    5  131 1    
    12    6    7 1    
    13    6  132 1    
    14    6  133 1    
    15    7    8 1    
    16    8    9 1    
    17    8  134 1    
    18    8  135 1    
    19    9   10 ar   
    20    9   14 ar   
    21   10   11 ar   
    22   10  136 1    
    23   11   12 ar   
    24   11  126 1    
    25   12   13 ar   
    26   12  137 1    
    27   13   14 ar   
    28   13   15 1    
    29   14  138 1    
    30   15   16 1    
    31   15  139 1    
    32   15  140 1    
    33   16   17 1    
    34   17   18 1    
    35   17  141 1    
    36   17  142 1    
    37   18   19 1    
    38   18   67 1    
    39   18  143 1    
    40   19   20 am   BACKBONE|DICT|INTERRES
    41   19  144 1    
    42   20   21 2    
    43   20   22 1    
    44   22   23 1    
    45   22   24 1    
    46   22  145 1    
    47   23  146 1    
    48   23  147 1    
    49   23  148 1    
    50   24   25 am   BACKBONE|DICT|INTERRES
    51   24  149 1    
    52   25   26 2    
    53   25   27 1    
    54   27   28 1    
    55   27   29 1    
    56   27  150 1    
    57   28  151 1    
    58   28  152 1    
    59   28  153 1    
    60   29   30 am   BACKBONE|DICT|INTERRES
    61   29  154 1    
    62   30   31 2    
    63   30   32 1    
    64   32   33 1    
    65   32   34 1    
    66   32  155 1    
    67   33  156 1    
    68   33  157 1    
    69   33  158 1    
    70   34   35 am   BACKBONE|DICT|INTERRES
    71   34  159 1    
    72   35   36 2    
    73   35   37 1    
    74   37   38 1    
    75   37   39 1    
    76   37  160 1    
    77   38  161 1    
    78   38  162 1    
    79   38  163 1    
    80   39   40 am   BACKBONE|DICT|INTERRES
    81   39  164 1    
    82   40   41 2    
    83   40   42 1    
    84   42   43 1    
    85   42   44 1    
    86   42  165 1    
    87   43  166 1    
    88   43  167 1    
    89   43  168 1    
    90   44   45 am   BACKBONE|DICT|INTERRES
    91   44  169 1    
    92   45   46 2    
    93   45   47 1    
    94   47   48 1    
    95   47   49 1    
    96   47  170 1    
    97   48  171 1    
    98   48  172 1    
    99   48  173 1    
   100   49   50 am   BACKBONE|DICT|INTERRES
   101   49  174 1    
   102   50   51 2    
   103   50   52 1    
   104   52   53 1    
   105   52   54 1    
   106   52  175 1    
   107   53  176 1    
   108   53  177 1    
   109   53  178 1    
   110   54   55 am   BACKBONE|DICT|INTERRES
   111   54  179 1    
   112   55   56 2    
   113   55   57 1    
   114   57   58 1    
   115   57   59 1    
   116   57  180 1    
   117   58  181 1    
   118   58  182 1    
   119   58  183 1    
   120   59   60 am   BACKBONE|DICT|INTERRES
   121   59  184 1    
   122   60   61 2    
   123   60   62 1    
   124   62   63 1    
   125   62   64 1    
   126   62  185 1    
   127   63  186 1    
   128   63  187 1    
   129   63  188 1    
   130   64   65 am   BACKBONE|DICT|INTERRES
   131   64  189 1    
   132   65   66 2    
   133   67   68 2    
   134   67   69 am   BACKBONE|DICT|INTERRES
   135   69   70 1    
   136   69  190 1    
   137   70   71 1    
   138   70   72 1    
   139   70  191 1    
   140   71  192 1    
   141   71  193 1    
   142   71  194 1    
   143   72   73 2    
   144   72   74 am   BACKBONE|DICT|INTERRES
   145   74   75 1    
   146   74  195 1    
   147   75   76 1    
   148   75   77 1    
   149   75  196 1    
   150   76  197 1    
   151   76  198 1    
   152   76  199 1    
   153   77   78 2    
   154   77   79 am   BACKBONE|DICT|INTERRES
   155   79   80 1    
   156   79  200 1    
   157   80   81 1    
   158   80   82 1    
   159   80  201 1    
   160   81  202 1    
   161   81  203 1    
   162   81  204 1    
   163   82   83 2    
   164   82   84 am   BACKBONE|DICT|INTERRES
   165   84   85 1    
   166   84  205 1    
   167   85   86 1    
   168   85   87 1    
   169   85  206 1    
   170   86  207 1    
   171   86  208 1    
   172   86  209 1    
   173   87   88 2    
   174   87   89 am   BACKBONE|DICT|INTERRES
   175   89   90 1    
   176   89  210 1    
   177   90   91 1    
   178   90   92 1    
   179   90  211 1    
   180   91  212 1    
   181   91  213 1    
   182   91  214 1    
   183   92   93 2    
   184   92   94 am   BACKBONE|DICT|INTERRES
   185   94   95 1    
   186   94  215 1    
   187   95   96 1    
   188   95   97 1    
   189   95  216 1    
   190   96  217 1    
   191   96  218 1    
   192   96  219 1    
   193   97   98 2    
   194   97   99 am   BACKBONE|DICT|INTERRES
   195   99  100 1    
   196   99  220 1    
   197  100  101 1    
   198  100  102 1    
   199  100  221 1    
   200  101  222 1    
   201  101  223 1    
   202  101  224 1    
   203  102  103 2    
   204  102  104 am   BACKBONE|DICT|INTERRES
   205  104  105 1    
   206  104  225 1    
   207  105  106 1    
   208  105  107 1    
   209  105  226 1    
   210  106  227 1    
   211  106  228 1    
   212  106  229 1    
   213  107  108 2    
   214  107  109 am   BACKBONE|DICT|INTERRES
   215  109  110 1    
   216  109  230 1    
   217  110  111 1    
   218  110  112 1    
   219  110  231 1    
   220  111  232 1    
   221  111  233 1    
   222  111  234 1    
   223  112  113 2    
   224  112  114 am   BACKBONE|DICT|INTERRES
   225  114  115 1    
   226  114  235 1    
   227  115  116 1    
   228  115  117 1    
   229  115  236 1    
   230  116  237 1    
   231  116  238 1    
   232  116  239 1    
   233  117  118 2    
   234  117  119 am   BACKBONE|DICT|INTERRES
   235  119  120 1    
   236  119  240 1    
   237  120  121 1    
   238  120  124 1    
   239  120  241 1    
   240  121  122 am   BACKBONE|DICT|INTERRES
   241  121  123 2    
   242  122  242 1    
   243  122  243 1    
   244  124  125 1    
   245  124  244 1    
   246  124  245 1    
   247  125  126 1    
   248  126  246 1    
   249  126  247 1    
@<TRIPOS>SUBSTRUCTURE
     1 UNK         1 GROUP             0       ****    0 ROOT    
