@<TRIPOS>MOLECULE
3R540
247   249    1
SMALL
USER_CHARGES


@<TRIPOS>ATOM
      1 CA         -3.5876  -18.3364  -46.9300 C.3       0 UNK        -0.1800 
      2 C          -3.2336  -16.8781  -47.1852 C.2       0 UNK         0.5000 
      3 O          -3.9929  -15.9901  -46.7983 O.2       0 UNK        -0.5000 
      4 N          -2.0928  -16.6274  -47.8407 N.am      1 UNK        -0.5000 
      5 CA         -1.5873  -15.2881  -48.1573 C.3       1 UNK         0.1400 
      6 C6         -0.4589  -15.3248  -49.2142 C.3       23 UNK        -0.0398 
      7 S7         -1.0768  -15.9125  -50.8254 S.3       23 UNK        -0.2404 
      8 C8          0.4641  -16.1905  -51.7543 C.3       23 UNK        -0.0205 
      9 C9          0.8451  -17.6640  -51.8257 C.ar      23 UNK        -0.0193 
     10 C10         0.8210  -18.3442  -53.0488 C.ar      23 UNK        -0.1150 
     11 C11         1.2422  -19.6753  -53.1281 C.ar      23 UNK        -0.0193 
     12 C12         1.6513  -20.3341  -51.9658 C.ar      23 UNK        -0.1150 
     13 C13         1.6772  -19.6750  -50.7340 C.ar      23 UNK        -0.0193 
     14 C14         1.2804  -18.3330  -50.6781 C.ar      23 UNK        -0.1150 
     15 C15         2.2097  -20.4351  -49.5177 C.3       23 UNK        -0.0205 
     16 S16         1.8514  -19.6938  -47.8873 S.3       23 UNK        -0.2404 
     17 C17         0.0944  -20.1275  -47.6730 C.3       23 UNK        -0.0398 
     18 CA         -0.0733  -21.4970  -46.9771 C.3       11 UNK         0.1400 
     19 N           0.4375  -21.5107  -45.6021 N.am      11 UNK        -0.5000 
     20 C           0.6468  -22.6243  -44.8869 C.2       10 UNK         0.5000 
     21 O           0.3779  -23.7535  -45.2961 O.2       10 UNK        -0.5000 
     22 CA          1.2131  -22.4527  -43.4682 C.3       10 UNK         0.1400 
     23 CB          2.6889  -22.0279  -43.5085 C.3       10 UNK        -0.1800 
     24 N           0.4376  -21.4997  -42.6774 N.am      10 UNK        -0.5000 
     25 C          -0.8271  -21.7008  -42.2804 C.2       9 UNK         0.5000 
     26 O          -1.4534  -22.7402  -42.4906 O.2       9 UNK        -0.5000 
     27 CA         -1.5225  -20.5349  -41.5518 C.3       9 UNK         0.1400 
     28 CB         -1.1519  -20.5259  -40.0614 C.3       9 UNK        -0.1800 
     29 N          -1.2250  -19.2271  -42.1390 N.am      9 UNK        -0.5000 
     30 C          -1.5298  -18.8741  -43.3967 C.2       8 UNK         0.5000 
     31 O          -2.1099  -19.6084  -44.1934 O.2       8 UNK        -0.5000 
     32 CA         -1.0505  -17.4922  -43.8670 C.3       8 UNK         0.1400 
     33 CB         -1.9428  -16.3789  -43.3005 C.3       8 UNK        -0.1800 
     34 N           0.3444  -17.2423  -43.5130 N.am      8 UNK        -0.5000 
     35 C           1.3774  -17.9830  -43.9376 C.2       7 UNK         0.5000 
     36 O           1.2657  -18.9454  -44.6943 O.2       7 UNK        -0.5000 
     37 CA          2.7589  -17.6349  -43.3635 C.3       7 UNK         0.1400 
     38 CB          3.3531  -16.4029  -44.0626 C.3       7 UNK        -0.1800 
     39 N           2.7044  -17.4188  -41.9172 N.am      7 UNK        -0.5000 
     40 C           2.4310  -18.3787  -41.0208 C.2       6 UNK         0.5000 
     41 O           2.2332  -19.5565  -41.3168 O.2       6 UNK        -0.5000 
     42 CA          2.3271  -17.9416  -39.5490 C.3       6 UNK         0.1400 
     43 CB          3.7170  -17.9014  -38.8965 C.3       6 UNK        -0.1800 
     44 N           1.6813  -16.6378  -39.3960 N.am      6 UNK        -0.5000 
     45 C           0.3884  -16.3972  -39.6559 C.2       5 UNK         0.5000 
     46 O          -0.4092  -17.2578  -40.0294 O.2       5 UNK        -0.5000 
     47 CA         -0.0678  -14.9309  -39.5309 C.3       5 UNK         0.1400 
     48 CB         -0.3506  -14.5702  -38.0649 C.3       5 UNK        -0.1800 
     49 N           0.9041  -13.9849  -40.0925 N.am      5 UNK        -0.5000 
     50 C           1.2496  -13.9588  -41.3852 C.2       4 UNK         0.5000 
     51 O           0.7783  -14.7287  -42.2277 O.2       4 UNK        -0.5000 
     52 CA          2.3147  -12.9391  -41.8135 C.3       4 UNK         0.1400 
     53 CB          3.7239  -13.4151  -41.4135 C.3       4 UNK        -0.1800 
     54 N           2.2029  -12.8212  -43.2597 N.am      4 UNK        -0.5000 
     55 C           2.7531  -11.9164  -44.0736 C.2       3 UNK         0.5000 
     56 O           3.5274  -11.0324  -43.7064 O.2       3 UNK        -0.5000 
     57 CA          2.3285  -12.0104  -45.5537 C.3       3 UNK         0.1400 
     58 CB          3.2824  -12.9264  -46.3354 C.3       3 UNK        -0.1800 
     59 N           0.9589  -12.5149  -45.6955 N.am      3 UNK        -0.5000 
     60 C          -0.1431  -11.8194  -45.3886 C.2       2 UNK         0.5000 
     61 O          -0.1230  -10.6231  -45.0934 O.2       2 UNK        -0.5000 
     62 CA         -1.4789  -12.5955  -45.3927 C.3       2 UNK         0.1400 
     63 CB         -2.6997  -11.6787  -45.1945 C.3       2 UNK        -0.1800 
     64 N          -1.6934  -13.4008  -46.5974 N.am      2 UNK        -0.5000 
     65 C          -1.1148  -14.5753  -46.8760 C.2       1 UNK         0.5000 
     66 O          -0.2350  -15.0869  -46.1806 O.2       1 UNK        -0.5000 
     67 C          -1.5232  -22.0066  -47.0822 C.2       11 UNK         0.5000 
     68 O          -1.8542  -22.6331  -48.0870 O.2       11 UNK        -0.5000 
     69 N          -2.3414  -21.8009  -46.0400 N.am      12 UNK        -0.5000 
     70 CA         -3.6936  -22.3557  -45.9325 C.3       12 UNK         0.1400 
     71 CB         -4.3919  -21.7822  -44.6904 C.3       12 UNK        -0.1800 
     72 C          -3.7295  -23.8981  -45.9047 C.2       12 UNK         0.5000 
     73 O          -4.7243  -24.4879  -46.3267 O.2       12 UNK        -0.5000 
     74 N          -2.6499  -24.5252  -45.4197 N.am      13 UNK        -0.5000 
     75 CA         -2.4652  -25.9727  -45.4372 C.3       13 UNK         0.1400 
     76 CB         -1.6979  -26.4040  -44.1768 C.3       13 UNK        -0.1800 
     77 C          -1.7279  -26.4161  -46.7117 C.2       13 UNK         0.5000 
     78 O          -2.1881  -27.3319  -47.3937 O.2       13 UNK        -0.5000 
     79 N          -0.5919  -25.7682  -47.0033 N.am      14 UNK        -0.5000 
     80 CA          0.3441  -26.1619  -48.0568 C.3       14 UNK         0.1400 
     81 CB          1.6906  -25.4614  -47.8157 C.3       14 UNK        -0.1800 
     82 C          -0.1492  -25.8830  -49.4873 C.2       14 UNK         0.5000 
     83 O           0.1933  -26.6433  -50.3939 O.2       14 UNK        -0.5000 
     84 N          -0.9153  -24.8015  -49.6723 N.am      15 UNK        -0.5000 
     85 CA         -1.3652  -24.3084  -50.9754 C.3       15 UNK         0.1400 
     86 CB         -0.6072  -23.0085  -51.2986 C.3       15 UNK        -0.1800 
     87 C          -2.8923  -24.1201  -51.0336 C.2       15 UNK         0.5000 
     88 O          -3.3831  -23.5023  -51.9791 O.2       15 UNK        -0.5000 
     89 N          -3.6196  -24.6608  -50.0436 N.am      16 UNK        -0.5000 
     90 CA         -5.0792  -24.6534  -49.8984 C.3       16 UNK         0.1400 
     91 CB         -5.7308  -25.5685  -50.9589 C.3       16 UNK        -0.1800 
     92 C          -5.6648  -23.2259  -49.8790 C.2       16 UNK         0.5000 
     93 O          -5.6731  -22.5872  -48.8285 O.2       16 UNK        -0.5000 
     94 N          -6.1360  -22.7420  -51.0353 N.am      17 UNK        -0.5000 
     95 CA         -6.6583  -21.3859  -51.2161 C.3       17 UNK         0.1400 
     96 CB         -7.6425  -21.3894  -52.3962 C.3       17 UNK        -0.1800 
     97 C          -5.5485  -20.3271  -51.4073 C.2       17 UNK         0.5000 
     98 O          -5.8651  -19.1392  -51.4888 O.2       17 UNK        -0.5000 
     99 N          -4.2815  -20.7647  -51.4839 N.am      18 UNK        -0.5000 
    100 CA        -3.0683  -19.9644  -51.6596 C.3       18 UNK         0.1400 
    101 CB        -2.7974  -19.0965  -50.4160 C.3       18 UNK        -0.1800 
    102 C         -3.1109  -19.2096  -52.9987 C.2       18 UNK         0.5000 
    103 O         -3.2340  -19.8748  -54.0247 O.2       18 UNK        -0.5000 
    104 N         -3.0574  -17.8691  -52.9998 N.am      19 UNK        -0.5000 
    105 CA        -3.1027  -17.0244  -54.2032 C.3       19 UNK         0.1400 
    106 CB        -3.1038  -15.5411  -53.8037 C.3       19 UNK        -0.1800 
    107 C         -4.2818  -17.3082  -55.1564 C.2       19 UNK         0.5000 
    108 O         -4.1103  -17.2153  -56.3720 O.2       19 UNK        -0.5000 
    109 N         -5.4398  -17.6882  -54.6000 N.am      20 UNK        -0.5000 
    110 CA        -6.6317  -18.0621  -55.3627 C.3       20 UNK         0.1400 
    111 CB        -7.8515  -18.0281  -54.4318 C.3       20 UNK        -0.1800 
    112 C         -6.5110  -19.4236  -56.0810 C.2       20 UNK         0.5000 
    113 O         -7.2350  -19.6486  -57.0517 O.2       20 UNK        -0.5000 
    114 N         -5.6046  -20.2949  -55.6163 N.am      21 UNK        -0.5000 
    115 CA        -5.2501  -21.5529  -56.2745 C.3       21 UNK         0.1400 
    116 CB        -4.9821  -22.6363  -55.2152 C.3       21 UNK        -0.1800 
    117 C         -4.0215  -21.3661  -57.1814 C.2       21 UNK         0.5000 
    118 O         -4.0115  -21.8735  -58.3038 O.2       21 UNK        -0.5000 
    119 N         -3.0120  -20.6466  -56.6763 N.am      22 UNK        -0.5000 
    120 CA        -1.7409  -20.3627  -57.3567 C.3       22 UNK         0.1400 
    121 C         -1.8658  -19.4173  -58.5851 C.2       22 UNK         0.5000 
    122 N         -2.7993  -18.4743  -58.6076 N.am      22 UNK        -0.7600 
    123 O         -1.1020  -19.5456  -59.5380 O.2       22 UNK        -0.5000 
    124 C124       -0.6712  -19.8283  -56.3702 C.3       23 UNK        -0.0398 
    125 S125       -0.2646  -21.0222  -55.0485 S.3       23 UNK        -0.2404 
    126 C126        1.3392  -20.3856  -54.4718 C.3       23 UNK        -0.0205 
    127 H127       -4.3928  -18.6507  -47.5939 H         1 UNK         0.0600 
    128 H128       -2.7360  -18.9957  -47.0886 H         1 UNK         0.0600 
    129 H129       -3.9247  -18.4660  -45.9018 H         1 UNK         0.0600 
    130 H130       -1.5022  -17.3903  -48.1318 H         1 UNK         0.3000 
    131 H131       -2.4164  -14.7146  -48.5786 H         1 UNK         0.0600 
    132 H132        0.3639  -15.9554  -48.8760 H         1 UNK         0.0800 
    133 H133       -0.0412  -14.3278  -49.3666 H         1 UNK         0.0800 
    134 H134        0.3325  -15.7874  -52.7594 H         1 UNK         0.0800 
    135 H135        1.2818  -15.6224  -51.3085 H         1 UNK         0.0800 
    136 H136        0.5105  -17.8295  -53.9471 H         1 UNK         0.1150 
    137 H137        1.9885  -21.3593  -52.0273 H         1 UNK         0.1150 
    138 H138        1.3278  -17.7921  -49.7466 H         1 UNK         0.1150 
    139 H139        1.8307  -21.4581  -49.5291 H         1 UNK         0.0800 
    140 H140        3.2929  -20.5101  -49.6192 H         1 UNK         0.0800 
    141 H141       -0.3883  -20.1181  -48.6520 H         1 UNK         0.0800 
    142 H142       -0.3788  -19.3421  -47.0823 H         1 UNK         0.0800 
    143 H143        0.5275  -22.2157  -47.5378 H         1 UNK         0.0600 
    144 H144        0.6973  -20.6074  -45.2081 H         1 UNK         0.3000 
    145 H145        1.1588  -23.4236  -42.9712 H         1 UNK         0.0600 
    146 H146        3.1151  -21.9944  -42.5058 H         1 UNK         0.0600 
    147 H147        3.2823  -22.7335  -44.0911 H         1 UNK         0.0600 
    148 H148        2.8165  -21.0427  -43.9572 H         1 UNK         0.0600 
    149 H149        0.9014  -20.6331  -42.4255 H         1 UNK         0.3000 
    150 H150       -2.5999  -20.6933  -41.6327 H         1 UNK         0.0600 
    151 H151       -1.3812  -21.4850  -39.5954 H         1 UNK         0.0600 
    152 H152       -1.7093  -19.7603  -39.5215 H         1 UNK         0.0600 
    153 H153       -0.0892  -20.3330  -39.9124 H         1 UNK         0.0600 
    154 H154       -0.7662  -18.5509  -41.5365 H         1 UNK         0.3000 
    155 H155       -1.1221  -17.4665  -44.9559 H         1 UNK         0.0600 
    156 H156       -1.9020  -16.3410  -42.2116 H         1 UNK         0.0600 
    157 H157       -2.9837  -16.5277  -43.5902 H         1 UNK         0.0600 
    158 H158       -1.6363  -15.4052  -43.6782 H         1 UNK         0.0600 
    159 H159        0.5241  -16.4373  -42.9187 H         1 UNK         0.3000 
    160 H160        3.4220  -18.4818  -43.5527 H         1 UNK         0.0600 
    161 H161        4.3513  -16.1767  -43.6878 H         1 UNK         0.0600 
    162 H162        2.7316  -15.5196  -43.9241 H         1 UNK         0.0600 
    163 H163        3.4397  -16.5728  -45.1366 H         1 UNK         0.0600 
    164 H164        2.8117  -16.4711  -41.5919 H         1 UNK         0.3000 
    165 H165        1.7241  -18.6845  -39.0225 H         1 UNK         0.0600 
    166 H166        3.6470  -17.6658  -37.8344 H         1 UNK         0.0600 
    167 H167        4.2153  -18.8680  -38.9817 H         1 UNK         0.0600 
    168 H168        4.3623  -17.1568  -39.3644 H         1 UNK         0.0600 
    169 H169        2.2640  -15.8704  -39.0960 H         1 UNK         0.3000 
    170 H170       -0.9994  -14.8278  -40.0918 H         1 UNK         0.0600 
    171 H171       -1.0813  -15.2532  -37.6294 H         1 UNK         0.0600 
    172 H172        0.5514  -14.6210  -37.4540 H         1 UNK         0.0600 
    173 H173       -0.7583  -13.5628  -37.9788 H         1 UNK         0.0600 
    174 H174        1.3254  -13.3285  -39.4509 H         1 UNK         0.3000 
    175 H175        2.0935  -11.9739  -41.3544 H         1 UNK         0.0600 
    176 H176        3.9741  -14.3698  -41.8763 H         1 UNK         0.0600 
    177 H177        4.4859  -12.6939  -41.7084 H         1 UNK         0.0600 
    178 H178        3.8048  -13.5413  -40.3333 H         1 UNK         0.0600 
    179 H179        1.5575  -13.4978  -43.6503 H         1 UNK         0.3000 
    180 H180        2.3813  -11.0084  -45.9848 H         1 UNK         0.0600 
    181 H181        3.2560  -13.9504  -45.9611 H         1 UNK         0.0600 
    182 H182        4.3120  -12.5745  -46.2586 H         1 UNK         0.0600 
    183 H183        3.0251  -12.9506  -47.3944 H         1 UNK         0.0600 
    184 H184        0.8429  -13.4986  -45.9216 H         1 UNK         0.3000 
    185 H185       -1.4396  -13.2688  -44.5351 H         1 UNK         0.0600 
    186 H186       -2.6203  -11.1117  -44.2660 H         1 UNK         0.0600 
    187 H187       -2.8016  -10.9626  -46.0109 H         1 UNK         0.0600 
    188 H188       -3.6219  -12.2574  -45.1378 H         1 UNK         0.0600 
    189 H189       -2.3865  -13.0434  -47.2390 H         1 UNK         0.3000 
    190 H190       -2.0306  -21.2172  -45.2680 H         1 UNK         0.3000 
    191 H191       -4.2494  -22.0268  -46.8100 H         1 UNK         0.0600 
    192 H192       -3.8366  -22.0046  -43.7788 H         1 UNK         0.0600 
    193 H193       -5.3937  -22.1982  -44.5765 H         1 UNK         0.0600 
    194 H194       -4.5002  -20.7005  -44.7638 H         1 UNK         0.0600 
    195 H195       -1.8661  -23.9704  -45.1000 H         1 UNK         0.3000 
    196 H196       -3.4357  -26.4734  -45.4182 H         1 UNK         0.0600 
    197 H197       -0.7146  -25.9369  -44.1153 H         1 UNK         0.0600 
    198 H198       -1.5499  -27.4845  -44.1612 H         1 UNK         0.0600 
    199 H199       -2.2477  -26.1376  -43.2739 H         1 UNK         0.0600 
    200 H200       -0.2769  -25.0274  -46.3791 H         1 UNK         0.3000 
    201 H201        0.5075  -27.2384  -47.9725 H         1 UNK         0.0600 
    202 H202        1.5969  -24.3769  -47.8768 H         1 UNK         0.0600 
    203 H203        2.4306  -25.7692  -48.5555 H         1 UNK         0.0600 
    204 H204        2.0926  -25.7068  -46.8325 H         1 UNK         0.0600 
    205 H205       -1.1639  -24.2136  -48.8806 H         1 UNK         0.3000 
    206 H206       -1.1313  -25.0319  -51.7585 H         1 UNK         0.0600 
    207 H207       -0.8728  -22.6288  -52.2861 H         1 UNK         0.0600 
    208 H208       -0.8204  -22.2248  -50.5716 H         1 UNK         0.0600 
    209 H209        0.4694  -23.1767  -51.2999 H         1 UNK         0.0600 
    210 H210       -3.1132  -25.1229  -49.3023 H         1 UNK         0.3000 
    211 H211       -5.2947  -25.0867  -48.9209 H         1 UNK         0.0600 
    212 H212       -5.4916  -25.2645  -51.9783 H         1 UNK         0.0600 
    213 H213       -6.8171  -25.5707  -50.8598 H         1 UNK         0.0600 
    214 H214       -5.3958  -26.5987  -50.8383 H         1 UNK         0.0600 
    215 H215       -6.0454  -23.3106  -51.8651 H         1 UNK         0.3000 
    216 H216       -7.2181  -21.1092  -50.3203 H         1 UNK         0.0600 
    217 H217       -8.2618  -20.4936  -52.3787 H         1 UNK         0.0600 
    218 H218       -8.3212  -22.2413  -52.3496 H         1 UNK         0.0600 
    219 H219       -7.1291  -21.4184  -53.3565 H         1 UNK         0.0600 
    220 H220       -4.1326  -21.7694  -51.5076 H         1 UNK         0.3000 
    221 H221       -2.2463  -20.6737  -51.7469 H         1 UNK         0.0600 
    222 H222       -3.5270  -18.2951  -50.2957 H         1 UNK         0.0600 
    223 H223       -2.8224  -19.7061  -49.5130 H         1 UNK         0.0600 
    224 H224       -1.8046  -18.6524  -50.4697 H         1 UNK         0.0600 
    225 H225       -2.9549  -17.3888  -52.1171 H         1 UNK         0.3000 
    226 H226       -2.1879  -17.2167  -54.7653 H         1 UNK         0.0600 
    227 H227       -2.1463  -15.2459  -53.3792 H         1 UNK         0.0600 
    228 H228       -3.2709  -14.8982  -54.6692 H         1 UNK         0.0600 
    229 H229       -3.8840  -15.3193  -53.0748 H         1 UNK         0.0600 
    230 H230       -5.4919  -17.7773  -53.5935 H         1 UNK         0.3000 
    231 H231       -6.7878  -17.3095  -56.1387 H         1 UNK         0.0600 
    232 H232       -8.0402  -17.0169  -54.0711 H         1 UNK         0.0600 
    233 H233       -7.7061  -18.6667  -53.5632 H         1 UNK         0.0600 
    234 H234       -8.7534  -18.3636  -54.9456 H         1 UNK         0.0600 
    235 H235       -4.9972  -20.0092  -54.8556 H         1 UNK         0.3000 
    236 H236       -6.0769  -21.8978  -56.8990 H         1 UNK         0.0600 
    237 H237       -4.6418  -23.5617  -55.6815 H         1 UNK         0.0600 
    238 H238       -4.2161  -22.3314  -54.5013 H         1 UNK         0.0600 
    239 H239       -5.8854  -22.8752  -54.6561 H         1 UNK         0.0600 
    240 H240       -3.0819  -20.3168  -55.7151 H         1 UNK         0.3000 
    241 H241       -1.3746  -21.3148  -57.7461 H         1 UNK         0.0600 
    242 H242       -2.8709  -17.8750  -59.4141 H         1 UNK         0.3800 
    243 H243       -3.3812  -18.2835  -57.7974 H         1 UNK         0.3800 
    244 H244        0.2462  -19.5943  -56.9130 H         1 UNK         0.0800 
    245 H245       -1.0035  -18.8979  -55.9097 H         1 UNK         0.0800 
    246 H246        2.0299  -21.2270  -54.3984 H         1 UNK         0.0800 
    247 H247        1.7784  -19.7116  -55.2080 H         1 UNK         0.0800 
@<TRIPOS>BOND
     1    1    2 1    
     2    1  127 1    
     3    1  128 1    
     4    1  129 1    
     5    2    3 2    
     6    2    4 am   BACKBONE|DICT|INTERRES
     7    4    5 1    
     8    4  130 1    
     9    5    6 1    
    10    5   65 1    
    11    5  131 1    
    12    6    7 1    
    13    6  132 1    
    14    6  133 1    
    15    7    8 1    
    16    8    9 1    
    17    8  134 1    
    18    8  135 1    
    19    9   10 ar   
    20    9   14 ar   
    21   10   11 ar   
    22   10  136 1    
    23   11   12 ar   
    24   11  126 1    
    25   12   13 ar   
    26   12  137 1    
    27   13   14 ar   
    28   13   15 1    
    29   14  138 1    
    30   15   16 1    
    31   15  139 1    
    32   15  140 1    
    33   16   17 1    
    34   17   18 1    
    35   17  141 1    
    36   17  142 1    
    37   18   19 1    
    38   18   67 1    
    39   18  143 1    
    40   19   20 am   BACKBONE|DICT|INTERRES
    41   19  144 1    
    42   20   21 2    
    43   20   22 1    
    44   22   23 1    
    45   22   24 1    
    46   22  145 1    
    47   23  146 1    
    48   23  147 1    
    49   23  148 1    
    50   24   25 am   BACKBONE|DICT|INTERRES
    51   24  149 1    
    52   25   26 2    
    53   25   27 1    
    54   27   28 1    
    55   27   29 1    
    56   27  150 1    
    57   28  151 1    
    58   28  152 1    
    59   28  153 1    
    60   29   30 am   BACKBONE|DICT|INTERRES
    61   29  154 1    
    62   30   31 2    
    63   30   32 1    
    64   32   33 1    
    65   32   34 1    
    66   32  155 1    
    67   33  156 1    
    68   33  157 1    
    69   33  158 1    
    70   34   35 am   BACKBONE|DICT|INTERRES
    71   34  159 1    
    72   35   36 2    
    73   35   37 1    
    74   37   38 1    
    75   37   39 1    
    76   37  160 1    
    77   38  161 1    
    78   38  162 1    
    79   38  163 1    
    80   39   40 am   BACKBONE|DICT|INTERRES
    81   39  164 1    
    82   40   41 2    
    83   40   42 1    
    84   42   43 1    
    85   42   44 1    
    86   42  165 1    
    87   43  166 1    
    88   43  167 1    
    89   43  168 1    
    90   44   45 am   BACKBONE|DICT|INTERRES
    91   44  169 1    
    92   45   46 2    
    93   45   47 1    
    94   47   48 1    
    95   47   49 1    
    96   47  170 1    
    97   48  171 1    
    98   48  172 1    
    99   48  173 1    
   100   49   50 am   BACKBONE|DICT|INTERRES
   101   49  174 1    
   102   50   51 2    
   103   50   52 1    
   104   52   53 1    
   105   52   54 1    
   106   52  175 1    
   107   53  176 1    
   108   53  177 1    
   109   53  178 1    
   110   54   55 am   BACKBONE|DICT|INTERRES
   111   54  179 1    
   112   55   56 2    
   113   55   57 1    
   114   57   58 1    
   115   57   59 1    
   116   57  180 1    
   117   58  181 1    
   118   58  182 1    
   119   58  183 1    
   120   59   60 am   BACKBONE|DICT|INTERRES
   121   59  184 1    
   122   60   61 2    
   123   60   62 1    
   124   62   63 1    
   125   62   64 1    
   126   62  185 1    
   127   63  186 1    
   128   63  187 1    
   129   63  188 1    
   130   64   65 am   BACKBONE|DICT|INTERRES
   131   64  189 1    
   132   65   66 2    
   133   67   68 2    
   134   67   69 am   BACKBONE|DICT|INTERRES
   135   69   70 1    
   136   69  190 1    
   137   70   71 1    
   138   70   72 1    
   139   70  191 1    
   140   71  192 1    
   141   71  193 1    
   142   71  194 1    
   143   72   73 2    
   144   72   74 am   BACKBONE|DICT|INTERRES
   145   74   75 1    
   146   74  195 1    
   147   75   76 1    
   148   75   77 1    
   149   75  196 1    
   150   76  197 1    
   151   76  198 1    
   152   76  199 1    
   153   77   78 2    
   154   77   79 am   BACKBONE|DICT|INTERRES
   155   79   80 1    
   156   79  200 1    
   157   80   81 1    
   158   80   82 1    
   159   80  201 1    
   160   81  202 1    
   161   81  203 1    
   162   81  204 1    
   163   82   83 2    
   164   82   84 am   BACKBONE|DICT|INTERRES
   165   84   85 1    
   166   84  205 1    
   167   85   86 1    
   168   85   87 1    
   169   85  206 1    
   170   86  207 1    
   171   86  208 1    
   172   86  209 1    
   173   87   88 2    
   174   87   89 am   BACKBONE|DICT|INTERRES
   175   89   90 1    
   176   89  210 1    
   177   90   91 1    
   178   90   92 1    
   179   90  211 1    
   180   91  212 1    
   181   91  213 1    
   182   91  214 1    
   183   92   93 2    
   184   92   94 am   BACKBONE|DICT|INTERRES
   185   94   95 1    
   186   94  215 1    
   187   95   96 1    
   188   95   97 1    
   189   95  216 1    
   190   96  217 1    
   191   96  218 1    
   192   96  219 1    
   193   97   98 2    
   194   97   99 am   BACKBONE|DICT|INTERRES
   195   99  100 1    
   196   99  220 1    
   197  100  101 1    
   198  100  102 1    
   199  100  221 1    
   200  101  222 1    
   201  101  223 1    
   202  101  224 1    
   203  102  103 2    
   204  102  104 am   BACKBONE|DICT|INTERRES
   205  104  105 1    
   206  104  225 1    
   207  105  106 1    
   208  105  107 1    
   209  105  226 1    
   210  106  227 1    
   211  106  228 1    
   212  106  229 1    
   213  107  108 2    
   214  107  109 am   BACKBONE|DICT|INTERRES
   215  109  110 1    
   216  109  230 1    
   217  110  111 1    
   218  110  112 1    
   219  110  231 1    
   220  111  232 1    
   221  111  233 1    
   222  111  234 1    
   223  112  113 2    
   224  112  114 am   BACKBONE|DICT|INTERRES
   225  114  115 1    
   226  114  235 1    
   227  115  116 1    
   228  115  117 1    
   229  115  236 1    
   230  116  237 1    
   231  116  238 1    
   232  116  239 1    
   233  117  118 2    
   234  117  119 am   BACKBONE|DICT|INTERRES
   235  119  120 1    
   236  119  240 1    
   237  120  121 1    
   238  120  124 1    
   239  120  241 1    
   240  121  122 am   BACKBONE|DICT|INTERRES
   241  121  123 2    
   242  122  242 1    
   243  122  243 1    
   244  124  125 1    
   245  124  244 1    
   246  124  245 1    
   247  125  126 1    
   248  126  246 1    
   249  126  247 1    
@<TRIPOS>SUBSTRUCTURE
     1 UNK         1 GROUP             0       ****    0 ROOT    
