@<TRIPOS>MOLECULE
3R540
247   249    1
SMALL
USER_CHARGES


@<TRIPOS>ATOM
      1 CA          2.7981  -11.6883  -53.8208 C.3       0 UNK        -0.1800 
      2 C           2.6838  -12.0794  -52.3541 C.2       0 UNK         0.5000 
      3 O           2.2983  -11.2521  -51.5278 O.2       0 UNK        -0.5000 
      4 N           3.0223  -13.3330  -52.0282 N.am      1 UNK        -0.5000 
      5 CA          2.9000  -13.9181  -50.6908 C.3       1 UNK         0.1400 
      6 C6          3.7802  -15.1892  -50.5542 C.3       23 UNK        -0.0398 
      7 S7          4.4474  -15.4393  -48.8729 S.3       23 UNK        -0.2404 
      8 C8          3.1776  -16.4615  -48.0644 C.3       23 UNK        -0.0205 
      9 C9          3.0354  -17.8445  -48.6770 C.ar      23 UNK        -0.0193 
     10 C10         2.0502  -18.0814  -49.6379 C.ar      23 UNK        -0.1150 
     11 C11         1.8851  -19.3499  -50.1926 C.ar      23 UNK        -0.0193 
     12 C12         2.7054  -20.3972  -49.7651 C.ar      23 UNK        -0.1150 
     13 C13         3.6853  -20.1792  -48.7898 C.ar      23 UNK        -0.0193 
     14 C14         3.8522  -18.8976  -48.2555 C.ar      23 UNK        -0.1150 
     15 C15         4.5527  -21.3336  -48.3053 C.3       23 UNK        -0.0205 
     16 S16         4.0570  -21.9267  -46.6537 S.3       23 UNK        -0.2404 
     17 C17         2.2795  -22.2388  -46.9080 C.3       23 UNK        -0.0398 
     18 CA          1.6650  -23.2379  -45.9020 C.3       11 UNK         0.1400 
     19 N           1.8519  -22.8176  -44.5116 N.am      11 UNK        -0.5000 
     20 C           1.7454  -23.6027  -43.4331 C.2       10 UNK         0.5000 
     21 O           1.5348  -24.8147  -43.4989 O.2       10 UNK        -0.5000 
     22 CA          1.8322  -22.9045  -42.0571 C.3       10 UNK         0.1400 
     23 CB          2.4362  -23.8068  -40.9614 C.3       10 UNK        -0.1800 
     24 N           2.4915  -21.5929  -42.1029 N.am      10 UNK        -0.5000 
     25 C           3.7809  -21.3221  -42.3573 C.2       9 UNK         0.5000 
     26 O           4.6431  -22.1849  -42.5258 O.2       9 UNK        -0.5000 
     27 CA          4.1805  -19.8345  -42.4656 C.3       9 UNK         0.1400 
     28 CB          4.5218  -19.4772  -43.9212 C.3       9 UNK        -0.1800 
     29 N           3.1492  -18.9082  -41.9927 N.am      9 UNK        -0.5000 
     30 C           2.8541  -18.6628  -40.7095 C.2       8 UNK         0.5000 
     31 O           3.4526  -19.1701  -39.7605 O.2       8 UNK        -0.5000 
     32 CA          1.6651  -17.7168  -40.4454 C.3       8 UNK         0.1400 
     33 CB          2.1097  -16.2471  -40.4929 C.3       8 UNK        -0.1800 
     34 N           0.5578  -17.9236  -41.3829 N.am      8 UNK        -0.5000 
     35 C          -0.1908  -19.0346  -41.4343 C.2       7 UNK         0.5000 
     36 O          -0.0488  -19.9914  -40.6730 O.2       7 UNK        -0.5000 
     37 CA         -1.2393  -19.1177  -42.5564 C.3       7 UNK         0.1400 
     38 CB         -2.5240  -18.3675  -42.1773 C.3       7 UNK        -0.1800 
     39 N          -0.7351  -18.6189  -43.8351 N.am      7 UNK        -0.5000 
     40 C           0.2501  -19.1922  -44.5393 C.2       6 UNK         0.5000 
     41 O           0.7875  -20.2500  -44.2189 O.2       6 UNK        -0.5000 
     42 CA          0.7375  -18.4490  -45.7939 C.3       6 UNK         0.1400 
     43 CB         -0.1693  -18.7814  -46.9885 C.3       6 UNK        -0.1800 
     44 N           0.7973  -16.9997  -45.5901 N.am      6 UNK        -0.5000 
     45 C           1.5728  -16.3871  -44.6827 C.2       5 UNK         0.5000 
     46 O           2.3739  -16.9795  -43.9629 O.2       5 UNK        -0.5000 
     47 CA          1.3822  -14.8714  -44.5034 C.3       5 UNK         0.1400 
     48 CB          2.2725  -14.0681  -45.4640 C.3       5 UNK        -0.1800 
     49 N          -0.0165  -14.4837  -44.6769 N.am      5 UNK        -0.5000 
     50 C          -0.9758  -14.7153  -43.7699 C.2       4 UNK         0.5000 
     51 O          -0.7611  -15.2112  -42.6632 O.2       4 UNK        -0.5000 
     52 CA         -2.4192  -14.3761  -44.1908 C.3       4 UNK         0.1400 
     53 CB         -2.7127  -12.8852  -43.9671 C.3       4 UNK        -0.1800 
     54 N          -2.6910  -14.7187  -45.5891 N.am      4 UNK        -0.5000 
     55 C          -2.7302  -15.9713  -46.0656 C.2       3 UNK         0.5000 
     56 O          -2.6175  -16.9681  -45.3538 O.2       3 UNK        -0.5000 
     57 CA         -2.8669  -16.1419  -47.5936 C.3       3 UNK         0.1400 
     58 CB         -4.3407  -16.3108  -47.9909 C.3       3 UNK        -0.1800 
     59 N          -2.2767  -15.0494  -48.3729 N.am      3 UNK        -0.5000 
     60 C          -0.9940  -14.6719  -48.3342 C.2       2 UNK         0.5000 
     61 O          -0.1547  -15.2023  -47.6069 O.2       2 UNK        -0.5000 
     62 CA         -0.6161  -13.4442  -49.1806 C.3       2 UNK         0.1400 
     63 CB         -0.9845  -12.1568  -48.4269 C.3       2 UNK        -0.1800 
     64 N           0.8094  -13.3992  -49.5067 N.am      2 UNK        -0.5000 
     65 C           1.4075  -14.1912  -50.4041 C.2       1 UNK         0.5000 
     66 O           0.8186  -15.0652  -51.0422 O.2       1 UNK        -0.5000 
     67 C           0.1705  -23.4219  -46.2320 C.2       11 UNK         0.5000 
     68 O          -0.1572  -24.1897  -47.1361 O.2       11 UNK        -0.5000 
     69 N          -0.7131  -22.7299  -45.4943 N.am      12 UNK        -0.5000 
     70 CA         -2.1689  -22.7297  -45.6785 C.3       12 UNK         0.1400 
     71 CB         -2.8069  -21.7545  -44.6805 C.3       12 UNK        -0.1800 
     72 C          -2.8366  -24.1173  -45.5777 C.2       12 UNK         0.5000 
     73 O          -3.9137  -24.3089  -46.1401 O.2       12 UNK        -0.5000 
     74 N          -2.1805  -25.0620  -44.8899 N.am      13 UNK        -0.5000 
     75 CA         -2.5868  -26.4649  -44.8055 C.3       13 UNK         0.1400 
     76 CB         -1.8090  -27.1358  -43.6629 C.3       13 UNK        -0.1800 
     77 C          -2.3800  -27.2385  -46.1248 C.2       13 UNK         0.5000 
     78 O          -3.1082  -28.1992  -46.3772 O.2       13 UNK        -0.5000 
     79 N          -1.3962  -26.8188  -46.9326 N.am      14 UNK        -0.5000 
     80 CA         -1.0707  -27.4077  -48.2327 C.3       14 UNK         0.1400 
     81 CB          0.4577  -27.4392  -48.3922 C.3       14 UNK        -0.1800 
     82 C          -1.7135  -26.6320  -49.3974 C.2       14 UNK         0.5000 
     83 O          -1.9395  -27.2174  -50.4576 O.2       14 UNK        -0.5000 
     84 N          -1.9813  -25.3351  -49.1905 N.am      15 UNK        -0.5000 
     85 CA         -2.6099  -24.4254  -50.1483 C.3       15 UNK         0.1400 
     86 CB         -2.6423  -23.0164  -49.5382 C.3       15 UNK        -0.1800 
     87 C          -4.0384  -24.8469  -50.5419 C.2       15 UNK         0.5000 
     88 O          -4.7594  -25.4353  -49.7326 O.2       15 UNK        -0.5000 
     89 N          -4.4344  -24.4896  -51.7699 N.am      16 UNK        -0.5000 
     90 CA         -5.7829  -24.7112  -52.2960 C.3       16 UNK         0.1400 
     91 CB         -5.7483  -24.5722  -53.8265 C.3       16 UNK        -0.1800 
     92 C          -6.8267  -23.7460  -51.7017 C.2       16 UNK         0.5000 
     93 O          -8.0067  -24.0946  -51.6521 O.2       16 UNK        -0.5000 
     94 N          -6.3723  -22.5491  -51.2951 N.am      17 UNK        -0.5000 
     95 CA         -7.1682  -21.3934  -50.8620 C.3       17 UNK         0.1400 
     96 CB         -7.9060  -21.6871  -49.5396 C.3       17 UNK        -0.1800 
     97 C          -8.0971  -20.8829  -51.9855 C.2       17 UNK         0.5000 
     98 O          -9.2372  -20.4907  -51.7311 O.2       17 UNK        -0.5000 
     99 N          -7.5827  -20.9222  -53.2214 N.am      18 UNK        -0.5000 
    100 CA        -8.2937  -20.5593  -54.4463 C.3       18 UNK         0.1400 
    101 CB        -7.6255  -21.2823  -55.6262 C.3       18 UNK        -0.1800 
    102 C         -8.3287  -19.0400  -54.6939 C.2       18 UNK         0.5000 
    103 O         -9.1614  -18.5733  -55.4725 O.2       18 UNK        -0.5000 
    104 N         -7.4286  -18.2995  -54.0401 N.am      19 UNK        -0.5000 
    105 CA        -7.2869  -16.8524  -54.1199 C.3       19 UNK         0.1400 
    106 CB        -6.4598  -16.4807  -55.3666 C.3       19 UNK        -0.1800 
    107 C         -6.6252  -16.3453  -52.8300 C.2       19 UNK         0.5000 
    108 O         -6.2240  -17.1454  -51.9796 O.2       19 UNK        -0.5000 
    109 N         -6.4905  -15.0170  -52.7264 N.am      20 UNK        -0.5000 
    110 CA        -5.8741  -14.3009  -51.6037 C.3       20 UNK         0.1400 
    111 CB        -6.2052  -12.8058  -51.7352 C.3       20 UNK        -0.1800 
    112 C         -4.3500  -14.5067  -51.4628 C.2       20 UNK         0.5000 
    113 O         -3.7764  -14.0474  -50.4760 O.2       20 UNK        -0.5000 
    114 N         -3.7263  -15.1884  -52.4293 N.am      21 UNK        -0.5000 
    115 CA        -2.3266  -15.6028  -52.4333 C.3       21 UNK         0.1400 
    116 CB        -1.5378  -14.7130  -53.4114 C.3       21 UNK        -0.1800 
    117 C         -2.2723  -17.0991  -52.7877 C.2       21 UNK         0.5000 
    118 O         -1.7084  -17.4797  -53.8144 O.2       21 UNK        -0.5000 
    119 N         -2.9427  -17.9130  -51.9620 N.am      22 UNK        -0.5000 
    120 CA        -3.1195  -19.3772  -52.0620 C.3       22 UNK         0.1400 
    121 C         -4.0012  -19.8696  -53.2457 C.2       22 UNK         0.5000 
    122 N         -4.0536  -19.1733  -54.3711 N.am      22 UNK        -0.7600 
    123 O         -4.6627  -20.8978  -53.1278 O.2       22 UNK        -0.5000 
    124 C124       -1.7905  -20.1787  -52.0302 C.3       23 UNK        -0.0398 
    125 S125       -0.8068  -19.8878  -50.5213 S.3       23 UNK        -0.2404 
    126 C126        0.8256  -19.5759  -51.2576 C.3       23 UNK        -0.0205 
    127 H127        1.8241  -11.3847  -54.2046 H         1 UNK         0.0600 
    128 H128        3.1629  -12.5130  -54.4337 H         1 UNK         0.0600 
    129 H129        3.4865  -10.8507  -53.9334 H         1 UNK         0.0600 
    130 H130        3.2999  -13.9714  -52.7600 H         1 UNK         0.3000 
    131 H131        3.2650  -13.1747  -49.9782 H         1 UNK         0.0600 
    132 H132        3.2803  -16.0841  -50.9226 H         1 UNK         0.0800 
    133 H133        4.6607  -15.0874  -51.1902 H         1 UNK         0.0800 
    134 H134        2.2228  -15.9407  -48.0963 H         1 UNK         0.0800 
    135 H135        3.4356  -16.5608  -47.0097 H         1 UNK         0.0800 
    136 H136        1.3983  -17.2793  -49.9499 H         1 UNK         0.1150 
    137 H137        2.5732  -21.3842  -50.1855 H         1 UNK         0.1150 
    138 H138        4.6046  -18.7255  -47.4985 H         1 UNK         0.1150 
    139 H139        4.5130  -22.1658  -49.0099 H         1 UNK         0.0800 
    140 H140        5.5951  -21.0144  -48.2692 H         1 UNK         0.0800 
    141 H141        2.1403  -22.6094  -47.9254 H         1 UNK         0.0800 
    142 H142        1.7675  -21.2774  -46.8565 H         1 UNK         0.0800 
    143 H143        2.1536  -24.2050  -46.0377 H         1 UNK         0.0600 
    144 H144        1.9352  -21.8178  -44.3586 H         1 UNK         0.3000 
    145 H145        0.8003  -22.6975  -41.7702 H         1 UNK         0.0600 
    146 H146        2.4876  -23.2854  -40.0055 H         1 UNK         0.0600 
    147 H147        1.8267  -24.6985  -40.8108 H         1 UNK         0.0600 
    148 H148        3.4415  -24.1417  -41.2174 H         1 UNK         0.0600 
    149 H149        1.8705  -20.8004  -42.0062 H         1 UNK         0.3000 
    150 H150        5.0776  -19.6926  -41.8598 H         1 UNK         0.0600 
    151 H151        5.3135  -20.1189  -44.3099 H         1 UNK         0.0600 
    152 H152        4.8688  -18.4472  -44.0049 H         1 UNK         0.0600 
    153 H153        3.6561  -19.5914  -44.5746 H         1 UNK         0.0600 
    154 H154        2.6593  -18.3792  -42.7099 H         1 UNK         0.3000 
    155 H155        1.2940  -17.9241  -39.4395 H         1 UNK         0.0600 
    156 H156        2.8907  -16.0533  -39.7567 H         1 UNK         0.0600 
    157 H157        1.2794  -15.5760  -40.2719 H         1 UNK         0.0600 
    158 H158        2.5080  -15.9754  -41.4704 H         1 UNK         0.0600 
    159 H159        0.3657  -17.1767  -42.0381 H         1 UNK         0.3000 
    160 H160       -1.4896  -20.1715  -42.6802 H         1 UNK         0.0600 
    161 H161       -2.3480  -17.2989  -42.0549 H         1 UNK         0.0600 
    162 H162       -2.9333  -18.7433  -41.2388 H         1 UNK         0.0600 
    163 H163       -3.2916  -18.4938  -42.9412 H         1 UNK         0.0600 
    164 H164       -1.1904  -17.7966  -44.2181 H         1 UNK         0.3000 
    165 H165        1.7493  -18.7880  -46.0240 H         1 UNK         0.0600 
    166 H166       -0.0071  -18.0984  -47.8210 H         1 UNK         0.0600 
    167 H167        0.0225  -19.7900  -47.3540 H         1 UNK         0.0600 
    168 H168       -1.2251  -18.7384  -46.7246 H         1 UNK         0.0600 
    169 H169        0.2242  -16.4229  -46.1991 H         1 UNK         0.3000 
    170 H170        1.6875  -14.6220  -43.4849 H         1 UNK         0.0600 
    171 H171        3.3165  -14.3719  -45.3758 H         1 UNK         0.0600 
    172 H172        1.9797  -14.1996  -46.5043 H         1 UNK         0.0600 
    173 H173        2.2251  -13.0024  -45.2403 H         1 UNK         0.0600 
    174 H174       -0.2797  -14.1517  -45.5938 H         1 UNK         0.3000 
    175 H175       -3.0951  -14.9568  -43.5592 H         1 UNK         0.0600 
    176 H176       -2.5328  -12.6042  -42.9285 H         1 UNK         0.0600 
    177 H177       -2.0835  -12.2508  -44.5928 H         1 UNK         0.0600 
    178 H178       -3.7536  -12.6508  -44.1904 H         1 UNK         0.0600 
    179 H179       -2.8032  -13.9540  -46.2377 H         1 UNK         0.3000 
    180 H180       -2.3403  -17.0552  -47.8714 H         1 UNK         0.0600 
    181 H181       -4.9131  -15.4007  -47.8072 H         1 UNK         0.0600 
    182 H182       -4.8098  -17.1160  -47.4238 H         1 UNK         0.0600 
    183 H183       -4.4390  -16.5613  -49.0472 H         1 UNK         0.0600 
    184 H184       -2.8999  -14.5727  -49.0241 H         1 UNK         0.3000 
    185 H185       -1.1793  -13.4754  -50.1151 H         1 UNK         0.0600 
    186 H186       -2.0526  -12.1215  -48.2079 H         1 UNK         0.0600 
    187 H187       -0.4504  -12.0768  -47.4790 H         1 UNK         0.0600 
    188 H188       -0.7497  -11.2727  -49.0201 H         1 UNK         0.0600 
    189 H189        1.3554  -12.6946  -49.0336 H         1 UNK         0.3000 
    190 H190       -0.3455  -22.1031  -44.7899 H         1 UNK         0.3000 
    191 H191       -2.3616  -22.3484  -46.6811 H         1 UNK         0.0600 
    192 H192       -2.5885  -22.0365  -43.6502 H         1 UNK         0.0600 
    193 H193       -3.8919  -21.7335  -44.7912 H         1 UNK         0.0600 
    194 H194       -2.4517  -20.7377  -44.8446 H         1 UNK         0.0600 
    195 H195       -1.3030  -24.8172  -44.4544 H         1 UNK         0.3000 
    196 H196       -3.6510  -26.5016  -44.5629 H         1 UNK         0.0600 
    197 H197       -2.0969  -28.1825  -43.5554 H         1 UNK         0.0600 
    198 H198       -2.0072  -26.6457  -42.7095 H         1 UNK         0.0600 
    199 H199       -0.7325  -27.1069  -43.8376 H         1 UNK         0.0600 
    200 H200       -0.8718  -25.9888  -46.6796 H         1 UNK         0.3000 
    201 H201       -1.4343  -28.4364  -48.2791 H         1 UNK         0.0600 
    202 H202        0.9246  -28.0208  -47.5972 H         1 UNK         0.0600 
    203 H203        0.8874  -26.4369  -48.3709 H         1 UNK         0.0600 
    204 H204        0.7419  -27.8978  -49.3402 H         1 UNK         0.0600 
    205 H205       -1.7011  -24.9315  -48.3061 H         1 UNK         0.3000 
    206 H206       -1.9867  -24.4080  -51.0446 H         1 UNK         0.0600 
    207 H207       -1.6467  -22.6834  -49.2431 H         1 UNK         0.0600 
    208 H208       -3.0350  -22.2888  -50.2477 H         1 UNK         0.0600 
    209 H209       -3.2884  -22.9836  -48.6612 H         1 UNK         0.0600 
    210 H210       -3.7884  -24.0096  -52.3800 H         1 UNK         0.3000 
    211 H211       -6.0917  -25.7298  -52.0511 H         1 UNK         0.0600 
    212 H212       -6.7343  -24.7508  -54.2574 H         1 UNK         0.0600 
    213 H213       -5.0641  -25.2936  -54.2733 H         1 UNK         0.0600 
    214 H214       -5.4332  -23.5739  -54.1339 H         1 UNK         0.0600 
    215 H215       -5.3922  -22.3579  -51.4503 H         1 UNK         0.3000 
    216 H216       -6.4577  -20.5882  -50.6695 H         1 UNK         0.0600 
    217 H217       -8.3785  -20.7851  -49.1491 H         1 UNK         0.0600 
    218 H218       -7.2166  -22.0486  -48.7765 H         1 UNK         0.0600 
    219 H219       -8.6885  -22.4355  -49.6667 H         1 UNK         0.0600 
    220 H220       -6.6106  -21.1986  -53.3232 H         1 UNK         0.3000 
    221 H221       -9.3264  -20.9066  -54.3721 H         1 UNK         0.0600 
    222 H222       -6.5812  -20.9886  -55.7384 H         1 UNK         0.0600 
    223 H223       -7.6564  -22.3640  -55.4930 H         1 UNK         0.0600 
    224 H224       -8.1344  -21.0563  -56.5641 H         1 UNK         0.0600 
    225 H225       -6.8138  -18.7428  -53.3695 H         1 UNK         0.3000 
    226 H226       -8.2770  -16.3967  -54.1869 H         1 UNK         0.0600 
    227 H227       -6.9174  -16.8705  -56.2760 H         1 UNK         0.0600 
    228 H228       -6.3842  -15.3998  -55.4882 H         1 UNK         0.0600 
    229 H229       -5.4458  -16.8768  -55.3096 H         1 UNK         0.0600 
    230 H230       -6.8403  -14.4371  -53.4758 H         1 UNK         0.3000 
    231 H231       -6.3277  -14.6701  -50.6816 H         1 UNK         0.0600 
    232 H232       -7.2824  -12.6396  -51.7534 H         1 UNK         0.0600 
    233 H233       -5.7828  -12.3796  -52.6461 H         1 UNK         0.0600 
    234 H234       -5.8069  -12.2387  -50.8927 H         1 UNK         0.0600 
    235 H235       -4.2891  -15.5414  -53.1892 H         1 UNK         0.3000 
    236 H236       -1.8897  -15.4985  -51.4385 H         1 UNK         0.0600 
    237 H237       -0.4928  -15.0207  -53.4643 H         1 UNK         0.0600 
    238 H238       -1.9477  -14.7600  -54.4208 H         1 UNK         0.0600 
    239 H239       -1.5524  -13.6715  -53.0902 H         1 UNK         0.0600 
    240 H240       -3.4428  -17.4844  -51.1974 H         1 UNK         0.3000 
    241 H241       -3.6767  -19.6481  -51.1641 H         1 UNK         0.0600 
    242 H242       -4.6056  -19.5047  -55.1441 H         1 UNK         0.3800 
    243 H243       -3.4157  -18.3971  -54.4921 H         1 UNK         0.3800 
    244 H244       -1.9853  -21.2506  -52.0856 H         1 UNK         0.0800 
    245 H245       -1.1924  -19.9462  -52.9124 H         1 UNK         0.0800 
    246 H246        1.1053  -20.4190  -51.8912 H         1 UNK         0.0800 
    247 H247        0.7659  -18.7027  -51.9099 H         1 UNK         0.0800 
@<TRIPOS>BOND
     1    1    2 1    
     2    1  127 1    
     3    1  128 1    
     4    1  129 1    
     5    2    3 2    
     6    2    4 am   BACKBONE|DICT|INTERRES
     7    4    5 1    
     8    4  130 1    
     9    5    6 1    
    10    5   65 1    
    11    5  131 1    
    12    6    7 1    
    13    6  132 1    
    14    6  133 1    
    15    7    8 1    
    16    8    9 1    
    17    8  134 1    
    18    8  135 1    
    19    9   10 ar   
    20    9   14 ar   
    21   10   11 ar   
    22   10  136 1    
    23   11   12 ar   
    24   11  126 1    
    25   12   13 ar   
    26   12  137 1    
    27   13   14 ar   
    28   13   15 1    
    29   14  138 1    
    30   15   16 1    
    31   15  139 1    
    32   15  140 1    
    33   16   17 1    
    34   17   18 1    
    35   17  141 1    
    36   17  142 1    
    37   18   19 1    
    38   18   67 1    
    39   18  143 1    
    40   19   20 am   BACKBONE|DICT|INTERRES
    41   19  144 1    
    42   20   21 2    
    43   20   22 1    
    44   22   23 1    
    45   22   24 1    
    46   22  145 1    
    47   23  146 1    
    48   23  147 1    
    49   23  148 1    
    50   24   25 am   BACKBONE|DICT|INTERRES
    51   24  149 1    
    52   25   26 2    
    53   25   27 1    
    54   27   28 1    
    55   27   29 1    
    56   27  150 1    
    57   28  151 1    
    58   28  152 1    
    59   28  153 1    
    60   29   30 am   BACKBONE|DICT|INTERRES
    61   29  154 1    
    62   30   31 2    
    63   30   32 1    
    64   32   33 1    
    65   32   34 1    
    66   32  155 1    
    67   33  156 1    
    68   33  157 1    
    69   33  158 1    
    70   34   35 am   BACKBONE|DICT|INTERRES
    71   34  159 1    
    72   35   36 2    
    73   35   37 1    
    74   37   38 1    
    75   37   39 1    
    76   37  160 1    
    77   38  161 1    
    78   38  162 1    
    79   38  163 1    
    80   39   40 am   BACKBONE|DICT|INTERRES
    81   39  164 1    
    82   40   41 2    
    83   40   42 1    
    84   42   43 1    
    85   42   44 1    
    86   42  165 1    
    87   43  166 1    
    88   43  167 1    
    89   43  168 1    
    90   44   45 am   BACKBONE|DICT|INTERRES
    91   44  169 1    
    92   45   46 2    
    93   45   47 1    
    94   47   48 1    
    95   47   49 1    
    96   47  170 1    
    97   48  171 1    
    98   48  172 1    
    99   48  173 1    
   100   49   50 am   BACKBONE|DICT|INTERRES
   101   49  174 1    
   102   50   51 2    
   103   50   52 1    
   104   52   53 1    
   105   52   54 1    
   106   52  175 1    
   107   53  176 1    
   108   53  177 1    
   109   53  178 1    
   110   54   55 am   BACKBONE|DICT|INTERRES
   111   54  179 1    
   112   55   56 2    
   113   55   57 1    
   114   57   58 1    
   115   57   59 1    
   116   57  180 1    
   117   58  181 1    
   118   58  182 1    
   119   58  183 1    
   120   59   60 am   BACKBONE|DICT|INTERRES
   121   59  184 1    
   122   60   61 2    
   123   60   62 1    
   124   62   63 1    
   125   62   64 1    
   126   62  185 1    
   127   63  186 1    
   128   63  187 1    
   129   63  188 1    
   130   64   65 am   BACKBONE|DICT|INTERRES
   131   64  189 1    
   132   65   66 2    
   133   67   68 2    
   134   67   69 am   BACKBONE|DICT|INTERRES
   135   69   70 1    
   136   69  190 1    
   137   70   71 1    
   138   70   72 1    
   139   70  191 1    
   140   71  192 1    
   141   71  193 1    
   142   71  194 1    
   143   72   73 2    
   144   72   74 am   BACKBONE|DICT|INTERRES
   145   74   75 1    
   146   74  195 1    
   147   75   76 1    
   148   75   77 1    
   149   75  196 1    
   150   76  197 1    
   151   76  198 1    
   152   76  199 1    
   153   77   78 2    
   154   77   79 am   BACKBONE|DICT|INTERRES
   155   79   80 1    
   156   79  200 1    
   157   80   81 1    
   158   80   82 1    
   159   80  201 1    
   160   81  202 1    
   161   81  203 1    
   162   81  204 1    
   163   82   83 2    
   164   82   84 am   BACKBONE|DICT|INTERRES
   165   84   85 1    
   166   84  205 1    
   167   85   86 1    
   168   85   87 1    
   169   85  206 1    
   170   86  207 1    
   171   86  208 1    
   172   86  209 1    
   173   87   88 2    
   174   87   89 am   BACKBONE|DICT|INTERRES
   175   89   90 1    
   176   89  210 1    
   177   90   91 1    
   178   90   92 1    
   179   90  211 1    
   180   91  212 1    
   181   91  213 1    
   182   91  214 1    
   183   92   93 2    
   184   92   94 am   BACKBONE|DICT|INTERRES
   185   94   95 1    
   186   94  215 1    
   187   95   96 1    
   188   95   97 1    
   189   95  216 1    
   190   96  217 1    
   191   96  218 1    
   192   96  219 1    
   193   97   98 2    
   194   97   99 am   BACKBONE|DICT|INTERRES
   195   99  100 1    
   196   99  220 1    
   197  100  101 1    
   198  100  102 1    
   199  100  221 1    
   200  101  222 1    
   201  101  223 1    
   202  101  224 1    
   203  102  103 2    
   204  102  104 am   BACKBONE|DICT|INTERRES
   205  104  105 1    
   206  104  225 1    
   207  105  106 1    
   208  105  107 1    
   209  105  226 1    
   210  106  227 1    
   211  106  228 1    
   212  106  229 1    
   213  107  108 2    
   214  107  109 am   BACKBONE|DICT|INTERRES
   215  109  110 1    
   216  109  230 1    
   217  110  111 1    
   218  110  112 1    
   219  110  231 1    
   220  111  232 1    
   221  111  233 1    
   222  111  234 1    
   223  112  113 2    
   224  112  114 am   BACKBONE|DICT|INTERRES
   225  114  115 1    
   226  114  235 1    
   227  115  116 1    
   228  115  117 1    
   229  115  236 1    
   230  116  237 1    
   231  116  238 1    
   232  116  239 1    
   233  117  118 2    
   234  117  119 am   BACKBONE|DICT|INTERRES
   235  119  120 1    
   236  119  240 1    
   237  120  121 1    
   238  120  124 1    
   239  120  241 1    
   240  121  122 am   BACKBONE|DICT|INTERRES
   241  121  123 2    
   242  122  242 1    
   243  122  243 1    
   244  124  125 1    
   245  124  244 1    
   246  124  245 1    
   247  125  126 1    
   248  126  246 1    
   249  126  247 1    
@<TRIPOS>SUBSTRUCTURE
     1 UNK         1 GROUP             0       ****    0 ROOT    
