@<TRIPOS>MOLECULE
3R540
247   249    1
SMALL
USER_CHARGES


@<TRIPOS>ATOM
      1 CA          3.8421  -10.8359  -46.3692 C.3       0 UNK        -0.1800 
      2 C           3.3426  -10.9646  -47.8012 C.2       0 UNK         0.5000 
      3 O           3.9829  -10.4603  -48.7238 O.2       0 UNK        -0.5000 
      4 N           2.1990  -11.6333  -47.9851 N.am      1 UNK        -0.5000 
      5 CA          1.6176  -11.9620  -49.2893 C.3       1 UNK         0.1400 
      6 C6          0.0989  -12.2253  -49.1543 C.3       23 UNK        -0.0398 
      7 S7         -0.7815  -12.1749  -50.7517 S.3       23 UNK        -0.2404 
      8 C8         -2.2026  -13.2669  -50.4248 C.3       23 UNK        -0.0205 
      9 C9         -1.7822  -14.7071  -50.1689 C.ar      23 UNK        -0.0193 
     10 C10        -1.2488  -15.4785  -51.2058 C.ar      23 UNK        -0.1150 
     11 C11        -0.8507  -16.7981  -50.9757 C.ar      23 UNK        -0.0193 
     12 C12        -1.0085  -17.3517  -49.7028 C.ar      23 UNK        -0.1150 
     13 C13        -1.5410  -16.5903  -48.6585 C.ar      23 UNK        -0.0193 
     14 C14        -1.9265  -15.2685  -48.8962 C.ar      23 UNK        -0.1150 
     15 C15        -1.6923  -17.2046  -47.2782 C.3       23 UNK        -0.0205 
     16 S16        -0.0678  -17.4169  -46.4899 S.3       23 UNK        -0.2404 
     17 C17        -0.4706  -18.5398  -45.1151 C.3       23 UNK        -0.0398 
     18 CA         -0.2217  -20.0210  -45.4855 C.3       11 UNK         0.1400 
     19 N           0.2624  -20.8120  -44.3550 N.am      11 UNK        -0.5000 
     20 C           0.9278  -21.9675  -44.4902 C.2       10 UNK         0.5000 
     21 O           1.2106  -22.4716  -45.5777 O.2       10 UNK        -0.5000 
     22 CA          1.3023  -22.7002  -43.1900 C.3       10 UNK         0.1400 
     23 CB          2.5564  -22.0773  -42.5579 C.3       10 UNK        -0.1800 
     24 N           0.2126  -22.6999  -42.2129 N.am      10 UNK        -0.5000 
     25 C          -0.9730  -23.2949  -42.4034 C.2       9 UNK         0.5000 
     26 O          -1.2609  -23.9367  -43.4121 O.2       9 UNK        -0.5000 
     27 CA         -2.0318  -23.1147  -41.3021 C.3       9 UNK         0.1400 
     28 CB         -1.9209  -24.2421  -40.2650 C.3       9 UNK        -0.1800 
     29 N          -1.9781  -21.8216  -40.6157 N.am      9 UNK        -0.5000 
     30 C          -2.1064  -20.6182  -41.1922 C.2       8 UNK         0.5000 
     31 O          -2.2053  -20.4492  -42.4118 O.2       8 UNK        -0.5000 
     32 CA         -2.1612  -19.4275  -40.2137 C.3       8 UNK         0.1400 
     33 CB         -0.8949  -19.3380  -39.3331 C.3       8 UNK        -0.1800 
     34 N          -2.4572  -18.1460  -40.8646 N.am      8 UNK        -0.5000 
     35 C          -1.6538  -17.4071  -41.6412 C.2       7 UNK         0.5000 
     36 O          -0.4860  -17.6911  -41.9124 O.2       7 UNK        -0.5000 
     37 CA         -2.2666  -16.1048  -42.1760 C.3       7 UNK         0.1400 
     38 CB         -2.4888  -15.0899  -41.0362 C.3       7 UNK        -0.1800 
     39 N          -1.3978  -15.5152  -43.1930 N.am      7 UNK        -0.5000 
     40 C          -1.8033  -14.6377  -44.1208 C.2       6 UNK         0.5000 
     41 O          -2.9799  -14.2964  -44.2501 O.2       6 UNK        -0.5000 
     42 CA         -0.7356  -14.0166  -45.0416 C.3       6 UNK         0.1400 
     43 CB         -1.0436  -12.5448  -45.3863 C.3       6 UNK        -0.1800 
     44 N           0.6082  -14.1202  -44.4705 N.am      6 UNK        -0.5000 
     45 C           1.7286  -14.1573  -45.1982 C.2       5 UNK         0.5000 
     46 O           1.7375  -14.0849  -46.4272 O.2       5 UNK        -0.5000 
     47 CA          3.0750  -14.2406  -44.4582 C.3       5 UNK         0.1400 
     48 CB          3.0042  -13.9494  -42.9413 C.3       5 UNK        -0.1800 
     49 N           3.7473  -15.5060  -44.7537 N.am      5 UNK        -0.5000 
     50 C           3.4032  -16.7354  -44.3419 C.2       4 UNK         0.5000 
     51 O           2.4736  -16.9536  -43.5659 O.2       4 UNK        -0.5000 
     52 CA          4.2305  -17.9242  -44.8850 C.3       4 UNK         0.1400 
     53 CB          3.3524  -19.1566  -45.1559 C.3       4 UNK        -0.1800 
     54 N           4.9458  -17.5948  -46.1180 N.am      4 UNK        -0.5000 
     55 C           6.1926  -17.1133  -46.2043 C.2       3 UNK         0.5000 
     56 O           6.9324  -16.9495  -45.2342 O.2       3 UNK        -0.5000 
     57 CA          6.6779  -16.7093  -47.6139 C.3       3 UNK         0.1400 
     58 CB          7.5408  -17.8237  -48.2251 C.3       3 UNK        -0.1800 
     59 N           5.5858  -16.3864  -48.5421 N.am      3 UNK        -0.5000 
     60 C           4.7279  -15.3687  -48.3851 C.2       2 UNK         0.5000 
     61 O           4.8045  -14.5618  -47.4538 O.2       2 UNK        -0.5000 
     62 CA          3.5859  -15.2712  -49.4121 C.3       2 UNK         0.1400 
     63 CB          2.6975  -16.5276  -49.3820 C.3       2 UNK        -0.1800 
     64 N           2.7559  -14.1189  -49.0902 N.am      2 UNK        -0.5000 
     65 C           2.3673  -13.1533  -49.9286 C.2       1 UNK         0.5000 
     66 O           2.6131  -13.1515  -51.1361 O.2       1 UNK        -0.5000 
     67 C          -1.4543  -20.6772  -46.1297 C.2       11 UNK         0.5000 
     68 O          -1.5514  -20.6962  -47.3554 O.2       11 UNK        -0.5000 
     69 N          -2.3461  -21.2544  -45.3094 N.am      12 UNK        -0.5000 
     70 CA         -3.4987  -22.0269  -45.7783 C.3       12 UNK         0.1400 
     71 CB         -4.3750  -22.4474  -44.5912 C.3       12 UNK        -0.1800 
     72 C          -3.0839  -23.2500  -46.6168 C.2       12 UNK         0.5000 
     73 O          -3.6851  -23.4908  -47.6631 O.2       12 UNK        -0.5000 
     74 N          -2.0373  -23.9630  -46.1766 N.am      13 UNK        -0.5000 
     75 CA         -1.4144  -25.0694  -46.9025 C.3       13 UNK         0.1400 
     76 CB         -0.3835  -25.7688  -46.0044 C.3       13 UNK        -0.1800 
     77 C          -0.7751  -24.6230  -48.2295 C.2       13 UNK         0.5000 
     78 O          -0.9988  -25.2751  -49.2496 O.2       13 UNK        -0.5000 
     79 N          -0.0417  -23.4985  -48.2114 N.am      14 UNK        -0.5000 
     80 CA          0.5523  -22.8730  -49.4006 C.3       14 UNK         0.1400 
     81 CB          1.4346  -21.6878  -48.9775 C.3       14 UNK        -0.1800 
     82 C          -0.5003  -22.4250  -50.4352 C.2       14 UNK         0.5000 
     83 O          -0.2696  -22.5473  -51.6380 O.2       14 UNK        -0.5000 
     84 N          -1.6555  -21.9679  -49.9388 N.am      15 UNK        -0.5000 
     85 CA         -2.8428  -21.6063  -50.7089 C.3       15 UNK         0.1400 
     86 CB         -3.6630  -20.6017  -49.8831 C.3       15 UNK        -0.1800 
     87 C          -3.7018  -22.8108  -51.1509 C.2       15 UNK         0.5000 
     88 O          -4.7614  -22.5875  -51.7379 O.2       15 UNK        -0.5000 
     89 N          -3.2484  -24.0438  -50.8763 N.am      16 UNK        -0.5000 
     90 CA         -3.8775  -25.3279  -51.2025 C.3       16 UNK         0.1400 
     91 CB         -4.0060  -25.5172  -52.7271 C.3       16 UNK        -0.1800 
     92 C          -5.2081  -25.5278  -50.4545 C.2       16 UNK         0.5000 
     93 O          -6.2604  -25.6743  -51.0765 O.2       16 UNK        -0.5000 
     94 N          -5.1219  -25.5039  -49.1181 N.am      17 UNK        -0.5000 
     95 CA         -6.2231  -25.5833  -48.1519 C.3       17 UNK         0.1400 
     96 CB         -6.9788  -26.9249  -48.2584 C.3       17 UNK        -0.1800 
     97 C          -7.1401  -24.3472  -48.2328 C.2       17 UNK         0.5000 
     98 O          -8.3656  -24.4733  -48.2101 O.2       17 UNK        -0.5000 
     99 N          -6.5026  -23.1711  -48.3346 N.am      18 UNK        -0.5000 
    100 CA        -7.1023  -21.8358  -48.4318 C.3       18 UNK         0.1400 
    101 CB        -7.8419  -21.4732  -47.1274 C.3       18 UNK        -0.1800 
    102 C         -7.9658  -21.6213  -49.6958 C.2       18 UNK         0.5000 
    103 O         -8.8616  -20.7754  -49.6891 O.2       18 UNK        -0.5000 
    104 N         -7.6683  -22.3647  -50.7710 N.am      19 UNK        -0.5000 
    105 CA        -8.3106  -22.2301  -52.0814 C.3       19 UNK         0.1400 
    106 CB        -8.0720  -23.5174  -52.8851 C.3       19 UNK        -0.1800 
    107 C         -7.8061  -21.0079  -52.8744 C.2       19 UNK         0.5000 
    108 O         -8.4818  -20.5756  -53.8087 O.2       19 UNK        -0.5000 
    109 N         -6.6249  -20.4971  -52.4956 N.am      20 UNK        -0.5000 
    110 CA        -5.8554  -19.4264  -53.1367 C.3       20 UNK         0.1400 
    111 CB        -6.6383  -18.0978  -53.1732 C.3       20 UNK        -0.1800 
    112 C         -5.3011  -19.8534  -54.5098 C.2       20 UNK         0.5000 
    113 O         -5.1632  -19.0245  -55.4118 O.2       20 UNK        -0.5000 
    114 N         -4.9513  -21.1441  -54.6315 N.am      21 UNK        -0.5000 
    115 CA        -4.3838  -21.7593  -55.8380 C.3       21 UNK         0.1400 
    116 CB        -4.2845  -23.2751  -55.6213 C.3       21 UNK        -0.1800 
    117 C         -3.0094  -21.1854  -56.2402 C.2       21 UNK         0.5000 
    118 O         -2.6191  -21.2883  -57.4035 O.2       21 UNK        -0.5000 
    119 N         -2.3192  -20.5745  -55.2715 N.am      22 UNK        -0.5000 
    120 CA        -1.0975  -19.7809  -55.4440 C.3       22 UNK         0.1400 
    121 C         -1.2892  -18.4294  -56.1993 C.2       22 UNK         0.5000 
    122 N         -2.5078  -17.9481  -56.4230 N.am      22 UNK        -0.7600 
    123 O         -0.3075  -17.8111  -56.6018 O.2       22 UNK        -0.5000 
    124 C124       -0.3812  -19.5856  -54.0833 C.3       23 UNK        -0.0398 
    125 S125       -1.4245  -18.7612  -52.8256 S.3       23 UNK        -0.2404 
    126 C126       -0.2229  -17.6174  -52.0902 C.3       23 UNK        -0.0205 
    127 H127        4.1206   -9.8035  -46.1578 H         1 UNK         0.0600 
    128 H128        4.7201  -11.4652  -46.2229 H         1 UNK         0.0600 
    129 H129        3.0808  -11.1339  -45.6480 H         1 UNK         0.0600 
    130 H130        1.7710  -12.0990  -47.1949 H         1 UNK         0.3000 
    131 H131        1.7522  -11.0972  -49.9430 H         1 UNK         0.0600 
    132 H132       -0.0773  -13.1730  -48.6440 H         1 UNK         0.0800 
    133 H133       -0.3544  -11.4587  -48.5244 H         1 UNK         0.0800 
    134 H134       -2.7716  -12.8709  -49.5820 H         1 UNK         0.0800 
    135 H135       -2.8727  -13.2401  -51.2851 H         1 UNK         0.0800 
    136 H136       -1.1296  -15.0433  -52.1882 H         1 UNK         0.1150 
    137 H137       -0.7041  -18.3732  -49.5187 H         1 UNK         0.1150 
    138 H138       -2.3358  -14.6758  -48.0902 H         1 UNK         0.1150 
    139 H139       -2.3270  -16.5872  -46.6411 H         1 UNK         0.0800 
    140 H140       -2.1974  -18.1643  -47.3785 H         1 UNK         0.0800 
    141 H141       -1.4816  -18.3619  -44.7437 H         1 UNK         0.0800 
    142 H142        0.1998  -18.2527  -44.3057 H         1 UNK         0.0800 
    143 H143        0.5683  -20.0484  -46.2385 H         1 UNK         0.0600 
    144 H144        0.0087  -20.4894  -43.4311 H         1 UNK         0.3000 
    145 H145        1.5265  -23.7379  -43.4462 H         1 UNK         0.0600 
    146 H146        2.8837  -22.6474  -41.6883 H         1 UNK         0.0600 
    147 H147        3.3851  -22.0634  -43.2672 H         1 UNK         0.0600 
    148 H148        2.3805  -21.0493  -42.2384 H         1 UNK         0.0600 
    149 H149        0.3626  -22.1889  -41.3556 H         1 UNK         0.3000 
    150 H150       -3.0121  -23.1886  -41.7748 H         1 UNK         0.0600 
    151 H151       -1.9812  -25.2207  -40.7435 H         1 UNK         0.0600 
    152 H152       -2.7296  -24.1895  -39.5358 H         1 UNK         0.0600 
    153 H153       -0.9753  -24.1994  -39.7230 H         1 UNK         0.0600 
    154 H154       -1.9040  -21.8645  -39.6096 H         1 UNK         0.3000 
    155 H155       -3.0081  -19.6148  -39.5519 H         1 UNK         0.0600 
    156 H156        0.0173  -19.3041  -39.9295 H         1 UNK         0.0600 
    157 H157       -0.9153  -18.4493  -38.7022 H         1 UNK         0.0600 
    158 H158       -0.8126  -20.1981  -38.6683 H         1 UNK         0.0600 
    159 H159       -3.4044  -17.8208  -40.7322 H         1 UNK         0.3000 
    160 H160       -3.2268  -16.3585  -42.6304 H         1 UNK         0.0600 
    161 H161       -1.5470  -14.8109  -40.5620 H         1 UNK         0.0600 
    162 H162       -3.1388  -15.4961  -40.2607 H         1 UNK         0.0600 
    163 H163       -2.9614  -14.1777  -41.4006 H         1 UNK         0.0600 
    164 H164       -0.4449  -15.8594  -43.1828 H         1 UNK         0.3000 
    165 H165       -0.7701  -14.5912  -45.9684 H         1 UNK         0.0600 
    166 H166       -0.2957  -12.1255  -46.0580 H         1 UNK         0.0600 
    167 H167       -2.0084  -12.4495  -45.8857 H         1 UNK         0.0600 
    168 H168       -1.0718  -11.9242  -44.4901 H         1 UNK         0.0600 
    169 H169        0.6707  -14.1628  -43.4633 H         1 UNK         0.3000 
    170 H170        3.7051  -13.4681  -44.8998 H         1 UNK         0.0600 
    171 H171        2.3805  -14.6610  -42.4006 H         1 UNK         0.0600 
    172 H172        3.9982  -13.9792  -42.4950 H         1 UNK         0.0600 
    173 H173        2.6010  -12.9529  -42.7563 H         1 UNK         0.0600 
    174 H174        4.4725  -15.4348  -45.4565 H         1 UNK         0.3000 
    175 H175        4.9481  -18.1905  -44.1064 H         1 UNK         0.0600 
    176 H176        3.9518  -20.0083  -45.4777 H         1 UNK         0.0600 
    177 H177        2.6158  -18.9531  -45.9326 H         1 UNK         0.0600 
    178 H178        2.8147  -19.4625  -44.2586 H         1 UNK         0.0600 
    179 H179        4.4154  -17.6774  -46.9723 H         1 UNK         0.3000 
    180 H180        7.2981  -15.8175  -47.5023 H         1 UNK         0.0600 
    181 H181        6.9666  -18.7380  -48.3808 H         1 UNK         0.0600 
    182 H182        8.3800  -18.0703  -47.5731 H         1 UNK         0.0600 
    183 H183        7.9569  -17.5194  -49.1857 H         1 UNK         0.0600 
    184 H184        5.4742  -17.0044  -49.3330 H         1 UNK         0.3000 
    185 H185        4.0325  -15.1608  -50.4021 H         1 UNK         0.0600 
    186 H186        2.2718  -16.6942  -48.3915 H         1 UNK         0.0600 
    187 H187        1.8700  -16.4314  -50.0838 H         1 UNK         0.0600 
    188 H188        3.2522  -17.4234  -49.6618 H         1 UNK         0.0600 
    189 H189        2.5368  -14.0230  -48.1001 H         1 UNK         0.3000 
    190 H190       -2.2203  -21.1687  -44.3057 H         1 UNK         0.3000 
    191 H191       -4.0929  -21.3716  -46.4184 H         1 UNK         0.0600 
    192 H192       -4.6644  -21.5874  -43.9868 H         1 UNK         0.0600 
    193 H193       -5.2913  -22.9269  -44.9378 H         1 UNK         0.0600 
    194 H194       -3.8618  -23.1574  -43.9443 H         1 UNK         0.0600 
    195 H195       -1.6395  -23.7399  -45.2682 H         1 UNK         0.3000 
    196 H196       -2.1979  -25.7921  -47.1397 H         1 UNK         0.0600 
    197 H197        0.0894  -26.6017  -46.5261 H         1 UNK         0.0600 
    198 H198       -0.8538  -26.1722  -45.1075 H         1 UNK         0.0600 
    199 H199        0.4062  -25.0870  -45.6882 H         1 UNK         0.0600 
    200 H200        0.1220  -23.0353  -47.3244 H         1 UNK         0.3000 
    201 H201        1.1906  -23.6180  -49.8797 H         1 UNK         0.0600 
    202 H202        2.1998  -21.9973  -48.2654 H         1 UNK         0.0600 
    203 H203        0.8499  -20.8922  -48.5164 H         1 UNK         0.0600 
    204 H204        1.9458  -21.2570  -49.8392 H         1 UNK         0.0600 
    205 H205       -1.7188  -21.8289  -48.9342 H         1 UNK         0.3000 
    206 H206       -2.5247  -21.1114  -51.6258 H         1 UNK         0.0600 
    207 H207       -3.0899  -19.6931  -49.6967 H         1 UNK         0.0600 
    208 H208       -4.5786  -20.3043  -50.3919 H         1 UNK         0.0600 
    209 H209       -3.9422  -21.0186  -48.9164 H         1 UNK         0.0600 
    210 H210       -2.3777  -24.1190  -50.3636 H         1 UNK         0.3000 
    211 H211       -3.1986  -26.1004  -50.8386 H         1 UNK         0.0600 
    212 H212       -4.7295  -24.8280  -53.1611 H         1 UNK         0.0600 
    213 H213       -4.3413  -26.5273  -52.9644 H         1 UNK         0.0600 
    214 H214       -3.0490  -25.3659  -53.2261 H         1 UNK         0.0600 
    215 H215       -4.2267  -25.2540  -48.7154 H         1 UNK         0.3000 
    216 H216       -5.7605  -25.5501  -47.1643 H         1 UNK         0.0600 
    217 H217       -7.6948  -27.0321  -47.4429 H         1 UNK         0.0600 
    218 H218       -6.2925  -27.7695  -48.2003 H         1 UNK         0.0600 
    219 H219       -7.5364  -27.0082  -49.1915 H         1 UNK         0.0600 
    220 H220       -5.4867  -23.2012  -48.3220 H         1 UNK         0.3000 
    221 H221       -6.2694  -21.1401  -48.5276 H         1 UNK         0.0600 
    222 H222       -8.7359  -22.0809  -46.9858 H         1 UNK         0.0600 
    223 H223       -7.1993  -21.6129  -46.2581 H         1 UNK         0.0600 
    224 H224       -8.1552  -20.4286  -47.1311 H         1 UNK         0.0600 
    225 H225       -6.9115  -23.0334  -50.7106 H         1 UNK         0.3000 
    226 H226       -9.3863  -22.1118  -51.9357 H         1 UNK         0.0600 
    227 H227       -8.4715  -24.3872  -52.3633 H         1 UNK         0.0600 
    228 H228       -8.5610  -23.4692  -53.8589 H         1 UNK         0.0600 
    229 H229       -7.0095  -23.6913  -53.0592 H         1 UNK         0.0600 
    230 H230       -6.1304  -21.0182  -51.7815 H         1 UNK         0.3000 
    231 H231       -4.9802  -19.2636  -52.5068 H         1 UNK         0.0600 
    232 H232       -7.4785  -18.1371  -53.8666 H         1 UNK         0.0600 
    233 H233       -5.9944  -17.2770  -53.4911 H         1 UNK         0.0600 
    234 H234       -7.0264  -17.8418  -52.1874 H         1 UNK         0.0600 
    235 H235       -5.0810  -21.7517  -53.8317 H         1 UNK         0.3000 
    236 H236       -5.0735  -21.5719  -56.6634 H         1 UNK         0.0600 
    237 H237       -5.2525  -23.7040  -55.3613 H         1 UNK         0.0600 
    238 H238       -3.9383  -23.7776  -56.5254 H         1 UNK         0.0600 
    239 H239       -3.5801  -23.5137  -54.8243 H         1 UNK         0.0600 
    240 H240       -2.7298  -20.5359  -54.3514 H         1 UNK         0.3000 
    241 H241       -0.4286  -20.3705  -56.0736 H         1 UNK         0.0600 
    242 H242       -2.6085  -17.0763  -56.9176 H         1 UNK         0.3800 
    243 H243       -3.3356  -18.4286  -56.0885 H         1 UNK         0.3800 
    244 H244       -0.0860  -20.5570  -53.6840 H         1 UNK         0.0800 
    245 H245        0.5493  -19.0324  -54.2213 H         1 UNK         0.0800 
    246 H246        0.6221  -18.1841  -51.6958 H         1 UNK         0.0800 
    247 H247        0.1761  -16.9611  -52.8654 H         1 UNK         0.0800 
@<TRIPOS>BOND
     1    1    2 1    
     2    1  127 1    
     3    1  128 1    
     4    1  129 1    
     5    2    3 2    
     6    2    4 am   BACKBONE|DICT|INTERRES
     7    4    5 1    
     8    4  130 1    
     9    5    6 1    
    10    5   65 1    
    11    5  131 1    
    12    6    7 1    
    13    6  132 1    
    14    6  133 1    
    15    7    8 1    
    16    8    9 1    
    17    8  134 1    
    18    8  135 1    
    19    9   10 ar   
    20    9   14 ar   
    21   10   11 ar   
    22   10  136 1    
    23   11   12 ar   
    24   11  126 1    
    25   12   13 ar   
    26   12  137 1    
    27   13   14 ar   
    28   13   15 1    
    29   14  138 1    
    30   15   16 1    
    31   15  139 1    
    32   15  140 1    
    33   16   17 1    
    34   17   18 1    
    35   17  141 1    
    36   17  142 1    
    37   18   19 1    
    38   18   67 1    
    39   18  143 1    
    40   19   20 am   BACKBONE|DICT|INTERRES
    41   19  144 1    
    42   20   21 2    
    43   20   22 1    
    44   22   23 1    
    45   22   24 1    
    46   22  145 1    
    47   23  146 1    
    48   23  147 1    
    49   23  148 1    
    50   24   25 am   BACKBONE|DICT|INTERRES
    51   24  149 1    
    52   25   26 2    
    53   25   27 1    
    54   27   28 1    
    55   27   29 1    
    56   27  150 1    
    57   28  151 1    
    58   28  152 1    
    59   28  153 1    
    60   29   30 am   BACKBONE|DICT|INTERRES
    61   29  154 1    
    62   30   31 2    
    63   30   32 1    
    64   32   33 1    
    65   32   34 1    
    66   32  155 1    
    67   33  156 1    
    68   33  157 1    
    69   33  158 1    
    70   34   35 am   BACKBONE|DICT|INTERRES
    71   34  159 1    
    72   35   36 2    
    73   35   37 1    
    74   37   38 1    
    75   37   39 1    
    76   37  160 1    
    77   38  161 1    
    78   38  162 1    
    79   38  163 1    
    80   39   40 am   BACKBONE|DICT|INTERRES
    81   39  164 1    
    82   40   41 2    
    83   40   42 1    
    84   42   43 1    
    85   42   44 1    
    86   42  165 1    
    87   43  166 1    
    88   43  167 1    
    89   43  168 1    
    90   44   45 am   BACKBONE|DICT|INTERRES
    91   44  169 1    
    92   45   46 2    
    93   45   47 1    
    94   47   48 1    
    95   47   49 1    
    96   47  170 1    
    97   48  171 1    
    98   48  172 1    
    99   48  173 1    
   100   49   50 am   BACKBONE|DICT|INTERRES
   101   49  174 1    
   102   50   51 2    
   103   50   52 1    
   104   52   53 1    
   105   52   54 1    
   106   52  175 1    
   107   53  176 1    
   108   53  177 1    
   109   53  178 1    
   110   54   55 am   BACKBONE|DICT|INTERRES
   111   54  179 1    
   112   55   56 2    
   113   55   57 1    
   114   57   58 1    
   115   57   59 1    
   116   57  180 1    
   117   58  181 1    
   118   58  182 1    
   119   58  183 1    
   120   59   60 am   BACKBONE|DICT|INTERRES
   121   59  184 1    
   122   60   61 2    
   123   60   62 1    
   124   62   63 1    
   125   62   64 1    
   126   62  185 1    
   127   63  186 1    
   128   63  187 1    
   129   63  188 1    
   130   64   65 am   BACKBONE|DICT|INTERRES
   131   64  189 1    
   132   65   66 2    
   133   67   68 2    
   134   67   69 am   BACKBONE|DICT|INTERRES
   135   69   70 1    
   136   69  190 1    
   137   70   71 1    
   138   70   72 1    
   139   70  191 1    
   140   71  192 1    
   141   71  193 1    
   142   71  194 1    
   143   72   73 2    
   144   72   74 am   BACKBONE|DICT|INTERRES
   145   74   75 1    
   146   74  195 1    
   147   75   76 1    
   148   75   77 1    
   149   75  196 1    
   150   76  197 1    
   151   76  198 1    
   152   76  199 1    
   153   77   78 2    
   154   77   79 am   BACKBONE|DICT|INTERRES
   155   79   80 1    
   156   79  200 1    
   157   80   81 1    
   158   80   82 1    
   159   80  201 1    
   160   81  202 1    
   161   81  203 1    
   162   81  204 1    
   163   82   83 2    
   164   82   84 am   BACKBONE|DICT|INTERRES
   165   84   85 1    
   166   84  205 1    
   167   85   86 1    
   168   85   87 1    
   169   85  206 1    
   170   86  207 1    
   171   86  208 1    
   172   86  209 1    
   173   87   88 2    
   174   87   89 am   BACKBONE|DICT|INTERRES
   175   89   90 1    
   176   89  210 1    
   177   90   91 1    
   178   90   92 1    
   179   90  211 1    
   180   91  212 1    
   181   91  213 1    
   182   91  214 1    
   183   92   93 2    
   184   92   94 am   BACKBONE|DICT|INTERRES
   185   94   95 1    
   186   94  215 1    
   187   95   96 1    
   188   95   97 1    
   189   95  216 1    
   190   96  217 1    
   191   96  218 1    
   192   96  219 1    
   193   97   98 2    
   194   97   99 am   BACKBONE|DICT|INTERRES
   195   99  100 1    
   196   99  220 1    
   197  100  101 1    
   198  100  102 1    
   199  100  221 1    
   200  101  222 1    
   201  101  223 1    
   202  101  224 1    
   203  102  103 2    
   204  102  104 am   BACKBONE|DICT|INTERRES
   205  104  105 1    
   206  104  225 1    
   207  105  106 1    
   208  105  107 1    
   209  105  226 1    
   210  106  227 1    
   211  106  228 1    
   212  106  229 1    
   213  107  108 2    
   214  107  109 am   BACKBONE|DICT|INTERRES
   215  109  110 1    
   216  109  230 1    
   217  110  111 1    
   218  110  112 1    
   219  110  231 1    
   220  111  232 1    
   221  111  233 1    
   222  111  234 1    
   223  112  113 2    
   224  112  114 am   BACKBONE|DICT|INTERRES
   225  114  115 1    
   226  114  235 1    
   227  115  116 1    
   228  115  117 1    
   229  115  236 1    
   230  116  237 1    
   231  116  238 1    
   232  116  239 1    
   233  117  118 2    
   234  117  119 am   BACKBONE|DICT|INTERRES
   235  119  120 1    
   236  119  240 1    
   237  120  121 1    
   238  120  124 1    
   239  120  241 1    
   240  121  122 am   BACKBONE|DICT|INTERRES
   241  121  123 2    
   242  122  242 1    
   243  122  243 1    
   244  124  125 1    
   245  124  244 1    
   246  124  245 1    
   247  125  126 1    
   248  126  246 1    
   249  126  247 1    
@<TRIPOS>SUBSTRUCTURE
     1 UNK         1 GROUP             0       ****    0 ROOT    
