@<TRIPOS>MOLECULE
3R540
247   249    1
SMALL
USER_CHARGES


@<TRIPOS>ATOM
      1 CA          4.9656  -15.3219  -47.1906 C.3       0 UNK        -0.1800 
      2 C           3.5222  -15.6626  -47.5305 C.2       0 UNK         0.5000 
      3 O           2.6740  -15.7154  -46.6382 O.2       0 UNK        -0.5000 
      4 N           3.2428  -15.9199  -48.8144 N.am      1 UNK        -0.5000 
      5 CA          1.8929  -16.1519  -49.3296 C.3       1 UNK         0.1400 
      6 C6          1.9214  -16.8896  -50.6901 C.3       23 UNK        -0.0398 
      7 S7          0.2918  -17.3974  -51.3499 S.3       23 UNK        -0.2404 
      8 C8         -0.3096  -18.6122  -50.1311 C.3       23 UNK        -0.0205 
      9 C9         -1.4084  -18.0199  -49.2606 C.ar      23 UNK        -0.0193 
     10 C10        -2.6908  -17.8252  -49.7856 C.ar      23 UNK        -0.1150 
     11 C11        -3.7099  -17.2646  -49.0024 C.ar      23 UNK        -0.0193 
     12 C12        -3.4186  -16.8861  -47.6886 C.ar      23 UNK        -0.1150 
     13 C13        -2.1447  -17.0796  -47.1502 C.ar      23 UNK        -0.0193 
     14 C14        -1.1493  -17.6653  -47.9347 C.ar      23 UNK        -0.1150 
     15 C15        -1.8479  -16.6493  -45.7228 C.3       23 UNK        -0.0205 
     16 S16        -2.2840  -17.9478  -44.5264 S.3       23 UNK        -0.2404 
     17 C17        -0.9662  -19.1744  -44.8199 C.3       23 UNK        -0.0398 
     18 CA         -1.4656  -20.4092  -45.6101 C.3       11 UNK         0.1400 
     19 N          -0.3634  -21.0944  -46.2916 N.am      11 UNK        -0.5000 
     20 C          -0.5100  -22.0908  -47.1793 C.2       10 UNK         0.5000 
     21 O          -1.6003  -22.5219  -47.5461 O.2       10 UNK        -0.5000 
     22 CA          0.7664  -22.7561  -47.7274 C.3       10 UNK         0.1400 
     23 CB          1.2074  -22.0654  -49.0261 C.3       10 UNK        -0.1800 
     24 N           1.8761  -22.7555  -46.7766 N.am      10 UNK        -0.5000 
     25 C           1.8517  -23.2870  -45.5447 C.2       9 UNK         0.5000 
     26 O           0.9106  -23.9470  -45.1035 O.2       9 UNK        -0.5000 
     27 CA          3.0511  -22.9586  -44.6320 C.3       9 UNK         0.1400 
     28 CB          4.0553  -24.1202  -44.6251 C.3       9 UNK        -0.1800 
     29 N           3.7460  -21.7196  -45.0078 N.am      9 UNK        -0.5000 
     30 C           3.1913  -20.4991  -45.0086 C.2       8 UNK         0.5000 
     31 O           2.0263  -20.2748  -44.6717 O.2       8 UNK        -0.5000 
     32 CA          4.0419  -19.3617  -45.5904 C.3       8 UNK         0.1400 
     33 CB          3.6387  -19.1100  -47.0519 C.3       8 UNK        -0.1800 
     34 N           3.8706  -18.1376  -44.8094 N.am      8 UNK        -0.5000 
     35 C           4.5425  -17.8846  -43.6784 C.2       7 UNK         0.5000 
     36 O           5.4425  -18.6055  -43.2444 O.2       7 UNK        -0.5000 
     37 CA          4.1411  -16.6272  -42.8854 C.3       7 UNK         0.1400 
     38 CB          4.8430  -15.3743  -43.4297 C.3       7 UNK        -0.1800 
     39 N           2.6998  -16.3850  -42.8436 N.am      7 UNK        -0.5000 
     40 C           1.8054  -17.1649  -42.2203 C.2       6 UNK         0.5000 
     41 O           2.0850  -18.2344  -41.6762 O.2       6 UNK        -0.5000 
     42 CA          0.3718  -16.5997  -42.1542 C.3       6 UNK         0.1400 
     43 CB         -0.5907  -17.4611  -41.3085 C.3       6 UNK        -0.1800 
     44 N           0.3573  -15.2017  -41.7053 N.am      6 UNK        -0.5000 
     45 C           0.7974  -14.7243  -40.5269 C.2       5 UNK         0.5000 
     46 O           1.2376  -15.4338  -39.6217 O.2       5 UNK        -0.5000 
     47 CA          0.7736  -13.1950  -40.3144 C.3       5 UNK         0.1400 
     48 CB          2.2072  -12.6390  -40.2950 C.3       5 UNK        -0.1800 
     49 N           0.0144  -12.4704  -41.3321 N.am      5 UNK        -0.5000 
     50 C          -1.3208  -12.4432  -41.4376 C.2       4 UNK         0.5000 
     51 O          -2.0831  -12.9596  -40.6202 O.2       4 UNK        -0.5000 
     52 CA         -1.8972  -11.7446  -42.6870 C.3       4 UNK         0.1400 
     53 CB         -2.3786  -10.3281  -42.3375 C.3       4 UNK        -0.1800 
     54 N          -0.9537  -11.6650  -43.8101 N.am      4 UNK        -0.5000 
     55 C          -0.4559  -12.7202  -44.4681 C.2       3 UNK         0.5000 
     56 O          -0.7164  -13.8912  -44.1825 O.2       3 UNK        -0.5000 
     57 CA          0.5515  -12.4242  -45.5891 C.3       3 UNK         0.1400 
     58 CB          1.9712  -12.8115  -45.1455 C.3       3 UNK        -0.1800 
     59 N           0.1993  -13.1679  -46.7952 N.am      3 UNK        -0.5000 
     60 C          -0.7926  -12.8238  -47.6296 C.2       2 UNK         0.5000 
     61 O          -1.4700  -11.8055  -47.4796 O.2       2 UNK        -0.5000 
     62 CA         -1.1081  -13.7657  -48.8126 C.3       2 UNK         0.1400 
     63 CB         -1.2950  -12.9948  -50.1336 C.3       2 UNK        -0.1800 
     64 N          -0.1604  -14.8731  -48.9756 N.am      2 UNK        -0.5000 
     65 C           1.1195  -14.8168  -49.3674 C.2       1 UNK         0.5000 
     66 O           1.6991  -13.7838  -49.7106 O.2       1 UNK        -0.5000 
     67 C          -2.2529  -21.3762  -44.7019 C.2       11 UNK         0.5000 
     68 O          -3.4786  -21.4514  -44.7985 O.2       11 UNK        -0.5000 
     69 N          -1.5213  -22.1459  -43.8818 N.am      12 UNK        -0.5000 
     70 CA         -2.0677  -23.1738  -42.9913 C.3       12 UNK         0.1400 
     71 CB         -0.9627  -23.6573  -42.0401 C.3       12 UNK        -0.1800 
     72 C          -2.6880  -24.3582  -43.7571 C.2       12 UNK         0.5000 
     73 O          -3.6401  -24.9688  -43.2717 O.2       12 UNK        -0.5000 
     74 N          -2.1645  -24.6263  -44.9596 N.am      13 UNK        -0.5000 
     75 CA         -2.6696  -25.6145  -45.9106 C.3       13 UNK         0.1400 
     76 CB         -1.4930  -26.1111  -46.7662 C.3       13 UNK        -0.1800 
     77 C          -3.8271  -25.0896  -46.7909 C.2       13 UNK         0.5000 
     78 O          -4.1707  -25.7537  -47.7683 O.2       13 UNK        -0.5000 
     79 N          -4.4029  -23.9232  -46.4567 N.am      14 UNK        -0.5000 
     80 CA         -5.5316  -23.2664  -47.1276 C.3       14 UNK         0.1400 
     81 CB         -6.8172  -24.1100  -46.9958 C.3       14 UNK        -0.1800 
     82 C          -5.2022  -22.8921  -48.5855 C.2       14 UNK         0.5000 
     83 O          -5.8572  -23.3592  -49.5199 O.2       14 UNK        -0.5000 
     84 N          -4.1447  -22.0847  -48.7398 N.am      15 UNK        -0.5000 
     85 CA         -3.5320  -21.6537  -50.0002 C.3       15 UNK         0.1400 
     86 CB         -4.4959  -20.7584  -50.8016 C.3       15 UNK        -0.1800 
     87 C          -2.9905  -22.8492  -50.8081 C.2       15 UNK         0.5000 
     88 O          -3.1745  -22.9114  -52.0238 O.2       15 UNK        -0.5000 
     89 N          -2.3597  -23.7945  -50.0948 N.am      16 UNK        -0.5000 
     90 CA         -1.8509  -25.0796  -50.5870 C.3       16 UNK         0.1400 
     91 CB         -0.6130  -24.8559  -51.4805 C.3       16 UNK        -0.1800 
     92 C          -2.9542  -25.9137  -51.2737 C.2       16 UNK         0.5000 
     93 O          -2.7892  -26.3370  -52.4173 O.2       16 UNK        -0.5000 
     94 N          -4.0843  -26.0836  -50.5720 N.am      17 UNK        -0.5000 
     95 CA         -5.3354  -26.6910  -51.0387 C.3       17 UNK         0.1400 
     96 CB         -5.1574  -28.2065  -51.2663 C.3       17 UNK        -0.1800 
     97 C          -5.9244  -25.9529  -52.2611 C.2       17 UNK         0.5000 
     98 O          -6.3285  -26.5862  -53.2381 O.2       17 UNK        -0.5000 
     99 N          -5.9360  -24.6147  -52.1768 N.am      18 UNK        -0.5000 
    100 CA        -6.3854  -23.6514  -53.1881 C.3       18 UNK         0.1400 
    101 CB        -7.9059  -23.7765  -53.4187 C.3       18 UNK        -0.1800 
    102 C         -5.5787  -23.6688  -54.5073 C.2       18 UNK         0.5000 
    103 O         -6.0806  -23.1935  -55.5281 O.2       18 UNK        -0.5000 
    104 N         -4.3475  -24.1972  -54.4792 N.am      19 UNK        -0.5000 
    105 CA        -3.4351  -24.2115  -55.6227 C.3       19 UNK         0.1400 
    106 CB        -2.4250  -25.3568  -55.4632 C.3       19 UNK        -0.1800 
    107 C         -2.6982  -22.8723  -55.7994 C.2       19 UNK         0.5000 
    108 O         -2.4097  -22.4902  -56.9347 O.2       19 UNK        -0.5000 
    109 N         -2.3968  -22.1877  -54.6882 N.am      20 UNK        -0.5000 
    110 CA        -1.7501  -20.8783  -54.6797 C.3       20 UNK         0.1400 
    111 CB        -1.0149  -20.6878  -53.3443 C.3       20 UNK        -0.1800 
    112 C         -2.7847  -19.7603  -54.8885 C.2       20 UNK         0.5000 
    113 O         -3.9268  -19.8836  -54.4394 O.2       20 UNK        -0.5000 
    114 N         -2.3550  -18.6756  -55.5412 N.am      21 UNK        -0.5000 
    115 CA        -3.1391  -17.4555  -55.7049 C.3       21 UNK         0.1400 
    116 CB        -2.7450  -16.7739  -57.0250 C.3       21 UNK        -0.1800 
    117 C         -2.8836  -16.5244  -54.5094 C.2       21 UNK         0.5000 
    118 O         -1.7251  -16.2383  -54.2013 O.2       21 UNK        -0.5000 
    119 N         -3.9634  -16.0564  -53.8773 N.am      22 UNK        -0.5000 
    120 CA        -3.9326  -15.1538  -52.7115 C.3       22 UNK         0.1400 
    121 C         -3.7999  -13.6441  -53.0828 C.2       22 UNK         0.5000 
    122 N         -3.6434  -13.2731  -54.3479 N.am      22 UNK        -0.7600 
    123 O         -3.8501  -12.7849  -52.2083 O.2       22 UNK        -0.5000 
    124 C124       -5.1456  -15.3846  -51.7715 C.3       23 UNK        -0.0398 
    125 S125       -5.3937  -17.1335  -51.3050 S.3       23 UNK        -0.2404 
    126 C126       -5.1504  -17.1061  -49.4945 C.3       23 UNK        -0.0205 
    127 H127        5.3761  -16.0667  -46.5090 H         1 UNK         0.0600 
    128 H128        5.0157  -14.3463  -46.7074 H         1 UNK         0.0600 
    129 H129        5.5951  -15.2927  -48.0801 H         1 UNK         0.0600 
    130 H130        3.9717  -15.8319  -49.5077 H         1 UNK         0.3000 
    131 H131        1.4044  -16.8111  -48.6156 H         1 UNK         0.0600 
    132 H132        2.5361  -17.7871  -50.6073 H         1 UNK         0.0800 
    133 H133        2.4064  -16.2664  -51.4433 H         1 UNK         0.0800 
    134 H134        0.5179  -18.9790  -49.5234 H         1 UNK         0.0800 
    135 H135       -0.7030  -19.4802  -50.6596 H         1 UNK         0.0800 
    136 H136       -2.8861  -18.1238  -50.8054 H         1 UNK         0.1150 
    137 H137       -4.1943  -16.4551  -47.0709 H         1 UNK         0.1150 
    138 H138       -0.1722  -17.8389  -47.5093 H         1 UNK         0.1150 
    139 H139       -0.7980  -16.3730  -45.6120 H         1 UNK         0.0800 
    140 H140       -2.4180  -15.7498  -45.4851 H         1 UNK         0.0800 
    141 H141       -0.5326  -19.4658  -43.8622 H         1 UNK         0.0800 
    142 H142       -0.1519  -18.6864  -45.3548 H         1 UNK         0.0800 
    143 H143       -2.1463  -20.0653  -46.3924 H         1 UNK         0.0600 
    144 H144        0.5697  -20.8396  -45.9878 H         1 UNK         0.3000 
    145 H145        0.5287  -23.7948  -47.9595 H         1 UNK         0.0600 
    146 H146        1.5399  -21.0433  -48.8445 H         1 UNK         0.0600 
    147 H147        2.0280  -22.6049  -49.4992 H         1 UNK         0.0600 
    148 H148        0.3899  -22.0235  -49.7477 H         1 UNK         0.0600 
    149 H149        2.7035  -22.2491  -47.0519 H         1 UNK         0.3000 
    150 H150        2.6638  -22.8313  -43.6190 H         1 UNK         0.0600 
    151 H151        3.5726  -25.0515  -44.3252 H         1 UNK         0.0600 
    152 H152        4.8673  -23.9361  -43.9214 H         1 UNK         0.0600 
    153 H153        4.4934  -24.2803  -45.6111 H         1 UNK         0.0600 
    154 H154        4.7043  -21.8214  -45.3106 H         1 UNK         0.3000 
    155 H155        5.0926  -19.6597  -45.5764 H         1 UNK         0.0600 
    156 H156        3.6695  -20.0311  -47.6349 H         1 UNK         0.0600 
    157 H157        4.3265  -18.4144  -47.5301 H         1 UNK         0.0600 
    158 H158        2.6292  -18.7042  -47.1315 H         1 UNK         0.0600 
    159 H159        3.1333  -17.5073  -45.0950 H         1 UNK         0.3000 
    160 H160        4.4789  -16.7766  -41.8576 H         1 UNK         0.0600 
    161 H161        4.7134  -14.5283  -42.7543 H         1 UNK         0.0600 
    162 H162        4.4472  -15.0844  -44.4022 H         1 UNK         0.0600 
    163 H163        5.9155  -15.5385  -43.5425 H         1 UNK         0.0600 
    164 H164        2.3770  -15.5250  -43.2603 H         1 UNK         0.3000 
    165 H165        0.0003  -16.5945  -43.1788 H         1 UNK         0.0600 
    166 H166       -0.2751  -17.5267  -40.2672 H         1 UNK         0.0600 
    167 H167       -1.6009  -17.0524  -41.3282 H         1 UNK         0.0600 
    168 H168       -0.6466  -18.4796  -41.6925 H         1 UNK         0.0600 
    169 H169       -0.0020  -14.5423  -42.3875 H         1 UNK         0.3000 
    170 H170        0.3170  -13.0060  -39.3407 H         1 UNK         0.0600 
    171 H171        2.7155  -12.8031  -41.2461 H         1 UNK         0.0600 
    172 H172        2.2131  -11.5683  -40.0900 H         1 UNK         0.0600 
    173 H173        2.8037  -13.1189  -39.5180 H         1 UNK         0.0600 
    174 H174        0.5525  -12.0006  -42.0444 H         1 UNK         0.3000 
    175 H175       -2.7592  -12.3287  -43.0161 H         1 UNK         0.0600 
    176 H176       -1.5530   -9.6889  -42.0220 H         1 UNK         0.0600 
    177 H177       -2.8646   -9.8544  -43.1907 H         1 UNK         0.0600 
    178 H178       -3.1051  -10.3514  -41.5240 H         1 UNK         0.0600 
    179 H179       -0.6866  -10.7358  -44.1024 H         1 UNK         0.3000 
    180 H180        0.5430  -11.3562  -45.8175 H         1 UNK         0.0600 
    181 H181        2.0301  -13.8593  -44.8503 H         1 UNK         0.0600 
    182 H182        2.2908  -12.2135  -44.2913 H         1 UNK         0.0600 
    183 H183        2.6942  -12.6493  -45.9452 H         1 UNK         0.0600 
    184 H184        0.6986  -14.0313  -46.9546 H         1 UNK         0.3000 
    185 H185       -2.0641  -14.2336  -48.5734 H         1 UNK         0.0600 
    186 H186       -2.1505  -12.3215  -50.0725 H         1 UNK         0.0600 
    187 H187       -0.4242  -12.3874  -50.3802 H         1 UNK         0.0600 
    188 H188       -1.4749  -13.6761  -50.9647 H         1 UNK         0.0600 
    189 H189       -0.5429  -15.7803  -48.7425 H         1 UNK         0.3000 
    190 H190       -0.5151  -22.0614  -43.9054 H         1 UNK         0.3000 
    191 H191       -2.8585  -22.7160  -42.3933 H         1 UNK         0.0600 
    192 H192       -0.1373  -24.1203  -42.5818 H         1 UNK         0.0600 
    193 H193       -0.5586  -22.8328  -41.4525 H         1 UNK         0.0600 
    194 H194       -1.3495  -24.3971  -41.3381 H         1 UNK         0.0600 
    195 H195       -1.3554  -24.0935  -45.2528 H         1 UNK         0.3000 
    196 H196       -3.0596  -26.4695  -45.3549 H         1 UNK         0.0600 
    197 H197       -0.6834  -26.4905  -46.1423 H         1 UNK         0.0600 
    198 H198       -1.0897  -25.3130  -47.3862 H         1 UNK         0.0600 
    199 H199       -1.7984  -26.9227  -47.4277 H         1 UNK         0.0600 
    200 H200       -4.0148  -23.4123  -45.6735 H         1 UNK         0.3000 
    201 H201       -5.7012  -22.3279  -46.5975 H         1 UNK         0.0600 
    202 H202       -7.6748  -23.5760  -47.4065 H         1 UNK         0.0600 
    203 H203       -7.0396  -24.3275  -45.9512 H         1 UNK         0.0600 
    204 H204       -6.7417  -25.0592  -47.5271 H         1 UNK         0.0600 
    205 H205       -3.6031  -21.8641  -47.9129 H         1 UNK         0.3000 
    206 H206       -2.6659  -21.0472  -49.7323 H         1 UNK         0.0600 
    207 H207       -4.8463  -19.9275  -50.1927 H         1 UNK         0.0600 
    208 H208       -5.3726  -21.3037  -51.1452 H         1 UNK         0.0600 
    209 H209       -4.0071  -20.3356  -51.6794 H         1 UNK         0.0600 
    210 H210       -2.2578  -23.6211  -49.1004 H         1 UNK         0.3000 
    211 H211       -1.5315  -25.6515  -49.7162 H         1 UNK         0.0600 
    212 H212        0.1651  -24.3123  -50.9453 H         1 UNK         0.0600 
    213 H213       -0.1837  -25.8066  -51.7983 H         1 UNK         0.0600 
    214 H214       -0.8569  -24.2903  -52.3803 H         1 UNK         0.0600 
    215 H215       -4.1140  -25.7359  -49.6152 H         1 UNK         0.3000 
    216 H216       -6.0547  -26.5615  -50.2285 H         1 UNK         0.0600 
    217 H217       -6.1124  -28.6808  -51.4951 H         1 UNK         0.0600 
    218 H218       -4.4815  -28.4168  -52.0956 H         1 UNK         0.0600 
    219 H219       -4.7586  -28.6934  -50.3764 H         1 UNK         0.0600 
    220 H220       -5.6177  -24.1986  -51.3058 H         1 UNK         0.3000 
    221 H221       -6.2064  -22.6675  -52.7569 H         1 UNK         0.0600 
    222 H222       -8.1643  -24.7104  -53.9184 H         1 UNK         0.0600 
    223 H223       -8.4515  -23.7370  -52.4759 H         1 UNK         0.0600 
    224 H224       -8.2776  -22.9606  -54.0395 H         1 UNK         0.0600 
    225 H225       -3.9853  -24.5386  -53.5975 H         1 UNK         0.3000 
    226 H226       -4.0108  -24.4010  -56.5312 H         1 UNK         0.0600 
    227 H227       -2.9294  -26.3137  -55.3269 H         1 UNK         0.0600 
    228 H228       -1.7925  -25.4436  -56.3474 H         1 UNK         0.0600 
    229 H229       -1.7687  -25.1973  -54.6072 H         1 UNK         0.0600 
    230 H230       -2.7263  -22.5316  -53.7885 H         1 UNK         0.3000 
    231 H231       -1.0124  -20.8391  -55.4841 H         1 UNK         0.0600 
    232 H232       -0.4452  -19.7579  -53.3434 H         1 UNK         0.0600 
    233 H233       -0.3142  -21.5013  -53.1554 H         1 UNK         0.0600 
    234 H234       -1.7114  -20.6436  -52.5079 H         1 UNK         0.0600 
    235 H235       -1.3883  -18.6221  -55.8282 H         1 UNK         0.3000 
    236 H236       -4.2024  -17.7006  -55.7564 H         1 UNK         0.0600 
    237 H237       -3.3256  -15.8642  -57.1825 H         1 UNK         0.0600 
    238 H238       -1.6899  -16.4972  -57.0397 H         1 UNK         0.0600 
    239 H239       -2.9309  -17.4289  -57.8764 H         1 UNK         0.0600 
    240 H240       -4.8811  -16.3418  -54.1867 H         1 UNK         0.3000 
    241 H241       -3.0385  -15.3900  -52.1306 H         1 UNK         0.0600 
    242 H242       -3.5995  -13.9594  -55.0830 H         1 UNK         0.3800 
    243 H243       -3.5632  -12.2930  -54.5696 H         1 UNK         0.3800 
    244 H244       -5.0363  -14.7853  -50.8662 H         1 UNK         0.0800 
    245 H245       -6.0632  -15.0392  -52.2506 H         1 UNK         0.0800 
    246 H246       -5.7319  -17.9256  -49.0709 H         1 UNK         0.0800 
    247 H247       -5.5868  -16.1924  -49.0884 H         1 UNK         0.0800 
@<TRIPOS>BOND
     1    1    2 1    
     2    1  127 1    
     3    1  128 1    
     4    1  129 1    
     5    2    3 2    
     6    2    4 am   BACKBONE|DICT|INTERRES
     7    4    5 1    
     8    4  130 1    
     9    5    6 1    
    10    5   65 1    
    11    5  131 1    
    12    6    7 1    
    13    6  132 1    
    14    6  133 1    
    15    7    8 1    
    16    8    9 1    
    17    8  134 1    
    18    8  135 1    
    19    9   10 ar   
    20    9   14 ar   
    21   10   11 ar   
    22   10  136 1    
    23   11   12 ar   
    24   11  126 1    
    25   12   13 ar   
    26   12  137 1    
    27   13   14 ar   
    28   13   15 1    
    29   14  138 1    
    30   15   16 1    
    31   15  139 1    
    32   15  140 1    
    33   16   17 1    
    34   17   18 1    
    35   17  141 1    
    36   17  142 1    
    37   18   19 1    
    38   18   67 1    
    39   18  143 1    
    40   19   20 am   BACKBONE|DICT|INTERRES
    41   19  144 1    
    42   20   21 2    
    43   20   22 1    
    44   22   23 1    
    45   22   24 1    
    46   22  145 1    
    47   23  146 1    
    48   23  147 1    
    49   23  148 1    
    50   24   25 am   BACKBONE|DICT|INTERRES
    51   24  149 1    
    52   25   26 2    
    53   25   27 1    
    54   27   28 1    
    55   27   29 1    
    56   27  150 1    
    57   28  151 1    
    58   28  152 1    
    59   28  153 1    
    60   29   30 am   BACKBONE|DICT|INTERRES
    61   29  154 1    
    62   30   31 2    
    63   30   32 1    
    64   32   33 1    
    65   32   34 1    
    66   32  155 1    
    67   33  156 1    
    68   33  157 1    
    69   33  158 1    
    70   34   35 am   BACKBONE|DICT|INTERRES
    71   34  159 1    
    72   35   36 2    
    73   35   37 1    
    74   37   38 1    
    75   37   39 1    
    76   37  160 1    
    77   38  161 1    
    78   38  162 1    
    79   38  163 1    
    80   39   40 am   BACKBONE|DICT|INTERRES
    81   39  164 1    
    82   40   41 2    
    83   40   42 1    
    84   42   43 1    
    85   42   44 1    
    86   42  165 1    
    87   43  166 1    
    88   43  167 1    
    89   43  168 1    
    90   44   45 am   BACKBONE|DICT|INTERRES
    91   44  169 1    
    92   45   46 2    
    93   45   47 1    
    94   47   48 1    
    95   47   49 1    
    96   47  170 1    
    97   48  171 1    
    98   48  172 1    
    99   48  173 1    
   100   49   50 am   BACKBONE|DICT|INTERRES
   101   49  174 1    
   102   50   51 2    
   103   50   52 1    
   104   52   53 1    
   105   52   54 1    
   106   52  175 1    
   107   53  176 1    
   108   53  177 1    
   109   53  178 1    
   110   54   55 am   BACKBONE|DICT|INTERRES
   111   54  179 1    
   112   55   56 2    
   113   55   57 1    
   114   57   58 1    
   115   57   59 1    
   116   57  180 1    
   117   58  181 1    
   118   58  182 1    
   119   58  183 1    
   120   59   60 am   BACKBONE|DICT|INTERRES
   121   59  184 1    
   122   60   61 2    
   123   60   62 1    
   124   62   63 1    
   125   62   64 1    
   126   62  185 1    
   127   63  186 1    
   128   63  187 1    
   129   63  188 1    
   130   64   65 am   BACKBONE|DICT|INTERRES
   131   64  189 1    
   132   65   66 2    
   133   67   68 2    
   134   67   69 am   BACKBONE|DICT|INTERRES
   135   69   70 1    
   136   69  190 1    
   137   70   71 1    
   138   70   72 1    
   139   70  191 1    
   140   71  192 1    
   141   71  193 1    
   142   71  194 1    
   143   72   73 2    
   144   72   74 am   BACKBONE|DICT|INTERRES
   145   74   75 1    
   146   74  195 1    
   147   75   76 1    
   148   75   77 1    
   149   75  196 1    
   150   76  197 1    
   151   76  198 1    
   152   76  199 1    
   153   77   78 2    
   154   77   79 am   BACKBONE|DICT|INTERRES
   155   79   80 1    
   156   79  200 1    
   157   80   81 1    
   158   80   82 1    
   159   80  201 1    
   160   81  202 1    
   161   81  203 1    
   162   81  204 1    
   163   82   83 2    
   164   82   84 am   BACKBONE|DICT|INTERRES
   165   84   85 1    
   166   84  205 1    
   167   85   86 1    
   168   85   87 1    
   169   85  206 1    
   170   86  207 1    
   171   86  208 1    
   172   86  209 1    
   173   87   88 2    
   174   87   89 am   BACKBONE|DICT|INTERRES
   175   89   90 1    
   176   89  210 1    
   177   90   91 1    
   178   90   92 1    
   179   90  211 1    
   180   91  212 1    
   181   91  213 1    
   182   91  214 1    
   183   92   93 2    
   184   92   94 am   BACKBONE|DICT|INTERRES
   185   94   95 1    
   186   94  215 1    
   187   95   96 1    
   188   95   97 1    
   189   95  216 1    
   190   96  217 1    
   191   96  218 1    
   192   96  219 1    
   193   97   98 2    
   194   97   99 am   BACKBONE|DICT|INTERRES
   195   99  100 1    
   196   99  220 1    
   197  100  101 1    
   198  100  102 1    
   199  100  221 1    
   200  101  222 1    
   201  101  223 1    
   202  101  224 1    
   203  102  103 2    
   204  102  104 am   BACKBONE|DICT|INTERRES
   205  104  105 1    
   206  104  225 1    
   207  105  106 1    
   208  105  107 1    
   209  105  226 1    
   210  106  227 1    
   211  106  228 1    
   212  106  229 1    
   213  107  108 2    
   214  107  109 am   BACKBONE|DICT|INTERRES
   215  109  110 1    
   216  109  230 1    
   217  110  111 1    
   218  110  112 1    
   219  110  231 1    
   220  111  232 1    
   221  111  233 1    
   222  111  234 1    
   223  112  113 2    
   224  112  114 am   BACKBONE|DICT|INTERRES
   225  114  115 1    
   226  114  235 1    
   227  115  116 1    
   228  115  117 1    
   229  115  236 1    
   230  116  237 1    
   231  116  238 1    
   232  116  239 1    
   233  117  118 2    
   234  117  119 am   BACKBONE|DICT|INTERRES
   235  119  120 1    
   236  119  240 1    
   237  120  121 1    
   238  120  124 1    
   239  120  241 1    
   240  121  122 am   BACKBONE|DICT|INTERRES
   241  121  123 2    
   242  122  242 1    
   243  122  243 1    
   244  124  125 1    
   245  124  244 1    
   246  124  245 1    
   247  125  126 1    
   248  126  246 1    
   249  126  247 1    
@<TRIPOS>SUBSTRUCTURE
     1 UNK         1 GROUP             0       ****    0 ROOT    
