@<TRIPOS>MOLECULE
3R540
247   249    1
SMALL
USER_CHARGES


@<TRIPOS>ATOM
      1 CA         -3.4858  -15.1775  -50.4430 C.3       0 UNK        -0.1800 
      2 C          -2.5808  -14.5169  -49.4130 C.2       0 UNK         0.5000 
      3 O          -2.9516  -13.4987  -48.8290 O.2       0 UNK        -0.5000 
      4 N          -1.3948  -15.0940  -49.1821 N.am      1 UNK        -0.5000 
      5 CA         -0.3708  -14.5864  -48.2581 C.3       1 UNK         0.1400 
      6 C6          1.0363  -15.1369  -48.5986 C.3       23 UNK        -0.0398 
      7 S7          1.1515  -16.9588  -48.5220 S.3       23 UNK        -0.2404 
      8 C8          1.7429  -17.3492  -50.1930 C.3       23 UNK        -0.0205 
      9 C9          1.9151  -18.8479  -50.3599 C.ar      23 UNK        -0.0193 
     10 C10         0.9295  -19.6030  -50.9962 C.ar      23 UNK        -0.1150 
     11 C11         1.0779  -20.9838  -51.1490 C.ar      23 UNK        -0.0193 
     12 C12         2.2286  -21.6092  -50.6577 C.ar      23 UNK        -0.1150 
     13 C13         3.2225  -20.8623  -50.0153 C.ar      23 UNK        -0.0193 
     14 C14         3.0593  -19.4818  -49.8723 C.ar      23 UNK        -0.1150 
     15 C15         4.4855  -21.5294  -49.4881 C.3       23 UNK        -0.0205 
     16 S16         4.1645  -22.7853  -48.2086 S.3       23 UNK        -0.2404 
     17 C17         3.2554  -21.8554  -46.9240 C.3       23 UNK        -0.0398 
     18 CA          1.9881  -22.6237  -46.4764 C.3       11 UNK         0.1400 
     19 N           1.5961  -22.3037  -45.1032 N.am      11 UNK        -0.5000 
     20 C           0.9638  -23.1581  -44.2859 C.2       10 UNK         0.5000 
     21 O           0.7298  -24.3322  -44.5732 O.2       10 UNK        -0.5000 
     22 CA          0.4928  -22.6151  -42.9225 C.3       10 UNK         0.1400 
     23 CB          1.5666  -22.8464  -41.8488 C.3       10 UNK        -0.1800 
     24 N           0.1367  -21.1968  -42.9505 N.am      10 UNK        -0.5000 
     25 C          -0.8559  -20.6717  -43.6807 C.2       9 UNK         0.5000 
     26 O          -1.6144  -21.3379  -44.3850 O.2       9 UNK        -0.5000 
     27 CA         -0.9871  -19.1385  -43.6628 C.3       9 UNK         0.1400 
     28 CB         -1.8074  -18.6785  -42.4493 C.3       9 UNK        -0.1800 
     29 N           0.3016  -18.4397  -43.6885 N.am      9 UNK        -0.5000 
     30 C           1.2261  -18.5616  -44.6544 C.2       8 UNK         0.5000 
     31 O           1.0966  -19.2878  -45.6380 O.2       8 UNK        -0.5000 
     32 CA          2.5514  -17.8115  -44.4451 C.3       8 UNK         0.1400 
     33 CB          2.4177  -16.3175  -44.7773 C.3       8 UNK        -0.1800 
     34 N           3.0302  -17.9776  -43.0747 N.am      8 UNK        -0.5000 
     35 C           3.5416  -19.1192  -42.5912 C.2       7 UNK         0.5000 
     36 O           3.7471  -20.1214  -43.2765 O.2       7 UNK        -0.5000 
     37 CA          3.8389  -19.1560  -41.0800 C.3       7 UNK         0.1400 
     38 CB          5.2553  -18.6345  -40.7956 C.3       7 UNK        -0.1800 
     39 N           2.8737  -18.3814  -40.2965 N.am      7 UNK        -0.5000 
     40 C           1.5783  -18.6992  -40.1577 C.2       6 UNK         0.5000 
     41 O           1.0729  -19.7149  -40.6327 O.2       6 UNK        -0.5000 
     42 CA          0.6909  -17.6865  -39.4071 C.3       6 UNK         0.1400 
     43 CB          0.6802  -17.9911  -37.9020 C.3       6 UNK        -0.1800 
     44 N           1.1055  -16.2966  -39.6199 N.am      6 UNK        -0.5000 
     45 C           1.0794  -15.6698  -40.8032 C.2       5 UNK         0.5000 
     46 O           0.6655  -16.1864  -41.8440 O.2       5 UNK        -0.5000 
     47 CA          1.7044  -14.2708  -40.8388 C.3       5 UNK         0.1400 
     48 CB          3.2421  -14.3957  -40.8936 C.3       5 UNK        -0.1800 
     49 N           1.2145  -13.5393  -42.0046 N.am      5 UNK        -0.5000 
     50 C           1.4011  -12.2319  -42.2249 C.2       4 UNK         0.5000 
     51 O           1.9573  -11.4759  -41.4268 O.2       4 UNK        -0.5000 
     52 CA          0.8939  -11.6670  -43.5621 C.3       4 UNK         0.1400 
     53 CB          1.8996  -11.9653  -44.6856 C.3       4 UNK        -0.1800 
     54 N          -0.4285  -12.1711  -43.9342 N.am      4 UNK        -0.5000 
     55 C          -1.5743  -11.7549  -43.3721 C.2       3 UNK         0.5000 
     56 O          -1.6174  -10.9420  -42.4475 O.2       3 UNK        -0.5000 
     57 CA         -2.9018  -12.2982  -43.9435 C.3       3 UNK         0.1400 
     58 CB         -3.5600  -11.2507  -44.8550 C.3       3 UNK        -0.1800 
     59 N          -2.7522  -13.5416  -44.6967 N.am      3 UNK        -0.5000 
     60 C          -2.4931  -14.7350  -44.1490 C.2       2 UNK         0.5000 
     61 O          -2.4390  -14.9264  -42.9346 O.2       2 UNK        -0.5000 
     62 CA         -2.2309  -15.9088  -45.1144 C.3       2 UNK         0.1400 
     63 CB         -3.4830  -16.7917  -45.2346 C.3       2 UNK        -0.1800 
     64 N          -1.7912  -15.5327  -46.4623 N.am      2 UNK        -0.5000 
     65 C          -0.7124  -14.7951  -46.7644 C.2       1 UNK         0.5000 
     66 O           0.0037  -14.2737  -45.9108 O.2       1 UNK        -0.5000 
     67 C           0.8002  -22.4289  -47.4402 C.2       11 UNK         0.5000 
     68 O           0.5387  -23.3119  -48.2572 O.2       11 UNK        -0.5000 
     69 N           0.0632  -21.3157  -47.2874 N.am      12 UNK        -0.5000 
     70 CA         -1.1301  -20.9608  -48.0656 C.3       12 UNK         0.1400 
     71 CB         -1.7056  -19.6327  -47.5531 C.3       12 UNK        -0.1800 
     72 C          -2.2181  -22.0491  -48.0590 C.2       12 UNK         0.5000 
     73 O          -2.8491  -22.2806  -49.0905 O.2       12 UNK        -0.5000 
     74 N          -2.3498  -22.7451  -46.9196 N.am      13 UNK        -0.5000 
     75 CA         -3.2175  -23.9015  -46.6911 C.3       13 UNK         0.1400 
     76 CB         -2.9876  -24.4203  -45.2640 C.3       13 UNK        -0.1800 
     77 C          -3.0599  -25.0505  -47.7091 C.2       13 UNK         0.5000 
     78 O          -4.0207  -25.7930  -47.9159 O.2       13 UNK        -0.5000 
     79 N          -1.8952  -25.1544  -48.3703 N.am      14 UNK        -0.5000 
     80 CA         -1.6425  -26.0842  -49.4766 C.3       14 UNK         0.1400 
     81 CB         -0.1561  -26.0270  -49.8601 C.3       14 UNK        -0.1800 
     82 C          -2.5236  -25.8244  -50.7177 C.2       14 UNK         0.5000 
     83 O          -2.7390  -26.7469  -51.5047 O.2       14 UNK        -0.5000 
     84 N          -3.0352  -24.5945  -50.8546 N.am      15 UNK        -0.5000 
     85 CA         -3.9977  -24.1773  -51.8703 C.3       15 UNK         0.1400 
     86 CB         -3.3043  -23.2186  -52.8515 C.3       15 UNK        -0.1800 
     87 C          -5.2404  -23.5554  -51.2020 C.2       15 UNK         0.5000 
     88 O          -5.8620  -22.6590  -51.7765 O.2       15 UNK        -0.5000 
     89 N          -5.5789  -24.0392  -49.9953 N.am      16 UNK        -0.5000 
     90 CA         -6.6867  -23.6153  -49.1347 C.3       16 UNK         0.1400 
     91 CB         -8.0427  -24.0236  -49.7518 C.3       16 UNK        -0.1800 
     92 C          -6.5988  -22.1199  -48.7671 C.2       16 UNK         0.5000 
     93 O          -5.8752  -21.7668  -47.8366 O.2       16 UNK        -0.5000 
     94 N          -7.3323  -21.2720  -49.4982 N.am      17 UNK        -0.5000 
     95 CA         -7.3086  -19.8157  -49.3589 C.3       17 UNK         0.1400 
     96 CB         -8.6277  -19.2514  -49.9114 C.3       17 UNK        -0.1800 
     97 C          -6.1088  -19.1585  -50.0709 C.2       17 UNK         0.5000 
     98 O          -5.8390  -17.9849  -49.8170 O.2       17 UNK        -0.5000 
     99 N          -5.4425  -19.9026  -50.9690 N.am      18 UNK        -0.5000 
    100 CA        -4.3473  -19.4716  -51.8461 C.3       18 UNK         0.1400 
    101 CB        -3.0888  -19.0899  -51.0414 C.3       18 UNK        -0.1800 
    102 C         -4.7668  -18.4078  -52.8821 C.2       18 UNK         0.5000 
    103 O         -3.9270  -17.6422  -53.3584 O.2       18 UNK        -0.5000 
    104 N         -6.0557  -18.4154  -53.2486 N.am      19 UNK        -0.5000 
    105 CA        -6.6348  -17.5960  -54.3155 C.3       19 UNK         0.1400 
    106 CB        -8.1403  -17.4412  -54.0481 C.3       19 UNK        -0.1800 
    107 C         -6.3910  -18.1899  -55.7197 C.2       19 UNK         0.5000 
    108 O         -6.5723  -17.4878  -56.7153 O.2       19 UNK        -0.5000 
    109 N         -5.9907  -19.4646  -55.7723 N.am      20 UNK        -0.5000 
    110 CA        -5.5974  -20.2094  -56.9626 C.3       20 UNK         0.1400 
    111 CB        -6.7060  -21.2178  -57.3070 C.3       20 UNK        -0.1800 
    112 C         -4.2700  -20.9256  -56.6677 C.2       20 UNK         0.5000 
    113 O         -3.8606  -20.9991  -55.5044 O.2       20 UNK        -0.5000 
    114 N         -3.6196  -21.4366  -57.7227 N.am      21 UNK        -0.5000 
    115 CA        -2.2992  -22.0781  -57.7059 C.3       21 UNK         0.1400 
    116 CB        -2.3550  -23.4326  -56.9611 C.3       21 UNK        -0.1800 
    117 C         -1.2281  -21.1007  -57.1766 C.2       21 UNK         0.5000 
    118 O         -1.0043  -20.0666  -57.8090 O.2       21 UNK        -0.5000 
    119 N         -0.6165  -21.4147  -56.0288 N.am      22 UNK        -0.5000 
    120 CA         0.2613  -20.5077  -55.2724 C.3       22 UNK         0.1400 
    121 C         -0.4741  -19.3509  -54.5305 C.2       22 UNK         0.5000 
    122 N         -1.7981  -19.3444  -54.4447 N.am      22 UNK        -0.7600 
    123 O          0.1705  -18.4226  -54.0519 O.2       22 UNK        -0.5000 
    124 C124        1.2458  -21.2745  -54.3481 C.3       23 UNK        -0.0398 
    125 S125        0.5114  -22.6247  -53.3511 S.3       23 UNK        -0.2404 
    126 C126       -0.0244  -21.7888  -51.8227 C.3       23 UNK        -0.0205 
    127 H127       -4.3277  -15.6617  -49.9486 H         1 UNK         0.0600 
    128 H128       -2.9533  -15.9276  -51.0281 H         1 UNK         0.0600 
    129 H129       -3.8786  -14.4316  -51.1339 H         1 UNK         0.0600 
    130 H130       -1.1477  -15.9413  -49.6735 H         1 UNK         0.3000 
    131 H131       -0.3229  -13.5039  -48.3951 H         1 UNK         0.0600 
    132 H132        1.7878  -14.7159  -47.9281 H         1 UNK         0.0800 
    133 H133        1.3205  -14.7973  -49.5954 H         1 UNK         0.0800 
    134 H134        2.6947  -16.8465  -50.3714 H         1 UNK         0.0800 
    135 H135        1.0404  -16.9616  -50.9328 H         1 UNK         0.0800 
    136 H136        0.0437  -19.1114  -51.3707 H         1 UNK         0.1150 
    137 H137        2.3445  -22.6785  -50.7663 H         1 UNK         0.1150 
    138 H138        3.8198  -18.8954  -49.3760 H         1 UNK         0.1150 
    139 H139        5.0048  -22.0039  -50.3217 H         1 UNK         0.0800 
    140 H140        5.1758  -20.7884  -49.0819 H         1 UNK         0.0800 
    141 H141        3.0163  -20.8430  -47.2536 H         1 UNK         0.0800 
    142 H142        3.9367  -21.7372  -46.0800 H         1 UNK         0.0800 
    143 H143        2.2351  -23.6879  -46.4966 H         1 UNK         0.0600 
    144 H144        1.7242  -21.3457  -44.8048 H         1 UNK         0.3000 
    145 H145       -0.4007  -23.1746  -42.6381 H         1 UNK         0.0600 
    146 H146        1.2102  -22.5457  -40.8634 H         1 UNK         0.0600 
    147 H147        2.4757  -22.2833  -42.0621 H         1 UNK         0.0600 
    148 H148        1.8390  -23.9008  -41.7880 H         1 UNK         0.0600 
    149 H149        0.6620  -20.5831  -42.3346 H         1 UNK         0.3000 
    150 H150       -1.5257  -18.8468  -44.5625 H         1 UNK         0.0600 
    151 H151       -2.8248  -19.0676  -42.5012 H         1 UNK         0.0600 
    152 H152       -1.8757  -17.5920  -42.3994 H         1 UNK         0.0600 
    153 H153       -1.3742  -19.0291  -41.5136 H         1 UNK         0.0600 
    154 H154        0.4820  -17.7914  -42.9274 H         1 UNK         0.3000 
    155 H155        3.2919  -18.2398  -45.1242 H         1 UNK         0.0600 
    156 H156        2.1640  -16.1790  -45.8274 H         1 UNK         0.0600 
    157 H157        3.3519  -15.7853  -44.5984 H         1 UNK         0.0600 
    158 H158        1.6378  -15.8308  -44.1934 H         1 UNK         0.0600 
    159 H159        2.8479  -17.2185  -42.4362 H         1 UNK         0.3000 
    160 H160        3.7841  -20.1974  -40.7556 H         1 UNK         0.0600 
    161 H161        5.3646  -17.5869  -41.0790 H         1 UNK         0.0600 
    162 H162        5.9999  -19.2050  -41.3525 H         1 UNK         0.0600 
    163 H163        5.5035  -18.7244  -39.7379 H         1 UNK         0.0600 
    164 H164        3.2116  -17.5360  -39.8619 H         1 UNK         0.3000 
    165 H165       -0.3282  -17.7927  -39.7828 H         1 UNK         0.0600 
    166 H166       -0.0046  -17.3299  -37.3706 H         1 UNK         0.0600 
    167 H167        0.3529  -19.0146  -37.7139 H         1 UNK         0.0600 
    168 H168        1.6704  -17.8765  -37.4594 H         1 UNK         0.0600 
    169 H169        1.4671  -15.8080  -38.8132 H         1 UNK         0.3000 
    170 H170        1.4067  -13.7355  -39.9349 H         1 UNK         0.0600 
    171 H171        3.5714  -14.8833  -41.8121 H         1 UNK         0.0600 
    172 H172        3.7277  -13.4215  -40.8435 H         1 UNK         0.0600 
    173 H173        3.6242  -14.9798  -40.0557 H         1 UNK         0.0600 
    174 H174        0.7090  -14.1020  -42.6777 H         1 UNK         0.3000 
    175 H175        0.8267  -10.5815  -43.4607 H         1 UNK         0.0600 
    176 H176        2.0658  -13.0363  -44.8072 H         1 UNK         0.0600 
    177 H177        1.5562  -11.5683  -45.6410 H         1 UNK         0.0600 
    178 H178        2.8668  -11.5093  -44.4715 H         1 UNK         0.0600 
    179 H179       -0.4535  -12.8712  -44.6702 H         1 UNK         0.3000 
    180 H180       -3.5700  -12.4842  -43.1000 H         1 UNK         0.0600 
    181 H181       -4.5337  -11.5907  -45.2082 H         1 UNK         0.0600 
    182 H182       -2.9429  -11.0331  -45.7279 H         1 UNK         0.0600 
    183 H183       -3.7188  -10.3120  -44.3225 H         1 UNK         0.0600 
    184 H184       -2.7790  -13.4723  -45.7040 H         1 UNK         0.3000 
    185 H185       -1.4244  -16.4944  -44.6746 H         1 UNK         0.0600 
    186 H186       -4.3139  -16.2469  -45.6846 H         1 UNK         0.0600 
    187 H187       -3.2929  -17.6731  -45.8461 H         1 UNK         0.0600 
    188 H188       -3.8125  -17.1413  -44.2553 H         1 UNK         0.0600 
    189 H189       -2.3292  -15.9039  -47.2308 H         1 UNK         0.3000 
    190 H190        0.3736  -20.6206  -46.6111 H         1 UNK         0.3000 
    191 H191       -0.8122  -20.8190  -49.0974 H         1 UNK         0.0600 
    192 H192       -0.9543  -18.8440  -47.5488 H         1 UNK         0.0600 
    193 H193       -2.0938  -19.7382  -46.5423 H         1 UNK         0.0600 
    194 H194       -2.5331  -19.2942  -48.1759 H         1 UNK         0.0600 
    195 H195       -1.8186  -22.4249  -46.1164 H         1 UNK         0.3000 
    196 H196       -4.2469  -23.5493  -46.7619 H         1 UNK         0.0600 
    197 H197       -3.1995  -23.6485  -44.5238 H         1 UNK         0.0600 
    198 H198       -1.9583  -24.7502  -45.1197 H         1 UNK         0.0600 
    199 H199       -3.6389  -25.2671  -45.0440 H         1 UNK         0.0600 
    200 H200       -1.1560  -24.4873  -48.1711 H         1 UNK         0.3000 
    201 H201       -1.8653  -27.0915  -49.1196 H         1 UNK         0.0600 
    202 H202        0.4843  -26.2203  -48.9993 H         1 UNK         0.0600 
    203 H203        0.1155  -25.0527  -50.2689 H         1 UNK         0.0600 
    204 H204        0.0805  -26.7753  -50.6174 H         1 UNK         0.0600 
    205 H205       -2.8250  -23.8905  -50.1502 H         1 UNK         0.3000 
    206 H206       -4.3571  -25.0393  -52.4351 H         1 UNK         0.0600 
    207 H207       -2.9329  -22.3311  -52.3415 H         1 UNK         0.0600 
    208 H208       -2.4582  -23.7014  -53.3398 H         1 UNK         0.0600 
    209 H209       -3.9882  -22.8937  -53.6357 H         1 UNK         0.0600 
    210 H210       -4.9816  -24.7522  -49.5947 H         1 UNK         0.3000 
    211 H211       -6.5760  -24.1666  -48.1996 H         1 UNK         0.0600 
    212 H212       -8.2025  -23.5889  -50.7387 H         1 UNK         0.0600 
    213 H213       -8.8720  -23.7134  -49.1146 H         1 UNK         0.0600 
    214 H214       -8.1080  -25.1064  -49.8580 H         1 UNK         0.0600 
    215 H215       -7.8781  -21.6481  -50.2602 H         1 UNK         0.3000 
    216 H216       -7.2439  -19.5592  -48.2994 H         1 UNK         0.0600 
    217 H217       -8.6673  -18.1669  -49.7995 H         1 UNK         0.0600 
    218 H218       -9.4858  -19.6623  -49.3792 H         1 UNK         0.0600 
    219 H219       -8.7505  -19.4759  -50.9717 H         1 UNK         0.0600 
    220 H220       -5.7403  -20.8655  -51.1054 H         1 UNK         0.3000 
    221 H221       -4.0891  -20.3450  -52.4440 H         1 UNK         0.0600 
    222 H222       -3.2719  -18.2625  -50.3573 H         1 UNK         0.0600 
    223 H223       -2.7379  -19.9397  -50.4594 H         1 UNK         0.0600 
    224 H224       -2.2697  -18.7949  -51.6962 H         1 UNK         0.0600 
    225 H225       -6.6728  -19.0765  -52.8008 H         1 UNK         0.3000 
    226 H226       -6.1778  -16.6045  -54.2910 H         1 UNK         0.0600 
    227 H227       -8.3229  -16.9819  -53.0763 H         1 UNK         0.0600 
    228 H228       -8.6077  -16.8044  -54.8003 H         1 UNK         0.0600 
    229 H229       -8.6541  -18.4032  -54.0671 H         1 UNK         0.0600 
    230 H230       -5.7817  -19.9366  -54.9036 H         1 UNK         0.3000 
    231 H231       -5.4405  -19.5318  -57.8043 H         1 UNK         0.0600 
    232 H232       -6.4597  -21.7847  -58.2055 H         1 UNK         0.0600 
    233 H233       -7.6530  -20.7111  -57.4935 H         1 UNK         0.0600 
    234 H234       -6.8632  -21.9333  -56.4987 H         1 UNK         0.0600 
    235 H235       -4.0212  -21.3059  -58.6405 H         1 UNK         0.3000 
    236 H236       -2.0377  -22.2848  -58.7447 H         1 UNK         0.0600 
    237 H237       -2.6270  -23.3223  -55.9113 H         1 UNK         0.0600 
    238 H238       -3.0884  -24.0958  -57.4198 H         1 UNK         0.0600 
    239 H239       -1.3924  -23.9437  -57.0031 H         1 UNK         0.0600 
    240 H240       -0.8697  -22.2699  -55.5555 H         1 UNK         0.3000 
    241 H241        0.8847  -19.9949  -56.0076 H         1 UNK         0.0600 
    242 H242       -2.2692  -18.5617  -54.0079 H         1 UNK         0.3800 
    243 H243       -2.3595  -20.0834  -54.8581 H         1 UNK         0.3800 
    244 H244        1.8061  -20.5902  -53.7098 H         1 UNK         0.0800 
    245 H245        2.0034  -21.7441  -54.9765 H         1 UNK         0.0800 
    246 H246       -0.3919  -22.5394  -51.1211 H         1 UNK         0.0800 
    247 H247       -0.8765  -21.1498  -52.0571 H         1 UNK         0.0800 
@<TRIPOS>BOND
     1    1    2 1    
     2    1  127 1    
     3    1  128 1    
     4    1  129 1    
     5    2    3 2    
     6    2    4 am   BACKBONE|DICT|INTERRES
     7    4    5 1    
     8    4  130 1    
     9    5    6 1    
    10    5   65 1    
    11    5  131 1    
    12    6    7 1    
    13    6  132 1    
    14    6  133 1    
    15    7    8 1    
    16    8    9 1    
    17    8  134 1    
    18    8  135 1    
    19    9   10 ar   
    20    9   14 ar   
    21   10   11 ar   
    22   10  136 1    
    23   11   12 ar   
    24   11  126 1    
    25   12   13 ar   
    26   12  137 1    
    27   13   14 ar   
    28   13   15 1    
    29   14  138 1    
    30   15   16 1    
    31   15  139 1    
    32   15  140 1    
    33   16   17 1    
    34   17   18 1    
    35   17  141 1    
    36   17  142 1    
    37   18   19 1    
    38   18   67 1    
    39   18  143 1    
    40   19   20 am   BACKBONE|DICT|INTERRES
    41   19  144 1    
    42   20   21 2    
    43   20   22 1    
    44   22   23 1    
    45   22   24 1    
    46   22  145 1    
    47   23  146 1    
    48   23  147 1    
    49   23  148 1    
    50   24   25 am   BACKBONE|DICT|INTERRES
    51   24  149 1    
    52   25   26 2    
    53   25   27 1    
    54   27   28 1    
    55   27   29 1    
    56   27  150 1    
    57   28  151 1    
    58   28  152 1    
    59   28  153 1    
    60   29   30 am   BACKBONE|DICT|INTERRES
    61   29  154 1    
    62   30   31 2    
    63   30   32 1    
    64   32   33 1    
    65   32   34 1    
    66   32  155 1    
    67   33  156 1    
    68   33  157 1    
    69   33  158 1    
    70   34   35 am   BACKBONE|DICT|INTERRES
    71   34  159 1    
    72   35   36 2    
    73   35   37 1    
    74   37   38 1    
    75   37   39 1    
    76   37  160 1    
    77   38  161 1    
    78   38  162 1    
    79   38  163 1    
    80   39   40 am   BACKBONE|DICT|INTERRES
    81   39  164 1    
    82   40   41 2    
    83   40   42 1    
    84   42   43 1    
    85   42   44 1    
    86   42  165 1    
    87   43  166 1    
    88   43  167 1    
    89   43  168 1    
    90   44   45 am   BACKBONE|DICT|INTERRES
    91   44  169 1    
    92   45   46 2    
    93   45   47 1    
    94   47   48 1    
    95   47   49 1    
    96   47  170 1    
    97   48  171 1    
    98   48  172 1    
    99   48  173 1    
   100   49   50 am   BACKBONE|DICT|INTERRES
   101   49  174 1    
   102   50   51 2    
   103   50   52 1    
   104   52   53 1    
   105   52   54 1    
   106   52  175 1    
   107   53  176 1    
   108   53  177 1    
   109   53  178 1    
   110   54   55 am   BACKBONE|DICT|INTERRES
   111   54  179 1    
   112   55   56 2    
   113   55   57 1    
   114   57   58 1    
   115   57   59 1    
   116   57  180 1    
   117   58  181 1    
   118   58  182 1    
   119   58  183 1    
   120   59   60 am   BACKBONE|DICT|INTERRES
   121   59  184 1    
   122   60   61 2    
   123   60   62 1    
   124   62   63 1    
   125   62   64 1    
   126   62  185 1    
   127   63  186 1    
   128   63  187 1    
   129   63  188 1    
   130   64   65 am   BACKBONE|DICT|INTERRES
   131   64  189 1    
   132   65   66 2    
   133   67   68 2    
   134   67   69 am   BACKBONE|DICT|INTERRES
   135   69   70 1    
   136   69  190 1    
   137   70   71 1    
   138   70   72 1    
   139   70  191 1    
   140   71  192 1    
   141   71  193 1    
   142   71  194 1    
   143   72   73 2    
   144   72   74 am   BACKBONE|DICT|INTERRES
   145   74   75 1    
   146   74  195 1    
   147   75   76 1    
   148   75   77 1    
   149   75  196 1    
   150   76  197 1    
   151   76  198 1    
   152   76  199 1    
   153   77   78 2    
   154   77   79 am   BACKBONE|DICT|INTERRES
   155   79   80 1    
   156   79  200 1    
   157   80   81 1    
   158   80   82 1    
   159   80  201 1    
   160   81  202 1    
   161   81  203 1    
   162   81  204 1    
   163   82   83 2    
   164   82   84 am   BACKBONE|DICT|INTERRES
   165   84   85 1    
   166   84  205 1    
   167   85   86 1    
   168   85   87 1    
   169   85  206 1    
   170   86  207 1    
   171   86  208 1    
   172   86  209 1    
   173   87   88 2    
   174   87   89 am   BACKBONE|DICT|INTERRES
   175   89   90 1    
   176   89  210 1    
   177   90   91 1    
   178   90   92 1    
   179   90  211 1    
   180   91  212 1    
   181   91  213 1    
   182   91  214 1    
   183   92   93 2    
   184   92   94 am   BACKBONE|DICT|INTERRES
   185   94   95 1    
   186   94  215 1    
   187   95   96 1    
   188   95   97 1    
   189   95  216 1    
   190   96  217 1    
   191   96  218 1    
   192   96  219 1    
   193   97   98 2    
   194   97   99 am   BACKBONE|DICT|INTERRES
   195   99  100 1    
   196   99  220 1    
   197  100  101 1    
   198  100  102 1    
   199  100  221 1    
   200  101  222 1    
   201  101  223 1    
   202  101  224 1    
   203  102  103 2    
   204  102  104 am   BACKBONE|DICT|INTERRES
   205  104  105 1    
   206  104  225 1    
   207  105  106 1    
   208  105  107 1    
   209  105  226 1    
   210  106  227 1    
   211  106  228 1    
   212  106  229 1    
   213  107  108 2    
   214  107  109 am   BACKBONE|DICT|INTERRES
   215  109  110 1    
   216  109  230 1    
   217  110  111 1    
   218  110  112 1    
   219  110  231 1    
   220  111  232 1    
   221  111  233 1    
   222  111  234 1    
   223  112  113 2    
   224  112  114 am   BACKBONE|DICT|INTERRES
   225  114  115 1    
   226  114  235 1    
   227  115  116 1    
   228  115  117 1    
   229  115  236 1    
   230  116  237 1    
   231  116  238 1    
   232  116  239 1    
   233  117  118 2    
   234  117  119 am   BACKBONE|DICT|INTERRES
   235  119  120 1    
   236  119  240 1    
   237  120  121 1    
   238  120  124 1    
   239  120  241 1    
   240  121  122 am   BACKBONE|DICT|INTERRES
   241  121  123 2    
   242  122  242 1    
   243  122  243 1    
   244  124  125 1    
   245  124  244 1    
   246  124  245 1    
   247  125  126 1    
   248  126  246 1    
   249  126  247 1    
@<TRIPOS>SUBSTRUCTURE
     1 UNK         1 GROUP             0       ****    0 ROOT    
