@<TRIPOS>MOLECULE
3R540
247   249    1
SMALL
USER_CHARGES


@<TRIPOS>ATOM
      1 CA         -1.5308  -14.8085  -49.2544 C.3       0 UNK        -0.1800 
      2 C          -0.9996  -13.4806  -48.7301 C.2       0 UNK         0.5000 
      3 O          -1.5622  -12.4305  -49.0400 O.2       0 UNK        -0.5000 
      4 N           0.0894  -13.5219  -47.9530 N.am      1 UNK        -0.5000 
      5 CA          0.7455  -12.3561  -47.3548 C.3       1 UNK         0.1400 
      6 C6          2.1529  -12.6849  -46.7899 C.3       23 UNK        -0.0398 
      7 S7          3.2369  -13.5617  -47.9676 S.3       23 UNK        -0.2404 
      8 C8          3.1976  -15.2509  -47.2744 C.3       23 UNK        -0.0205 
      9 C9          3.1234  -16.3342  -48.3427 C.ar      23 UNK        -0.0193 
     10 C10         2.1856  -16.2593  -49.3793 C.ar      23 UNK        -0.1150 
     11 C11         2.0980  -17.2696  -50.3407 C.ar      23 UNK        -0.0193 
     12 C12         2.9572  -18.3687  -50.2563 C.ar      23 UNK        -0.1150 
     13 C13         3.8844  -18.4680  -49.2146 C.ar      23 UNK        -0.0193 
     14 C14         3.9670  -17.4454  -48.2657 C.ar      23 UNK        -0.1150 
     15 C15         4.7854  -19.6887  -49.1030 C.3       23 UNK        -0.0205 
     16 S16         4.2707  -20.7900  -47.7466 S.3       23 UNK        -0.2404 
     17 C17         2.5560  -21.1732  -48.2369 C.3       23 UNK        -0.0398 
     18 CA          1.9885  -22.3968  -47.4830 C.3       11 UNK         0.1400 
     19 N           1.8182  -22.1435  -46.0494 N.am      11 UNK        -0.5000 
     20 C           1.6290  -23.1021  -45.1326 C.2       10 UNK         0.5000 
     21 O           1.6399  -24.3067  -45.3888 O.2       10 UNK        -0.5000 
     22 CA          1.3530  -22.6418  -43.6896 C.3       10 UNK         0.1400 
     23 CB          2.6619  -22.2876  -42.9679 C.3       10 UNK        -0.1800 
     24 N           0.4245  -21.5121  -43.6180 N.am      10 UNK        -0.5000 
     25 C          -0.8568  -21.5580  -44.0112 C.2       9 UNK         0.5000 
     26 O          -1.4013  -22.5688  -44.4577 O.2       9 UNK        -0.5000 
     27 CA         -1.6612  -20.2486  -43.9213 C.3       9 UNK         0.1400 
     28 CB         -2.1632  -20.0176  -42.4884 C.3       9 UNK        -0.1800 
     29 N          -0.9089  -19.0776  -44.3719 N.am      9 UNK        -0.5000 
     30 C          -0.4296  -18.9048  -45.6124 C.2       8 UNK         0.5000 
     31 O          -0.5772  -19.7143  -46.5247 O.2       8 UNK        -0.5000 
     32 CA          0.4133  -17.6421  -45.8580 C.3       8 UNK         0.1400 
     33 CB         -0.4817  -16.3942  -45.9147 C.3       8 UNK        -0.1800 
     34 N           1.4494  -17.4682  -44.8403 N.am      8 UNK        -0.5000 
     35 C           2.4070  -18.3678  -44.5674 C.2       7 UNK         0.5000 
     36 O           2.5533  -19.4262  -45.1764 O.2       7 UNK        -0.5000 
     37 CA          3.3108  -18.0608  -43.3642 C.3       7 UNK         0.1400 
     38 CB          4.4343  -17.0897  -43.7575 C.3       7 UNK        -0.1800 
     39 N           2.5412  -17.5178  -42.2439 N.am      7 UNK        -0.5000 
     40 C           1.6669  -18.2308  -41.5175 C.2       6 UNK         0.5000 
     41 O           1.4589  -19.4325  -41.6845 O.2       6 UNK        -0.5000 
     42 CA          0.8579  -17.4621  -40.4563 C.3       6 UNK         0.1400 
     43 CB          1.6756  -17.2910  -39.1674 C.3       6 UNK        -0.1800 
     44 N           0.4168  -16.1498  -40.9313 N.am      6 UNK        -0.5000 
     45 C          -0.4746  -15.9629  -41.9151 C.2       5 UNK         0.5000 
     46 O          -1.0642  -16.8826  -42.4807 O.2       5 UNK        -0.5000 
     47 CA         -0.7153  -14.5117  -42.3758 C.3       5 UNK         0.1400 
     48 CB         -1.8876  -13.8859  -41.6068 C.3       5 UNK        -0.1800 
     49 N           0.4615  -13.6475  -42.2482 N.am      5 UNK        -0.5000 
     50 C           1.6271  -13.8440  -42.8777 C.2       4 UNK         0.5000 
     51 O           1.8487  -14.7992  -43.6245 O.2       4 UNK        -0.5000 
     52 CA          2.7019  -12.7773  -42.6328 C.3       4 UNK         0.1400 
     53 CB          4.0426  -13.0822  -43.3289 C.3       4 UNK        -0.1800 
     54 N           2.1921  -11.4803  -43.0698 N.am      4 UNK        -0.5000 
     55 C           2.4905  -10.3057  -42.5008 C.2       3 UNK         0.5000 
     56 O           3.2101  -10.1982  -41.5069 O.2       3 UNK        -0.5000 
     57 CA          1.9151   -9.0298  -43.1491 C.3       3 UNK         0.1400 
     58 CB          3.0464   -8.1774  -43.7471 C.3       3 UNK        -0.1800 
     59 N           0.9371   -9.3006  -44.2049 N.am      3 UNK        -0.5000 
     60 C          -0.3710   -9.5150  -44.0091 C.2       2 UNK         0.5000 
     61 O          -0.9052   -9.5311  -42.9001 O.2       2 UNK        -0.5000 
     62 CA         -1.2167   -9.7699  -45.2726 C.3       2 UNK         0.1400 
     63 CB         -1.7458   -8.4455  -45.8436 C.3       2 UNK        -0.1800 
     64 N          -0.4687  -10.4815  -46.3146 N.am      2 UNK        -0.5000 
     65 C          -0.1325  -11.7746  -46.2302 C.2       1 UNK         0.5000 
     66 O          -0.4515  -12.4979  -45.2855 O.2       1 UNK        -0.5000 
     67 C           0.6766  -22.8720  -48.1399 C.2       11 UNK         0.5000 
     68 O           0.7222  -23.7526  -49.0001 O.2       11 UNK        -0.5000 
     69 N          -0.4603  -22.2860  -47.7365 N.am      12 UNK        -0.5000 
     70 CA         -1.7867  -22.6113  -48.2552 C.3       12 UNK         0.1400 
     71 CB         -2.8079  -21.5634  -47.7863 C.3       12 UNK        -0.1800 
     72 C          -2.2520  -24.0277  -47.8837 C.2       12 UNK         0.5000 
     73 O          -2.7443  -24.7454  -48.7579 O.2       12 UNK        -0.5000 
     74 N          -2.0835  -24.3900  -46.6038 N.am      13 UNK        -0.5000 
     75 CA         -2.4216  -25.6795  -45.9962 C.3       13 UNK         0.1400 
     76 CB         -1.4438  -26.7630  -46.5030 C.3       13 UNK        -0.1800 
     77 C          -3.9093  -26.0686  -46.1719 C.2       13 UNK         0.5000 
     78 O          -4.7621  -25.1988  -46.3702 O.2       13 UNK        -0.5000 
     79 N          -4.2032  -27.3746  -46.1037 N.am      14 UNK        -0.5000 
     80 CA         -5.5401  -27.9502  -46.2890 C.3       14 UNK         0.1400 
     81 CB         -5.5054  -29.4294  -45.8751 C.3       14 UNK        -0.1800 
     82 C          -6.0857  -27.8045  -47.7253 C.2       14 UNK         0.5000 
     83 O          -7.2993  -27.8694  -47.9225 O.2       14 UNK        -0.5000 
     84 N          -5.1864  -27.5942  -48.6968 N.am      15 UNK        -0.5000 
     85 CA         -5.5053  -27.3292  -50.1004 C.3       15 UNK         0.1400 
     86 CB         -4.2492  -27.5983  -50.9450 C.3       15 UNK        -0.1800 
     87 C          -6.0156  -25.8962  -50.3532 C.2       15 UNK         0.5000 
     88 O          -6.4924  -25.6198  -51.4557 O.2       15 UNK        -0.5000 
     89 N          -5.8674  -25.0026  -49.3612 N.am      16 UNK        -0.5000 
     90 CA         -6.2089  -23.5773  -49.3989 C.3       16 UNK         0.1400 
     91 CB         -7.7389  -23.3871  -49.4554 C.3       16 UNK        -0.1800 
     92 C          -5.4688  -22.8326  -50.5289 C.2       16 UNK         0.5000 
     93 O          -6.0766  -22.0418  -51.2502 O.2       16 UNK        -0.5000 
     94 N          -4.1741  -23.1469  -50.6875 N.am      17 UNK        -0.5000 
     95 CA         -3.2730  -22.6780  -51.7462 C.3       17 UNK         0.1400 
     96 CB         -3.0373  -21.1549  -51.6469 C.3       17 UNK        -0.1800 
     97 C          -3.7493  -23.1145  -53.1440 C.2       17 UNK         0.5000 
     98 O          -3.7286  -22.3125  -54.0753 O.2       17 UNK        -0.5000 
     99 N          -4.2100  -24.3704  -53.2469 N.am      18 UNK        -0.5000 
    100 CA        -4.8290  -24.9845  -54.4273 C.3       18 UNK         0.1400 
    101 CB        -3.7862  -25.1932  -55.5452 C.3       18 UNK        -0.1800 
    102 C         -6.0776  -24.2038  -54.8902 C.2       18 UNK         0.5000 
    103 O         -6.2048  -23.8745  -56.0706 O.2       18 UNK        -0.5000 
    104 N         -6.9573  -23.9076  -53.9218 N.am      19 UNK        -0.5000 
    105 CA        -8.1625  -23.0824  -54.0381 C.3       19 UNK         0.1400 
    106 CB        -9.2135  -23.7642  -54.9394 C.3       19 UNK        -0.1800 
    107 C         -7.8435  -21.6305  -54.4576 C.2       19 UNK         0.5000 
    108 O         -8.3420  -21.1505  -55.4778 O.2       19 UNK        -0.5000 
    109 N         -7.0240  -20.9617  -53.6344 N.am      20 UNK        -0.5000 
    110 CA        -6.6215  -19.5545  -53.7154 C.3       20 UNK         0.1400 
    111 CB        -7.8338  -18.6276  -53.4848 C.3       20 UNK        -0.1800 
    112 C         -5.8236  -19.2077  -54.9898 C.2       20 UNK         0.5000 
    113 O         -6.0688  -18.1740  -55.6147 O.2       20 UNK        -0.5000 
    114 N         -4.8575  -20.0651  -55.3334 N.am      21 UNK        -0.5000 
    115 CA        -3.9210  -19.9053  -56.4433 C.3       21 UNK         0.1400 
    116 CB        -4.1115  -21.0782  -57.4221 C.3       21 UNK        -0.1800 
    117 C         -2.4835  -19.8094  -55.8930 C.2       21 UNK         0.5000 
    118 O         -1.5771  -20.4724  -56.4009 O.2       21 UNK        -0.5000 
    119 N         -2.3063  -18.9919  -54.8440 N.am      22 UNK        -0.5000 
    120 CA        -1.0269  -18.7655  -54.1461 C.3       22 UNK         0.1400 
    121 C          0.0720  -18.0821  -55.0147 C.2       22 UNK         0.5000 
    122 N         -0.2841  -17.2874  -56.0172 N.am      22 UNK        -0.7600 
    123 O          1.2608  -18.2884  -54.7904 O.2       22 UNK        -0.5000 
    124 C124       -1.2496  -18.0013  -52.8091 C.3       23 UNK        -0.0398 
    125 S125       -0.1248  -18.5120  -51.4632 S.3       23 UNK        -0.2404 
    126 C126        1.0956  -17.1587  -51.4820 C.3       23 UNK        -0.0205 
    127 H127       -2.4972  -15.0305  -48.8019 H         1 UNK         0.0600 
    128 H128       -0.8544  -15.6350  -49.0376 H         1 UNK         0.0600 
    129 H129       -1.6629  -14.7600  -50.3353 H         1 UNK         0.0600 
    130 H130        0.4981  -14.4122  -47.7178 H         1 UNK         0.3000 
    131 H131        0.8651  -11.6044  -48.1381 H         1 UNK         0.0600 
    132 H132        2.6615  -11.7633  -46.5014 H         1 UNK         0.0800 
    133 H133        2.0748  -13.2746  -45.8763 H         1 UNK         0.0800 
    134 H134        4.0816  -15.3827  -46.6486 H         1 UNK         0.0800 
    135 H135        2.3416  -15.3780  -46.6146 H         1 UNK         0.0800 
    136 H136        1.5312  -15.4038  -49.4477 H         1 UNK         0.1150 
    137 H137        2.8905  -19.1536  -50.9967 H         1 UNK         0.1150 
    138 H138        4.6779  -17.5294  -47.4556 H         1 UNK         0.1150 
    139 H139        4.7960  -20.2499  -50.0387 H         1 UNK         0.0800 
    140 H140        5.8126  -19.3661  -48.9280 H         1 UNK         0.0800 
    141 H141        2.5492  -21.3501  -49.3143 H         1 UNK         0.0800 
    142 H142        1.9333  -20.2931  -48.0625 H         1 UNK         0.0800 
    143 H143        2.7059  -23.2134  -47.5911 H         1 UNK         0.0600 
    144 H144        1.8629  -21.1726  -45.7506 H         1 UNK         0.3000 
    145 H145        0.8936  -23.4788  -43.1597 H         1 UNK         0.0600 
    146 H146        2.4811  -22.0424  -41.9213 H         1 UNK         0.0600 
    147 H147        3.3588  -23.1263  -42.9897 H         1 UNK         0.0600 
    148 H148        3.1599  -21.4355  -43.4303 H         1 UNK         0.0600 
    149 H149        0.7876  -20.6497  -43.2265 H         1 UNK         0.3000 
    150 H150       -2.5322  -20.3498  -44.5713 H         1 UNK         0.0600 
    151 H151       -2.8146  -19.1451  -42.4357 H         1 UNK         0.0600 
    152 H152       -2.7366  -20.8739  -42.1313 H         1 UNK         0.0600 
    153 H153       -1.3379  -19.8600  -41.7932 H         1 UNK         0.0600 
    154 H154       -0.7698  -18.3398  -43.6865 H         1 UNK         0.3000 
    155 H155        0.9161  -17.7515  -46.8213 H         1 UNK         0.0600 
    156 H156       -1.1231  -16.3132  -45.0388 H         1 UNK         0.0600 
    157 H157       -1.1373  -16.4314  -46.7841 H         1 UNK         0.0600 
    158 H158        0.1027  -15.4778  -45.9737 H         1 UNK         0.0600 
    159 H159        1.4284  -16.6085  -44.3005 H         1 UNK         0.3000 
    160 H160        3.7712  -18.9964  -43.0397 H         1 UNK         0.0600 
    161 H161        4.0431  -16.1484  -44.1421 H         1 UNK         0.0600 
    162 H162        5.0611  -17.5219  -44.5386 H         1 UNK         0.0600 
    163 H163        5.0799  -16.8653  -42.9085 H         1 UNK         0.0600 
    164 H164        2.6043  -16.5220  -42.0922 H         1 UNK         0.3000 
    165 H165       -0.0292  -18.0542  -40.2212 H         1 UNK         0.0600 
    166 H166        1.0833  -16.8160  -38.3852 H         1 UNK         0.0600 
    167 H167        2.0038  -18.2578  -38.7833 H         1 UNK         0.0600 
    168 H168        2.5663  -16.6830  -39.3307 H         1 UNK         0.0600 
    169 H169        0.8497  -15.3397  -40.5135 H         1 UNK         0.3000 
    170 H170       -0.9835  -14.5436  -43.4332 H         1 UNK         0.0600 
    171 H171       -2.1241  -12.8933  -41.9911 H         1 UNK         0.0600 
    172 H172       -2.7878  -14.4941  -41.7050 H         1 UNK         0.0600 
    173 H173       -1.6677  -13.7923  -40.5426 H         1 UNK         0.0600 
    174 H174        0.3551  -12.8243  -41.6732 H         1 UNK         0.3000 
    175 H175        2.8770  -12.7600  -41.5551 H         1 UNK         0.0600 
    176 H176        3.9379  -13.1408  -44.4119 H         1 UNK         0.0600 
    177 H177        4.7844  -12.3149  -43.1077 H         1 UNK         0.0600 
    178 H178        4.4517  -14.0324  -42.9849 H         1 UNK         0.0600 
    179 H179        1.5357  -11.4959  -43.8375 H         1 UNK         0.3000 
    180 H180        1.4362   -8.4500  -42.3571 H         1 UNK         0.0600 
    181 H181        3.5747   -8.7081  -44.5401 H         1 UNK         0.0600 
    182 H182        3.7808   -7.9093  -42.9863 H         1 UNK         0.0600 
    183 H183        2.6609   -7.2467  -44.1639 H         1 UNK         0.0600 
    184 H184        1.2853   -9.2961  -45.1522 H         1 UNK         0.3000 
    185 H185       -2.0740  -10.3811  -44.9816 H         1 UNK         0.0600 
    186 H186       -2.3261   -7.9027  -45.0962 H         1 UNK         0.0600 
    187 H187       -0.9350   -7.7919  -46.1678 H         1 UNK         0.0600 
    188 H188       -2.4003   -8.6186  -46.6982 H         1 UNK         0.0600 
    189 H189       -0.2007   -9.9472  -47.1290 H         1 UNK         0.3000 
    190 H190       -0.4123  -21.5131  -47.0772 H         1 UNK         0.3000 
    191 H191       -1.7221  -22.5615  -49.3414 H         1 UNK         0.0600 
    192 H192       -2.5490  -20.5699  -48.1522 H         1 UNK         0.0600 
    193 H193       -3.8075  -21.7906  -48.1543 H         1 UNK         0.0600 
    194 H194       -2.8646  -21.5162  -46.6990 H         1 UNK         0.0600 
    195 H195       -1.7245  -23.6938  -45.9546 H         1 UNK         0.3000 
    196 H196       -2.2615  -25.5563  -44.9244 H         1 UNK         0.0600 
    197 H197       -1.5232  -27.6818  -45.9217 H         1 UNK         0.0600 
    198 H198       -0.4106  -26.4248  -46.4161 H         1 UNK         0.0600 
    199 H199       -1.6216  -27.0119  -47.5500 H         1 UNK         0.0600 
    200 H200       -3.4539  -28.0300  -45.9339 H         1 UNK         0.3000 
    201 H201       -6.2292  -27.4247  -45.6245 H         1 UNK         0.0600 
    202 H202       -5.1966  -29.5417  -44.8356 H         1 UNK         0.0600 
    203 H203       -4.8169  -30.0048  -46.4953 H         1 UNK         0.0600 
    204 H204       -6.4918  -29.8855  -45.9699 H         1 UNK         0.0600 
    205 H205       -4.2108  -27.5498  -48.4415 H         1 UNK         0.3000 
    206 H206       -6.2899  -28.0185  -50.4189 H         1 UNK         0.0600 
    207 H207       -3.9001  -28.6230  -50.8163 H         1 UNK         0.0600 
    208 H208       -4.4520  -27.4592  -52.0077 H         1 UNK         0.0600 
    209 H209       -3.4314  -26.9288  -50.6744 H         1 UNK         0.0600 
    210 H210       -5.4304  -25.3161  -48.5024 H         1 UNK         0.3000 
    211 H211       -5.8550  -23.1499  -48.4600 H         1 UNK         0.0600 
    212 H212       -8.1605  -23.7521  -50.3924 H         1 UNK         0.0600 
    213 H213       -8.0049  -22.3332  -49.3665 H         1 UNK         0.0600 
    214 H214       -8.2308  -23.9155  -48.6387 H         1 UNK         0.0600 
    215 H215       -3.7767  -23.8343  -50.0510 H         1 UNK         0.3000 
    216 H216       -2.3156  -23.1748  -51.5840 H         1 UNK         0.0600 
    217 H217       -2.2586  -20.8434  -52.3425 H         1 UNK         0.0600 
    218 H218       -2.7135  -20.8576  -50.6511 H         1 UNK         0.0600 
    219 H219       -3.9342  -20.5849  -51.8881 H         1 UNK         0.0600 
    220 H220       -4.2377  -24.9274  -52.4059 H         1 UNK         0.3000 
    221 H221       -5.1814  -25.9694  -54.1174 H         1 UNK         0.0600 
    222 H222       -3.4038  -24.2469  -55.9282 H         1 UNK         0.0600 
    223 H223       -2.9377  -25.7761  -55.1872 H         1 UNK         0.0600 
    224 H224       -4.2198  -25.7347  -56.3866 H         1 UNK         0.0600 
    225 H225       -6.7556  -24.2558  -52.9896 H         1 UNK         0.3000 
    226 H226       -8.5864  -23.0242  -53.0343 H         1 UNK         0.0600 
    227 H227       -9.4400  -24.7706  -54.5875 H         1 UNK         0.0600 
    228 H228      -10.1480  -23.2021  -54.9386 H         1 UNK         0.0600 
    229 H229       -8.8796  -23.8381  -55.9746 H         1 UNK         0.0600 
    230 H230       -6.6635  -21.4556  -52.8176 H         1 UNK         0.3000 
    231 H231       -5.9345  -19.3962  -52.8832 H         1 UNK         0.0600 
    232 H232       -8.5556  -18.6924  -54.2994 H         1 UNK         0.0600 
    233 H233       -7.5205  -17.5858  -53.4081 H         1 UNK         0.0600 
    234 H234       -8.3500  -18.8781  -52.5580 H         1 UNK         0.0600 
    235 H235       -4.6822  -20.8856  -54.7553 H         1 UNK         0.3000 
    236 H236       -4.1142  -18.9778  -56.9854 H         1 UNK         0.0600 
    237 H237       -5.1366  -21.1189  -57.7908 H         1 UNK         0.0600 
    238 H238       -3.4569  -20.9798  -58.2887 H         1 UNK         0.0600 
    239 H239       -3.8927  -22.0350  -56.9466 H         1 UNK         0.0600 
    240 H240       -3.1050  -18.4816  -54.4991 H         1 UNK         0.3000 
    241 H241       -0.6460  -19.7601  -53.9057 H         1 UNK         0.0600 
    242 H242        0.4292  -16.8562  -56.5840 H         1 UNK         0.3800 
    243 H243       -1.2557  -17.1176  -56.2223 H         1 UNK         0.3800 
    244 H244       -1.2093  -16.9199  -52.9523 H         1 UNK         0.0800 
    245 H245       -2.2541  -18.1986  -52.4323 H         1 UNK         0.0800 
    246 H246        0.5698  -16.2038  -51.4356 H         1 UNK         0.0800 
    247 H247        1.6387  -17.1675  -52.4268 H         1 UNK         0.0800 
@<TRIPOS>BOND
     1    1    2 1    
     2    1  127 1    
     3    1  128 1    
     4    1  129 1    
     5    2    3 2    
     6    2    4 am   BACKBONE|DICT|INTERRES
     7    4    5 1    
     8    4  130 1    
     9    5    6 1    
    10    5   65 1    
    11    5  131 1    
    12    6    7 1    
    13    6  132 1    
    14    6  133 1    
    15    7    8 1    
    16    8    9 1    
    17    8  134 1    
    18    8  135 1    
    19    9   10 ar   
    20    9   14 ar   
    21   10   11 ar   
    22   10  136 1    
    23   11   12 ar   
    24   11  126 1    
    25   12   13 ar   
    26   12  137 1    
    27   13   14 ar   
    28   13   15 1    
    29   14  138 1    
    30   15   16 1    
    31   15  139 1    
    32   15  140 1    
    33   16   17 1    
    34   17   18 1    
    35   17  141 1    
    36   17  142 1    
    37   18   19 1    
    38   18   67 1    
    39   18  143 1    
    40   19   20 am   BACKBONE|DICT|INTERRES
    41   19  144 1    
    42   20   21 2    
    43   20   22 1    
    44   22   23 1    
    45   22   24 1    
    46   22  145 1    
    47   23  146 1    
    48   23  147 1    
    49   23  148 1    
    50   24   25 am   BACKBONE|DICT|INTERRES
    51   24  149 1    
    52   25   26 2    
    53   25   27 1    
    54   27   28 1    
    55   27   29 1    
    56   27  150 1    
    57   28  151 1    
    58   28  152 1    
    59   28  153 1    
    60   29   30 am   BACKBONE|DICT|INTERRES
    61   29  154 1    
    62   30   31 2    
    63   30   32 1    
    64   32   33 1    
    65   32   34 1    
    66   32  155 1    
    67   33  156 1    
    68   33  157 1    
    69   33  158 1    
    70   34   35 am   BACKBONE|DICT|INTERRES
    71   34  159 1    
    72   35   36 2    
    73   35   37 1    
    74   37   38 1    
    75   37   39 1    
    76   37  160 1    
    77   38  161 1    
    78   38  162 1    
    79   38  163 1    
    80   39   40 am   BACKBONE|DICT|INTERRES
    81   39  164 1    
    82   40   41 2    
    83   40   42 1    
    84   42   43 1    
    85   42   44 1    
    86   42  165 1    
    87   43  166 1    
    88   43  167 1    
    89   43  168 1    
    90   44   45 am   BACKBONE|DICT|INTERRES
    91   44  169 1    
    92   45   46 2    
    93   45   47 1    
    94   47   48 1    
    95   47   49 1    
    96   47  170 1    
    97   48  171 1    
    98   48  172 1    
    99   48  173 1    
   100   49   50 am   BACKBONE|DICT|INTERRES
   101   49  174 1    
   102   50   51 2    
   103   50   52 1    
   104   52   53 1    
   105   52   54 1    
   106   52  175 1    
   107   53  176 1    
   108   53  177 1    
   109   53  178 1    
   110   54   55 am   BACKBONE|DICT|INTERRES
   111   54  179 1    
   112   55   56 2    
   113   55   57 1    
   114   57   58 1    
   115   57   59 1    
   116   57  180 1    
   117   58  181 1    
   118   58  182 1    
   119   58  183 1    
   120   59   60 am   BACKBONE|DICT|INTERRES
   121   59  184 1    
   122   60   61 2    
   123   60   62 1    
   124   62   63 1    
   125   62   64 1    
   126   62  185 1    
   127   63  186 1    
   128   63  187 1    
   129   63  188 1    
   130   64   65 am   BACKBONE|DICT|INTERRES
   131   64  189 1    
   132   65   66 2    
   133   67   68 2    
   134   67   69 am   BACKBONE|DICT|INTERRES
   135   69   70 1    
   136   69  190 1    
   137   70   71 1    
   138   70   72 1    
   139   70  191 1    
   140   71  192 1    
   141   71  193 1    
   142   71  194 1    
   143   72   73 2    
   144   72   74 am   BACKBONE|DICT|INTERRES
   145   74   75 1    
   146   74  195 1    
   147   75   76 1    
   148   75   77 1    
   149   75  196 1    
   150   76  197 1    
   151   76  198 1    
   152   76  199 1    
   153   77   78 2    
   154   77   79 am   BACKBONE|DICT|INTERRES
   155   79   80 1    
   156   79  200 1    
   157   80   81 1    
   158   80   82 1    
   159   80  201 1    
   160   81  202 1    
   161   81  203 1    
   162   81  204 1    
   163   82   83 2    
   164   82   84 am   BACKBONE|DICT|INTERRES
   165   84   85 1    
   166   84  205 1    
   167   85   86 1    
   168   85   87 1    
   169   85  206 1    
   170   86  207 1    
   171   86  208 1    
   172   86  209 1    
   173   87   88 2    
   174   87   89 am   BACKBONE|DICT|INTERRES
   175   89   90 1    
   176   89  210 1    
   177   90   91 1    
   178   90   92 1    
   179   90  211 1    
   180   91  212 1    
   181   91  213 1    
   182   91  214 1    
   183   92   93 2    
   184   92   94 am   BACKBONE|DICT|INTERRES
   185   94   95 1    
   186   94  215 1    
   187   95   96 1    
   188   95   97 1    
   189   95  216 1    
   190   96  217 1    
   191   96  218 1    
   192   96  219 1    
   193   97   98 2    
   194   97   99 am   BACKBONE|DICT|INTERRES
   195   99  100 1    
   196   99  220 1    
   197  100  101 1    
   198  100  102 1    
   199  100  221 1    
   200  101  222 1    
   201  101  223 1    
   202  101  224 1    
   203  102  103 2    
   204  102  104 am   BACKBONE|DICT|INTERRES
   205  104  105 1    
   206  104  225 1    
   207  105  106 1    
   208  105  107 1    
   209  105  226 1    
   210  106  227 1    
   211  106  228 1    
   212  106  229 1    
   213  107  108 2    
   214  107  109 am   BACKBONE|DICT|INTERRES
   215  109  110 1    
   216  109  230 1    
   217  110  111 1    
   218  110  112 1    
   219  110  231 1    
   220  111  232 1    
   221  111  233 1    
   222  111  234 1    
   223  112  113 2    
   224  112  114 am   BACKBONE|DICT|INTERRES
   225  114  115 1    
   226  114  235 1    
   227  115  116 1    
   228  115  117 1    
   229  115  236 1    
   230  116  237 1    
   231  116  238 1    
   232  116  239 1    
   233  117  118 2    
   234  117  119 am   BACKBONE|DICT|INTERRES
   235  119  120 1    
   236  119  240 1    
   237  120  121 1    
   238  120  124 1    
   239  120  241 1    
   240  121  122 am   BACKBONE|DICT|INTERRES
   241  121  123 2    
   242  122  242 1    
   243  122  243 1    
   244  124  125 1    
   245  124  244 1    
   246  124  245 1    
   247  125  126 1    
   248  126  246 1    
   249  126  247 1    
@<TRIPOS>SUBSTRUCTURE
     1 UNK         1 GROUP             0       ****    0 ROOT    
