@<TRIPOS>MOLECULE
3R540
247   249    1
SMALL
USER_CHARGES


@<TRIPOS>ATOM
      1 CA          1.4215  -11.9376  -51.9444 C.3       0 UNK        -0.1800 
      2 C           1.0653  -12.3022  -50.5100 C.2       0 UNK         0.5000 
      3 O          -0.1172  -12.3640  -50.1737 O.2       0 UNK        -0.5000 
      4 N           2.0841  -12.5436  -49.6735 N.am      1 UNK        -0.5000 
      5 CA          1.9854  -12.8938  -48.2512 C.3       1 UNK         0.1400 
      6 C6          1.3193  -14.2771  -47.9987 C.3       23 UNK        -0.0398 
      7 S7          2.2950  -15.6457  -48.7085 S.3       23 UNK        -0.2404 
      8 C8          1.7185  -17.0516  -47.7066 C.3       23 UNK        -0.0205 
      9 C9          0.2442  -17.3408  -47.9361 C.ar      23 UNK        -0.0193 
     10 C10        -0.1609  -18.0346  -49.0770 C.ar      23 UNK        -0.1150 
     11 C11        -1.5143  -18.2865  -49.3122 C.ar      23 UNK        -0.0193 
     12 C12        -2.4684  -17.8443  -48.3903 C.ar      23 UNK        -0.1150 
     13 C13        -2.0729  -17.1680  -47.2318 C.ar      23 UNK        -0.0193 
     14 C14        -0.7152  -16.9180  -47.0132 C.ar      23 UNK        -0.1150 
     15 C15        -3.1038  -16.7024  -46.2106 C.3       23 UNK        -0.0205 
     16 S16        -4.0051  -18.0771  -45.4172 S.3       23 UNK        -0.2404 
     17 C17        -2.6551  -19.1663  -44.8492 C.3       23 UNK        -0.0398 
     18 CA         -2.6227  -20.4934  -45.6568 C.3       11 UNK         0.1400 
     19 N          -1.2648  -20.8821  -46.0366 N.am      11 UNK        -0.5000 
     20 C          -0.9619  -21.7889  -46.9751 C.2       10 UNK         0.5000 
     21 O          -1.7998  -22.3584  -47.6766 O.2       10 UNK        -0.5000 
     22 CA          0.5276  -22.1523  -47.1177 C.3       10 UNK         0.1400 
     23 CB          1.2197  -21.2161  -48.1172 C.3       10 UNK        -0.1800 
     24 N           1.2355  -22.1084  -45.8349 N.am      10 UNK        -0.5000 
     25 C           1.0402  -22.9943  -44.8455 C.2       9 UNK         0.5000 
     26 O           0.2850  -23.9597  -44.9422 O.2       9 UNK        -0.5000 
     27 CA          1.7589  -22.7388  -43.5056 C.3       9 UNK         0.1400 
     28 CB          3.1459  -23.3975  -43.5066 C.3       9 UNK        -0.1800 
     29 N           1.9021  -21.3196  -43.1828 N.am      9 UNK        -0.5000 
     30 C           0.8966  -20.4416  -43.0646 C.2       8 UNK         0.5000 
     31 O          -0.2921  -20.7563  -43.1229 O.2       8 UNK        -0.5000 
     32 CA          1.2738  -18.9563  -42.9088 C.3       8 UNK         0.1400 
     33 CB          1.1163  -18.5164  -41.4466 C.3       8 UNK        -0.1800 
     34 N           2.6229  -18.6042  -43.3619 N.am      8 UNK        -0.5000 
     35 C           3.1337  -18.7882  -44.5867 C.2       7 UNK         0.5000 
     36 O           2.5594  -19.4119  -45.4818 O.2       7 UNK        -0.5000 
     37 CA          4.5103  -18.1386  -44.8408 C.3       7 UNK         0.1400 
     38 CB          5.1329  -18.5740  -46.1790 C.3       7 UNK        -0.1800 
     39 N           4.4027  -16.6797  -44.8226 N.am      7 UNK        -0.5000 
     40 C           4.2551  -15.9195  -43.7287 C.2       6 UNK         0.5000 
     41 O           4.3313  -16.3620  -42.5803 O.2       6 UNK        -0.5000 
     42 CA          3.9279  -14.4255  -43.9421 C.3       6 UNK         0.1400 
     43 CB          4.0852  -13.9493  -45.3994 C.3       6 UNK        -0.1800 
     44 N           2.5956  -14.0671  -43.4445 N.am      6 UNK        -0.5000 
     45 C           1.4245  -14.6848  -43.6729 C.2       5 UNK         0.5000 
     46 O           1.3064  -15.6617  -44.4094 O.2       5 UNK        -0.5000 
     47 CA          0.1491  -14.1015  -43.0210 C.3       5 UNK         0.1400 
     48 CB         -0.6824  -15.1813  -42.2995 C.3       5 UNK        -0.1800 
     49 N           0.3723  -12.9322  -42.1620 N.am      5 UNK        -0.5000 
     50 C           1.0462  -12.8569  -41.0029 C.2       4 UNK         0.5000 
     51 O           1.4944  -13.8343  -40.4031 O.2       4 UNK        -0.5000 
     52 CA          1.3090  -11.4286  -40.4683 C.3       4 UNK         0.1400 
     53 CB          2.5348  -11.3553  -39.5343 C.3       4 UNK        -0.1800 
     54 N           1.4169  -10.4305  -41.5442 N.am      4 UNK        -0.5000 
     55 C           2.2808  -10.4391  -42.5715 C.2       3 UNK         0.5000 
     56 O           3.1899  -11.2609  -42.7004 O.2       3 UNK        -0.5000 
     57 CA          2.0196   -9.4087  -43.6867 C.3       3 UNK         0.1400 
     58 CB          3.3328   -8.8399  -44.2493 C.3       3 UNK        -0.1800 
     59 N           1.2454   -9.9818  -44.7919 N.am      3 UNK        -0.5000 
     60 C           0.0100  -10.4942  -44.7280 C.2       2 UNK         0.5000 
     61 O          -0.6391  -10.5824  -43.6854 O.2       2 UNK        -0.5000 
     62 CA         -0.6182  -11.0106  -46.0372 C.3       2 UNK         0.1400 
     63 CB         -1.1099   -9.8453  -46.9169 C.3       2 UNK        -0.1800 
     64 N           0.2119  -11.9508  -46.8027 N.am      2 UNK        -0.5000 
     65 C           1.3651  -11.7245  -47.4506 C.2       1 UNK         0.5000 
     66 O           1.9543  -10.6415  -47.4380 O.2       1 UNK        -0.5000 
     67 C          -3.3252  -21.6413  -44.9038 C.2       11 UNK         0.5000 
     68 O          -4.4600  -21.9859  -45.2337 O.2       11 UNK        -0.5000 
     69 N          -2.6120  -22.2508  -43.9439 N.am      12 UNK        -0.5000 
     70 CA         -3.0569  -23.4089  -43.1621 C.3       12 UNK         0.1400 
     71 CB         -2.0252  -23.7069  -42.0646 C.3       12 UNK        -0.1800 
     72 C          -3.3139  -24.6622  -44.0223 C.2       12 UNK         0.5000 
     73 O          -4.2354  -25.4235  -43.7285 O.2       12 UNK        -0.5000 
     74 N          -2.5316  -24.8222  -45.0983 N.am      13 UNK        -0.5000 
     75 CA         -2.6991  -25.8444  -46.1337 C.3       13 UNK         0.1400 
     76 CB         -1.3633  -26.0211  -46.8751 C.3       13 UNK        -0.1800 
     77 C          -3.8402  -25.5420  -47.1303 C.2       13 UNK         0.5000 
     78 O          -3.9975  -26.2898  -48.0966 O.2       13 UNK        -0.5000 
     79 N          -4.5958  -24.4543  -46.9116 N.am      14 UNK        -0.5000 
     80 CA         -5.7258  -23.9805  -47.7148 C.3       14 UNK         0.1400 
     81 CB         -6.9063  -24.9716  -47.6360 C.3       14 UNK        -0.1800 
     82 C          -5.3078  -23.6516  -49.1589 C.2       14 UNK         0.5000 
     83 O          -5.9462  -24.1095  -50.1073 O.2       14 UNK        -0.5000 
     84 N          -4.2058  -22.8987  -49.2927 N.am      15 UNK        -0.5000 
     85 CA         -3.5589  -22.5169  -50.5514 C.3       15 UNK         0.1400 
     86 CB         -4.4891  -21.6214  -51.3937 C.3       15 UNK        -0.1800 
     87 C          -3.0217  -23.7417  -51.3168 C.2       15 UNK         0.5000 
     88 O          -3.1597  -23.8240  -52.5389 O.2       15 UNK        -0.5000 
     89 N          -2.4467  -24.6853  -50.5546 N.am      16 UNK        -0.5000 
     90 CA         -1.9703  -26.0043  -50.9814 C.3       16 UNK         0.1400 
     91 CB         -0.7234  -25.8662  -51.8791 C.3       16 UNK        -0.1800 
     92 C          -3.1015  -26.8378  -51.6184 C.2       16 UNK         0.5000 
     93 O          -2.9568  -27.3294  -52.7375 O.2       16 UNK        -0.5000 
     94 N          -4.2259  -26.9362  -50.8935 N.am      17 UNK        -0.5000 
     95 CA         -5.4954  -27.5466  -51.3022 C.3       17 UNK         0.1400 
     96 CB         -5.3497  -29.0772  -51.4311 C.3       17 UNK        -0.1800 
     97 C          -6.0889  -26.8798  -52.5629 C.2       17 UNK         0.5000 
     98 O          -6.4642  -27.5663  -53.5153 O.2       17 UNK        -0.5000 
     99 N          -6.1457  -25.5404  -52.5342 N.am      18 UNK        -0.5000 
    100 CA        -6.6472  -24.6368  -53.5749 C.3       18 UNK         0.1400 
    101 CB        -8.1691  -24.8144  -53.7580 C.3       18 UNK        -0.1800 
    102 C         -5.8703  -24.7039  -54.9086 C.2       18 UNK         0.5000 
    103 O         -6.4385  -24.4037  -55.9608 O.2       18 UNK        -0.5000 
    104 N         -4.5879  -25.0867  -54.8532 N.am      19 UNK        -0.5000 
    105 CA        -3.6928  -25.1204  -56.0086 C.3       19 UNK         0.1400 
    106 CB        -2.5545  -26.1178  -55.7521 C.3       19 UNK        -0.1800 
    107 C         -3.1285  -23.7276  -56.3350 C.2       19 UNK         0.5000 
    108 O         -2.9947  -23.3908  -57.5127 O.2       19 UNK        -0.5000 
    109 N         -2.8100  -22.9448  -55.2959 N.am      20 UNK        -0.5000 
    110 CA        -2.3421  -21.5663  -55.4174 C.3       20 UNK         0.1400 
    111 CB        -1.4245  -21.2446  -54.2284 C.3       20 UNK        -0.1800 
    112 C         -3.5295  -20.5882  -55.4960 C.2       20 UNK         0.5000 
    113 O         -4.6237  -20.8989  -55.0196 O.2       20 UNK        -0.5000 
    114 N         -3.2880  -19.4188  -56.1021 N.am      21 UNK        -0.5000 
    115 CA        -4.2953  -18.3771  -56.3313 C.3       21 UNK         0.1400 
    116 CB        -3.8312  -17.4952  -57.5017 C.3       21 UNK        -0.1800 
    117 C         -4.5916  -17.5091  -55.0912 C.2       21 UNK         0.5000 
    118 O         -5.6267  -16.8415  -55.0572 O.2       21 UNK        -0.5000 
    119 N         -3.6763  -17.5086  -54.1154 N.am      22 UNK        -0.5000 
    120 CA        -3.7971  -16.8175  -52.8223 C.3       22 UNK         0.1400 
    121 C         -4.9174  -17.3781  -51.8970 C.2       22 UNK         0.5000 
    122 N         -5.3048  -16.6352  -50.8683 N.am      22 UNK        -0.7600 
    123 O         -5.4314  -18.4772  -52.0836 O.2       22 UNK        -0.5000 
    124 C124       -2.4265  -16.7190  -52.0952 C.3       23 UNK        -0.0398 
    125 S125       -1.4406  -18.2588  -52.1029 S.3       23 UNK        -0.2404 
    126 C126       -1.9379  -19.0627  -50.5478 C.3       23 UNK        -0.0205 
    127 H127        1.0295  -10.9503  -52.1889 H         1 UNK         0.0600 
    128 H128        0.9844  -12.6597  -52.6341 H         1 UNK         0.0600 
    129 H129        2.4999  -11.9246  -52.1046 H         1 UNK         0.0600 
    130 H130        3.0278  -12.4519  -50.0216 H         1 UNK         0.3000 
    131 H131        3.0156  -12.9596  -47.9004 H         1 UNK         0.0600 
    132 H132        0.3128  -14.3192  -48.4176 H         1 UNK         0.0800 
    133 H133        1.2183  -14.4642  -46.9289 H         1 UNK         0.0800 
    134 H134        1.9142  -16.8576  -46.6523 H         1 UNK         0.0800 
    135 H135        2.3033  -17.9346  -47.9661 H         1 UNK         0.0800 
    136 H136        0.5791  -18.3715  -49.7894 H         1 UNK         0.1150 
    137 H137       -3.5178  -18.0394  -48.5621 H         1 UNK         0.1150 
    138 H138       -0.4040  -16.3919  -46.1233 H         1 UNK         0.1150 
    139 H139       -2.6310  -16.1018  -45.4318 H         1 UNK         0.0800 
    140 H140       -3.8229  -16.0484  -46.7053 H         1 UNK         0.0800 
    141 H141       -2.7708  -19.3362  -43.7769 H         1 UNK         0.0800 
    142 H142       -1.7093  -18.6322  -44.9411 H         1 UNK         0.0800 
    143 H143       -3.1654  -20.3484  -46.5941 H         1 UNK         0.0600 
    144 H144       -0.5141  -20.5046  -45.4775 H         1 UNK         0.3000 
    145 H145        0.5852  -23.1697  -47.5098 H         1 UNK         0.0600 
    146 H146        1.2303  -20.1881  -47.7562 H         1 UNK         0.0600 
    147 H147        2.2522  -21.5186  -48.2915 H         1 UNK         0.0600 
    148 H148        0.7088  -21.2222  -49.0810 H         1 UNK         0.0600 
    149 H149        1.8394  -21.3076  -45.6747 H         1 UNK         0.3000 
    150 H150        1.1628  -23.1977  -42.7152 H         1 UNK         0.0600 
    151 H151        3.0711  -24.4641  -43.7231 H         1 UNK         0.0600 
    152 H152        3.6314  -23.2978  -42.5357 H         1 UNK         0.0600 
    153 H153        3.8012  -22.9549  -44.2580 H         1 UNK         0.0600 
    154 H154        2.8438  -20.9613  -43.1290 H         1 UNK         0.3000 
    155 H155        0.5736  -18.3802  -43.5171 H         1 UNK         0.0600 
    156 H156        0.0943  -18.6721  -41.0985 H         1 UNK         0.0600 
    157 H157        1.3441  -17.4572  -41.3266 H         1 UNK         0.0600 
    158 H158        1.7796  -19.0763  -40.7861 H         1 UNK         0.0600 
    159 H159        3.1638  -18.0227  -42.7307 H         1 UNK         0.3000 
    160 H160        5.1810  -18.4575  -44.0403 H         1 UNK         0.0600 
    161 H161        6.1326  -18.1569  -46.3014 H         1 UNK         0.0600 
    162 H162        4.5315  -18.2539  -47.0301 H         1 UNK         0.0600 
    163 H163        5.2259  -19.6595  -46.2319 H         1 UNK         0.0600 
    164 H164        4.2903  -16.2356  -45.7216 H         1 UNK         0.3000 
    165 H165        4.6405  -13.8664  -43.3341 H         1 UNK         0.0600 
    166 H166        3.4098  -14.4774  -46.0690 H         1 UNK         0.0600 
    167 H167        3.8755  -12.8826  -45.4835 H         1 UNK         0.0600 
    168 H168        5.1031  -14.1058  -45.7585 H         1 UNK         0.0600 
    169 H169        2.5857  -13.2469  -42.8496 H         1 UNK         0.3000 
    170 H170       -0.4549  -13.7369  -43.8530 H         1 UNK         0.0600 
    171 H171       -0.1489  -15.6084  -41.4514 H         1 UNK         0.0600 
    172 H172       -1.6220  -14.7706  -41.9301 H         1 UNK         0.0600 
    173 H173       -0.9322  -16.0022  -42.9730 H         1 UNK         0.0600 
    174 H174        0.0449  -12.0541  -42.5550 H         1 UNK         0.3000 
    175 H175        0.4293  -11.1578  -39.8830 H         1 UNK         0.0600 
    176 H176        3.4471  -11.6806  -40.0352 H         1 UNK         0.0600 
    177 H177        2.6947  -10.3395  -39.1729 H         1 UNK         0.0600 
    178 H178        2.3987  -11.9915  -38.6590 H         1 UNK         0.0600 
    179 H179        0.6712   -9.7478  -41.5685 H         1 UNK         0.3000 
    180 H180        1.4471   -8.5796  -43.2663 H         1 UNK         0.0600 
    181 H181        3.9248   -9.6087  -44.7478 H         1 UNK         0.0600 
    182 H182        3.9470   -8.4146  -43.4546 H         1 UNK         0.0600 
    183 H183        3.1404   -8.0466  -44.9718 H         1 UNK         0.0600 
    184 H184        1.6998  -10.0037  -45.7013 H         1 UNK         0.3000 
    185 H185       -1.5015  -11.5820  -45.7469 H         1 UNK         0.0600 
    186 H186       -1.6211  -10.2131  -47.8067 H         1 UNK         0.0600 
    187 H187       -1.8164   -9.2183  -46.3716 H         1 UNK         0.0600 
    188 H188       -0.2918   -9.2028  -47.2434 H         1 UNK         0.0600 
    189 H189       -0.1896  -12.8727  -46.8892 H         1 UNK         0.3000 
    190 H190       -1.6989  -21.8690  -43.7096 H         1 UNK         0.3000 
    191 H191       -3.9990  -23.1382  -42.6812 H         1 UNK         0.0600 
    192 H192       -1.0701  -24.0184  -42.4866 H         1 UNK         0.0600 
    193 H193       -1.8472  -22.8319  -41.4390 H         1 UNK         0.0600 
    194 H194       -2.3717  -24.5096  -41.4125 H         1 UNK         0.0600 
    195 H195       -1.7422  -24.1962  -45.2139 H         1 UNK         0.3000 
    196 H196       -2.9432  -26.7911  -45.6479 H         1 UNK         0.0600 
    197 H197       -0.5600  -26.2749  -46.1833 H         1 UNK         0.0600 
    198 H198       -1.0745  -25.1132  -47.4051 H         1 UNK         0.0600 
    199 H199       -1.4202  -26.8280  -47.6063 H         1 UNK         0.0600 
    200 H200       -4.3680  -23.8668  -46.1178 H         1 UNK         0.3000 
    201 H201       -6.0537  -23.0410  -47.2682 H         1 UNK         0.0600 
    202 H202       -7.7862  -24.5694  -48.1394 H         1 UNK         0.0600 
    203 H203       -7.1862  -25.1680  -46.6011 H         1 UNK         0.0600 
    204 H204       -6.6704  -25.9266  -48.1065 H         1 UNK         0.0600 
    205 H205       -3.6950  -22.6330  -48.4568 H         1 UNK         0.3000 
    206 H206       -2.6860  -21.9287  -50.2746 H         1 UNK         0.0600 
    207 H207       -4.8939  -20.8064  -50.7948 H         1 UNK         0.0600 
    208 H208       -5.3310  -22.1758  -51.8048 H         1 UNK         0.0600 
    209 H209       -3.9601  -21.1722  -52.2326 H         1 UNK         0.0600 
    210 H210       -2.4180  -24.5140  -49.5598 H         1 UNK         0.3000 
    211 H211       -1.6689  -26.5372  -50.0788 H         1 UNK         0.0600 
    212 H212        0.0733  -25.3312  -51.3624 H         1 UNK         0.0600 
    213 H213       -0.3304  -26.8451  -52.1559 H         1 UNK         0.0600 
    214 H214       -0.9412  -25.3278  -52.8010 H         1 UNK         0.0600 
    215 H215       -4.2240  -26.5265  -49.9618 H         1 UNK         0.3000 
    216 H216       -6.2005  -27.3507  -50.4929 H         1 UNK         0.0600 
    217 H217       -6.3158  -29.5455  -51.6224 H         1 UNK         0.0600 
    218 H218       -4.6844  -29.3554  -52.2490 H         1 UNK         0.0600 
    219 H219       -4.9541  -29.5131  -50.5138 H         1 UNK         0.0600 
    220 H220       -5.8543  -25.0743  -51.6766 H         1 UNK         0.3000 
    221 H221       -6.4847  -23.6287  -53.1945 H         1 UNK         0.0600 
    222 H222       -8.4135  -25.7803  -54.2009 H         1 UNK         0.0600 
    223 H223       -8.6914  -24.7398  -52.8042 H         1 UNK         0.0600 
    224 H224       -8.5788  -24.0425  -54.4103 H         1 UNK         0.0600 
    225 H225       -4.1753  -25.2734  -53.9474 H         1 UNK         0.3000 
    226 H226       -4.2505  -25.4703  -56.8800 H         1 UNK         0.0600 
    227 H227       -2.9433  -27.1188  -55.5642 H         1 UNK         0.0600 
    228 H228       -1.8894  -26.1823  -56.6140 H         1 UNK         0.0600 
    229 H229       -1.9513  -25.8262  -54.8925 H         1 UNK         0.0600 
    230 H230       -2.9959  -23.2778  -54.3528 H         1 UNK         0.3000 
    231 H231       -1.7525  -21.4676  -56.3315 H         1 UNK         0.0600 
    232 H232       -0.9937  -20.2482  -54.3282 H         1 UNK         0.0600 
    233 H233       -0.5948  -21.9493  -54.1705 H         1 UNK         0.0600 
    234 H234       -1.9558  -21.2815  -53.2787 H         1 UNK         0.0600 
    235 H235       -2.3637  -19.2346  -56.4654 H         1 UNK         0.3000 
    236 H236       -5.2325  -18.8568  -56.6223 H         1 UNK         0.0600 
    237 H237       -3.6893  -18.0842  -58.4080 H         1 UNK         0.0600 
    238 H238       -4.5703  -16.7258  -57.7294 H         1 UNK         0.0600 
    239 H239       -2.8909  -16.9902  -57.2771 H         1 UNK         0.0600 
    240 H240       -2.8724  -18.1105  -54.2111 H         1 UNK         0.3000 
    241 H241       -4.1051  -15.7964  -53.0561 H         1 UNK         0.0600 
    242 H242       -4.9161  -15.7222  -50.6922 H         1 UNK         0.3800 
    243 H243       -6.0305  -16.9871  -50.2641 H         1 UNK         0.3800 
    244 H244       -1.8218  -15.9658  -52.6017 H         1 UNK         0.0800 
    245 H245       -2.5338  -16.3492  -51.0744 H         1 UNK         0.0800 
    246 H246       -1.4646  -20.0433  -50.5100 H         1 UNK         0.0800 
    247 H247       -3.0145  -19.2325  -50.5541 H         1 UNK         0.0800 
@<TRIPOS>BOND
     1    1    2 1    
     2    1  127 1    
     3    1  128 1    
     4    1  129 1    
     5    2    3 2    
     6    2    4 am   BACKBONE|DICT|INTERRES
     7    4    5 1    
     8    4  130 1    
     9    5    6 1    
    10    5   65 1    
    11    5  131 1    
    12    6    7 1    
    13    6  132 1    
    14    6  133 1    
    15    7    8 1    
    16    8    9 1    
    17    8  134 1    
    18    8  135 1    
    19    9   10 ar   
    20    9   14 ar   
    21   10   11 ar   
    22   10  136 1    
    23   11   12 ar   
    24   11  126 1    
    25   12   13 ar   
    26   12  137 1    
    27   13   14 ar   
    28   13   15 1    
    29   14  138 1    
    30   15   16 1    
    31   15  139 1    
    32   15  140 1    
    33   16   17 1    
    34   17   18 1    
    35   17  141 1    
    36   17  142 1    
    37   18   19 1    
    38   18   67 1    
    39   18  143 1    
    40   19   20 am   BACKBONE|DICT|INTERRES
    41   19  144 1    
    42   20   21 2    
    43   20   22 1    
    44   22   23 1    
    45   22   24 1    
    46   22  145 1    
    47   23  146 1    
    48   23  147 1    
    49   23  148 1    
    50   24   25 am   BACKBONE|DICT|INTERRES
    51   24  149 1    
    52   25   26 2    
    53   25   27 1    
    54   27   28 1    
    55   27   29 1    
    56   27  150 1    
    57   28  151 1    
    58   28  152 1    
    59   28  153 1    
    60   29   30 am   BACKBONE|DICT|INTERRES
    61   29  154 1    
    62   30   31 2    
    63   30   32 1    
    64   32   33 1    
    65   32   34 1    
    66   32  155 1    
    67   33  156 1    
    68   33  157 1    
    69   33  158 1    
    70   34   35 am   BACKBONE|DICT|INTERRES
    71   34  159 1    
    72   35   36 2    
    73   35   37 1    
    74   37   38 1    
    75   37   39 1    
    76   37  160 1    
    77   38  161 1    
    78   38  162 1    
    79   38  163 1    
    80   39   40 am   BACKBONE|DICT|INTERRES
    81   39  164 1    
    82   40   41 2    
    83   40   42 1    
    84   42   43 1    
    85   42   44 1    
    86   42  165 1    
    87   43  166 1    
    88   43  167 1    
    89   43  168 1    
    90   44   45 am   BACKBONE|DICT|INTERRES
    91   44  169 1    
    92   45   46 2    
    93   45   47 1    
    94   47   48 1    
    95   47   49 1    
    96   47  170 1    
    97   48  171 1    
    98   48  172 1    
    99   48  173 1    
   100   49   50 am   BACKBONE|DICT|INTERRES
   101   49  174 1    
   102   50   51 2    
   103   50   52 1    
   104   52   53 1    
   105   52   54 1    
   106   52  175 1    
   107   53  176 1    
   108   53  177 1    
   109   53  178 1    
   110   54   55 am   BACKBONE|DICT|INTERRES
   111   54  179 1    
   112   55   56 2    
   113   55   57 1    
   114   57   58 1    
   115   57   59 1    
   116   57  180 1    
   117   58  181 1    
   118   58  182 1    
   119   58  183 1    
   120   59   60 am   BACKBONE|DICT|INTERRES
   121   59  184 1    
   122   60   61 2    
   123   60   62 1    
   124   62   63 1    
   125   62   64 1    
   126   62  185 1    
   127   63  186 1    
   128   63  187 1    
   129   63  188 1    
   130   64   65 am   BACKBONE|DICT|INTERRES
   131   64  189 1    
   132   65   66 2    
   133   67   68 2    
   134   67   69 am   BACKBONE|DICT|INTERRES
   135   69   70 1    
   136   69  190 1    
   137   70   71 1    
   138   70   72 1    
   139   70  191 1    
   140   71  192 1    
   141   71  193 1    
   142   71  194 1    
   143   72   73 2    
   144   72   74 am   BACKBONE|DICT|INTERRES
   145   74   75 1    
   146   74  195 1    
   147   75   76 1    
   148   75   77 1    
   149   75  196 1    
   150   76  197 1    
   151   76  198 1    
   152   76  199 1    
   153   77   78 2    
   154   77   79 am   BACKBONE|DICT|INTERRES
   155   79   80 1    
   156   79  200 1    
   157   80   81 1    
   158   80   82 1    
   159   80  201 1    
   160   81  202 1    
   161   81  203 1    
   162   81  204 1    
   163   82   83 2    
   164   82   84 am   BACKBONE|DICT|INTERRES
   165   84   85 1    
   166   84  205 1    
   167   85   86 1    
   168   85   87 1    
   169   85  206 1    
   170   86  207 1    
   171   86  208 1    
   172   86  209 1    
   173   87   88 2    
   174   87   89 am   BACKBONE|DICT|INTERRES
   175   89   90 1    
   176   89  210 1    
   177   90   91 1    
   178   90   92 1    
   179   90  211 1    
   180   91  212 1    
   181   91  213 1    
   182   91  214 1    
   183   92   93 2    
   184   92   94 am   BACKBONE|DICT|INTERRES
   185   94   95 1    
   186   94  215 1    
   187   95   96 1    
   188   95   97 1    
   189   95  216 1    
   190   96  217 1    
   191   96  218 1    
   192   96  219 1    
   193   97   98 2    
   194   97   99 am   BACKBONE|DICT|INTERRES
   195   99  100 1    
   196   99  220 1    
   197  100  101 1    
   198  100  102 1    
   199  100  221 1    
   200  101  222 1    
   201  101  223 1    
   202  101  224 1    
   203  102  103 2    
   204  102  104 am   BACKBONE|DICT|INTERRES
   205  104  105 1    
   206  104  225 1    
   207  105  106 1    
   208  105  107 1    
   209  105  226 1    
   210  106  227 1    
   211  106  228 1    
   212  106  229 1    
   213  107  108 2    
   214  107  109 am   BACKBONE|DICT|INTERRES
   215  109  110 1    
   216  109  230 1    
   217  110  111 1    
   218  110  112 1    
   219  110  231 1    
   220  111  232 1    
   221  111  233 1    
   222  111  234 1    
   223  112  113 2    
   224  112  114 am   BACKBONE|DICT|INTERRES
   225  114  115 1    
   226  114  235 1    
   227  115  116 1    
   228  115  117 1    
   229  115  236 1    
   230  116  237 1    
   231  116  238 1    
   232  116  239 1    
   233  117  118 2    
   234  117  119 am   BACKBONE|DICT|INTERRES
   235  119  120 1    
   236  119  240 1    
   237  120  121 1    
   238  120  124 1    
   239  120  241 1    
   240  121  122 am   BACKBONE|DICT|INTERRES
   241  121  123 2    
   242  122  242 1    
   243  122  243 1    
   244  124  125 1    
   245  124  244 1    
   246  124  245 1    
   247  125  126 1    
   248  126  246 1    
   249  126  247 1    
@<TRIPOS>SUBSTRUCTURE
     1 UNK         1 GROUP             0       ****    0 ROOT    
