@<TRIPOS>MOLECULE
3R540
247   249    1
SMALL
USER_CHARGES


@<TRIPOS>ATOM
      1 CA          5.0822  -11.1019  -51.0535 C.3       0 UNK        -0.1800 
      2 C           4.8840  -11.7113  -49.6733 C.2       0 UNK         0.5000 
      3 O           4.7416  -10.9794  -48.6932 O.2       0 UNK        -0.5000 
      4 N           4.8591  -13.0488  -49.5912 N.am      1 UNK        -0.5000 
      5 CA          4.6840  -13.8149  -48.3492 C.3       1 UNK         0.1400 
      6 C6          5.0251  -15.3164  -48.5291 C.3       23 UNK        -0.0398 
      7 S7          4.0010  -16.1680  -49.7805 S.3       23 UNK        -0.2404 
      8 C8          2.7922  -17.0214  -48.7202 C.3       23 UNK        -0.0205 
      9 C9          1.5909  -17.4738  -49.5289 C.ar      23 UNK        -0.0193 
     10 C10         0.5797  -16.5629  -49.8438 C.ar      23 UNK        -0.1150 
     11 C11        -0.5202  -16.9606  -50.6069 C.ar      23 UNK        -0.0193 
     12 C12        -0.6067  -18.2825  -51.0485 C.ar      23 UNK        -0.1150 
     13 C13         0.3863  -19.2105  -50.7194 C.ar      23 UNK        -0.0193 
     14 C14         1.4871  -18.7973  -49.9635 C.ar      23 UNK        -0.1150 
     15 C15         0.2694  -20.6640  -51.1611 C.3       23 UNK        -0.0205 
     16 S16        -1.3402  -21.4098  -50.7401 S.3       23 UNK        -0.2404 
     17 C17        -1.4248  -21.1689  -48.9319 C.3       23 UNK        -0.0398 
     18 CA         -1.1440  -22.4651  -48.1389 C.3       11 UNK         0.1400 
     19 N          -0.6385  -22.1770  -46.7957 N.am      11 UNK        -0.5000 
     20 C          -0.2039  -23.1003  -45.9275 C.2       10 UNK         0.5000 
     21 O          -0.1151  -24.2987  -46.1983 O.2       10 UNK        -0.5000 
     22 CA          0.1223  -22.6239  -44.4991 C.3       10 UNK         0.1400 
     23 CB          1.6296  -22.3786  -44.3454 C.3       10 UNK        -0.1800 
     24 N          -0.6212  -21.4273  -44.0883 N.am      10 UNK        -0.5000 
     25 C          -1.9586  -21.3358  -44.0246 C.2       9 UNK         0.5000 
     26 O          -2.7173  -22.2687  -44.2892 O.2       9 UNK        -0.5000 
     27 CA         -2.5550  -19.9643  -43.6660 C.3       9 UNK         0.1400 
     28 CB         -2.5984  -19.7781  -42.1427 C.3       9 UNK        -0.1800 
     29 N          -1.8410  -18.8469  -44.2889 N.am      9 UNK        -0.5000 
     30 C          -1.7677  -18.6290  -45.6111 C.2       8 UNK         0.5000 
     31 O          -2.3199  -19.3427  -46.4475 O.2       8 UNK        -0.5000 
     32 CA         -0.8943  -17.4486  -46.0818 C.3       8 UNK         0.1400 
     33 CB         -1.6371  -16.1120  -45.9398 C.3       8 UNK        -0.1800 
     34 N           0.3751  -17.3817  -45.3598 N.am      8 UNK        -0.5000 
     35 C           1.3374  -18.3110  -45.4465 C.2       7 UNK         0.5000 
     36 O           1.2952  -19.2732  -46.2130 O.2       7 UNK        -0.5000 
     37 CA          2.5228  -18.1645  -44.4776 C.3       7 UNK         0.1400 
     38 CB          3.5818  -17.2070  -45.0416 C.3       7 UNK        -0.1800 
     39 N           2.0924  -17.7004  -43.1579 N.am      7 UNK        -0.5000 
     40 C           1.4128  -18.4554  -42.2829 C.2       6 UNK         0.5000 
     41 O           1.0902  -19.6232  -42.4974 O.2       6 UNK        -0.5000 
     42 CA          0.9942  -17.7855  -40.9612 C.3       6 UNK         0.1400 
     43 CB          2.1422  -17.8371  -39.9422 C.3       6 UNK        -0.1800 
     44 N           0.5642  -16.3980  -41.1368 N.am      6 UNK        -0.5000 
     45 C          -0.5281  -16.0220  -41.8168 C.2       5 UNK         0.5000 
     46 O          -1.3051  -16.8109  -42.3507 O.2       5 UNK        -0.5000 
     47 CA         -0.7658  -14.5087  -41.9692 C.3       5 UNK         0.1400 
     48 CB         -1.5798  -13.9677  -40.7847 C.3       5 UNK        -0.1800 
     49 N           0.4714  -13.7353  -42.1037 N.am      5 UNK        -0.5000 
     50 C           1.3585  -13.8905  -43.0945 C.2       4 UNK         0.5000 
     51 O           1.2430  -14.7309  -43.9902 O.2       4 UNK        -0.5000 
     52 CA          2.5789  -12.9604  -43.0692 C.3       4 UNK         0.1400 
     53 CB          3.8916  -13.7602  -43.0886 C.3       4 UNK        -0.1800 
     54 N           2.5191  -12.0924  -44.2380 N.am      4 UNK        -0.5000 
     55 C           1.9835  -10.8634  -44.2471 C.2       3 UNK         0.5000 
     56 O           1.5873  -10.2869  -43.2332 O.2       3 UNK        -0.5000 
     57 CA          1.8504  -10.1542  -45.6118 C.3       3 UNK         0.1400 
     58 CB          3.0423   -9.2144  -45.8484 C.3       3 UNK        -0.1800 
     59 N           1.7503  -11.0813  -46.7382 N.am      3 UNK        -0.5000 
     60 C           0.7309  -11.9259  -46.9519 C.2       2 UNK         0.5000 
     61 O          -0.3092  -11.9180  -46.2931 O.2       2 UNK        -0.5000 
     62 CA          0.9056  -12.9701  -48.0744 C.3       2 UNK         0.1400 
     63 CB          0.0855  -12.5671  -49.3102 C.3       2 UNK        -0.1800 
     64 N           2.2942  -13.2032  -48.4869 N.am      2 UNK        -0.5000 
     65 C           3.2956  -13.6274  -47.6997 C.2       1 UNK         0.5000 
     66 O           3.1655  -13.8515  -46.4987 O.2       1 UNK        -0.5000 
     67 C          -2.3817  -23.3895  -48.1076 C.2       11 UNK         0.5000 
     68 O          -2.4970  -24.2792  -48.9484 O.2       11 UNK        -0.5000 
     69 N          -3.2625  -23.1938  -47.1182 N.am      12 UNK        -0.5000 
     70 CA         -4.4264  -24.0438  -46.8868 C.3       12 UNK         0.1400 
     71 CB         -5.5511  -23.2083  -46.2534 C.3       12 UNK        -0.1800 
     72 C          -4.0720  -25.2362  -45.9843 C.2       12 UNK         0.5000 
     73 O          -4.4513  -26.3654  -46.2921 O.2       12 UNK        -0.5000 
     74 N          -3.3752  -24.9592  -44.8746 N.am      13 UNK        -0.5000 
     75 CA         -3.1485  -25.9104  -43.7880 C.3       13 UNK         0.1400 
     76 CB         -2.7429  -25.1409  -42.5214 C.3       13 UNK        -0.1800 
     77 C          -2.1190  -27.0090  -44.1031 C.2       13 UNK         0.5000 
     78 O          -2.2984  -28.1362  -43.6392 O.2       13 UNK        -0.5000 
     79 N          -1.0601  -26.6710  -44.8506 N.am      14 UNK        -0.5000 
     80 CA          0.0561  -27.5720  -45.1405 C.3       14 UNK         0.1400 
     81 CB          1.3728  -26.9353  -44.6634 C.3       14 UNK        -0.1800 
     82 C           0.1231  -27.9228  -46.6324 C.2       14 UNK         0.5000 
     83 O           0.2250  -29.1041  -46.9662 O.2       14 UNK        -0.5000 
     84 N           0.0692  -26.9071  -47.5064 N.am      15 UNK        -0.5000 
     85 CA          0.1992  -27.0892  -48.9569 C.3       15 UNK         0.1400 
     86 CB          0.6560  -25.7746  -49.6059 C.3       15 UNK        -0.1800 
     87 C          -1.0843  -27.6157  -49.6292 C.2       15 UNK         0.5000 
     88 O          -0.9952  -28.1779  -50.7215 O.2       15 UNK        -0.5000 
     89 N          -2.2394  -27.4309  -48.9704 N.am      16 UNK        -0.5000 
     90 CA         -3.5848  -27.8271  -49.4071 C.3       16 UNK         0.1400 
     91 CB         -3.7219  -29.3639  -49.4161 C.3       16 UNK        -0.1800 
     92 C          -4.0144  -27.1693  -50.7376 C.2       16 UNK         0.5000 
     93 O          -4.6642  -27.8096  -51.5669 O.2       16 UNK        -0.5000 
     94 N          -3.6342  -25.8996  -50.9111 N.am      17 UNK        -0.5000 
     95 CA         -3.9327  -25.0622  -52.0638 C.3       17 UNK         0.1400 
     96 CB         -2.6039  -24.5561  -52.6603 C.3       17 UNK        -0.1800 
     97 C          -4.8895  -23.9459  -51.6104 C.2       17 UNK         0.5000 
     98 O          -6.0702  -24.2267  -51.3969 O.2       17 UNK        -0.5000 
     99 N          -4.3733  -22.7164  -51.4657 N.am      18 UNK        -0.5000 
    100 CA        -5.0929  -21.4835  -51.1336 C.3       18 UNK         0.1400 
    101 CB        -5.6123  -21.5225  -49.6801 C.3       18 UNK        -0.1800 
    102 C         -6.1632  -21.1500  -52.1953 C.2       18 UNK         0.5000 
    103 O         -5.8461  -21.1800  -53.3868 O.2       18 UNK        -0.5000 
    104 N         -7.3916  -20.8351  -51.7584 N.am      19 UNK        -0.5000 
    105 CA        -8.5696  -20.5149  -52.5701 C.3       19 UNK         0.1400 
    106 CB        -9.0773  -21.7758  -53.3058 C.3       19 UNK        -0.1800 
    107 C         -8.3243  -19.3092  -53.5006 C.2       19 UNK         0.5000 
    108 O         -8.3917  -18.1694  -53.0394 O.2       19 UNK        -0.5000 
    109 N         -8.0404  -19.5792  -54.7810 N.am      20 UNK        -0.5000 
    110 CA        -7.7400  -18.5814  -55.8069 C.3       20 UNK         0.1400 
    111 CB        -7.9022  -19.2329  -57.1891 C.3       20 UNK        -0.1800 
    112 C         -6.3398  -17.9496  -55.6717 C.2       20 UNK         0.5000 
    113 O         -6.1131  -16.8823  -56.2466 O.2       20 UNK        -0.5000 
    114 N         -5.4216  -18.6026  -54.9403 N.am      21 UNK        -0.5000 
    115 CA        -4.0587  -18.1211  -54.7012 C.3       21 UNK         0.1400 
    116 CB        -3.2646  -19.1683  -53.9068 C.3       21 UNK        -0.1800 
    117 C         -4.0541  -16.7604  -53.9782 C.2       21 UNK         0.5000 
    118 O         -4.7085  -16.6158  -52.9435 O.2       21 UNK        -0.5000 
    119 N         -3.3376  -15.7945  -54.5638 N.am      22 UNK        -0.5000 
    120 CA        -3.2890  -14.3739  -54.1690 C.3       22 UNK         0.1400 
    121 C         -4.5982  -13.5746  -54.4594 C.2       22 UNK         0.5000 
    122 N         -5.5729  -14.1138  -55.1835 N.am      22 UNK        -0.7600 
    123 O         -4.7237  -12.4233  -54.0504 O.2       22 UNK        -0.5000 
    124 C124       -2.7624  -14.1275  -52.7246 C.3       23 UNK        -0.0398 
    125 S125       -1.1692  -14.9534  -52.3859 S.3       23 UNK        -0.2404 
    126 C126       -1.6195  -15.9699  -50.9474 C.3       23 UNK        -0.0205 
    127 H127        4.2323  -10.4691  -51.3094 H         1 UNK         0.0600 
    128 H128        5.1814  -11.8669  -51.8240 H         1 UNK         0.0600 
    129 H129        5.9824  -10.4874  -51.0659 H         1 UNK         0.0600 
    130 H130        4.9662  -13.6025  -50.4301 H         1 UNK         0.3000 
    131 H131        5.4029  -13.4126  -47.6320 H         1 UNK         0.0600 
    132 H132        6.0672  -15.4122  -48.8368 H         1 UNK         0.0800 
    133 H133        4.9588  -15.8433  -47.5756 H         1 UNK         0.0800 
    134 H134        3.2723  -17.8756  -48.2409 H         1 UNK         0.0800 
    135 H135        2.4541  -16.3657  -47.9171 H         1 UNK         0.0800 
    136 H136        0.6583  -15.5407  -49.5068 H         1 UNK         0.1150 
    137 H137       -1.4593  -18.5966  -51.6319 H         1 UNK         0.1150 
    138 H138        2.2631  -19.5053  -49.7088 H         1 UNK         0.1150 
    139 H139        0.4109  -20.7162  -52.2412 H         1 UNK         0.0800 
    140 H140        1.0592  -21.2703  -50.7147 H         1 UNK         0.0800 
    141 H141       -2.4041  -20.7556  -48.6849 H         1 UNK         0.0800 
    142 H142       -0.7102  -20.3990  -48.6408 H         1 UNK         0.0800 
    143 H143       -0.3411  -23.0005  -48.6465 H         1 UNK         0.0600 
    144 H144       -0.6879  -21.2144  -46.4889 H         1 UNK         0.3000 
    145 H145       -0.1547  -23.4315  -43.8206 H         1 UNK         0.0600 
    146 H146        1.8871  -22.1391  -43.3138 H         1 UNK         0.0600 
    147 H147        2.2002  -23.2658  -44.6233 H         1 UNK         0.0600 
    148 H148        1.9709  -21.5581  -44.9762 H         1 UNK         0.0600 
    149 H149       -0.0654  -20.6303  -43.7943 H         1 UNK         0.3000 
    150 H150       -3.5820  -19.9475  -44.0365 H         1 UNK         0.0600 
    151 H151       -3.1350  -20.5981  -41.6636 H         1 UNK         0.0600 
    152 H152       -3.1107  -18.8545  -41.8731 H         1 UNK         0.0600 
    153 H153       -1.5975  -19.7446  -41.7123 H         1 UNK         0.0600 
    154 H154       -1.4148  -18.1759  -43.6552 H         1 UNK         0.3000 
    155 H155       -0.6709  -17.6007  -47.1403 H         1 UNK         0.0600 
    156 H156       -1.8940  -15.9006  -44.9017 H         1 UNK         0.0600 
    157 H157       -2.5645  -16.1196  -46.5137 H         1 UNK         0.0600 
    158 H158       -1.0322  -15.2833  -46.3079 H         1 UNK         0.0600 
    159 H159        0.5122  -16.5957  -44.7338 H         1 UNK         0.3000 
    160 H160        2.9847  -19.1472  -44.3593 H         1 UNK         0.0600 
    161 H161        3.1569  -16.2310  -45.2749 H         1 UNK         0.0600 
    162 H162        4.0141  -17.6058  -45.9589 H         1 UNK         0.0600 
    163 H163        4.4001  -17.0587  -44.3369 H         1 UNK         0.0600 
    164 H164        2.2620  -16.7295  -42.9395 H         1 UNK         0.3000 
    165 H165        0.1528  -18.3502  -40.5545 H         1 UNK         0.0600 
    166 H166        1.8302  -17.4392  -38.9763 H         1 UNK         0.0600 
    167 H167        2.4718  -18.8639  -39.7780 H         1 UNK         0.0600 
    168 H168        3.0073  -17.2642  -40.2784 H         1 UNK         0.0600 
    169 H169        1.1485  -15.6819  -40.7315 H         1 UNK         0.3000 
    170 H170       -1.3489  -14.3594  -42.8804 H         1 UNK         0.0600 
    171 H171       -2.5176  -14.5139  -40.6740 H         1 UNK         0.0600 
    172 H172       -1.0340  -14.0585  -39.8448 H         1 UNK         0.0600 
    173 H173       -1.8328  -12.9169  -40.9268 H         1 UNK         0.0600 
    174 H174        0.6291  -13.0151  -41.4134 H         1 UNK         0.3000 
    175 H175        2.5656  -12.3675  -42.1522 H         1 UNK         0.0600 
    176 H176        3.9909  -14.3599  -43.9930 H         1 UNK         0.0600 
    177 H177        4.7545  -13.0964  -43.0360 H         1 UNK         0.0600 
    178 H178        3.9492  -14.4383  -42.2364 H         1 UNK         0.0600 
    179 H179        2.7480  -12.5425  -45.1203 H         1 UNK         0.3000 
    180 H180        0.9387   -9.5540  -45.5851 H         1 UNK         0.0600 
    181 H181        3.9818   -9.7655  -45.9097 H         1 UNK         0.0600 
    182 H182        3.1371   -8.4903  -45.0381 H         1 UNK         0.0600 
    183 H183        2.9236   -8.6517  -46.7746 H         1 UNK         0.0600 
    184 H184        2.5631  -11.1543  -47.3353 H         1 UNK         0.3000 
    185 H185        0.5174  -13.9162  -47.6929 H         1 UNK         0.0600 
    186 H186       -0.9712  -12.4614  -49.0613 H         1 UNK         0.0600 
    187 H187        0.4232  -11.6149  -49.7211 H         1 UNK         0.0600 
    188 H188        0.1572  -13.3139  -50.1002 H         1 UNK         0.0600 
    189 H189        2.5061  -13.0368  -49.4597 H         1 UNK         0.3000 
    190 H190       -3.0687  -22.4898  -46.4169 H         1 UNK         0.3000 
    191 H191       -4.7950  -24.4326  -47.8390 H         1 UNK         0.0600 
    192 H192       -5.8468  -22.3830  -46.8996 H         1 UNK         0.0600 
    193 H193       -6.4388  -23.8183  -46.0817 H         1 UNK         0.0600 
    194 H194       -5.2536  -22.7856  -45.2931 H         1 UNK         0.0600 
    195 H195       -3.1155  -23.9923  -44.6899 H         1 UNK         0.3000 
    196 H196       -4.0983  -26.4081  -43.5798 H         1 UNK         0.0600 
    197 H197       -2.6180  -25.8180  -41.6754 H         1 UNK         0.0600 
    198 H198       -3.5029  -24.4103  -42.2434 H         1 UNK         0.0600 
    199 H199       -1.8021  -24.6083  -42.6562 H         1 UNK         0.0600 
    200 H200       -0.9891  -25.7320  -45.2284 H         1 UNK         0.3000 
    201 H201       -0.0579  -28.5125  -44.5975 H         1 UNK         0.0600 
    202 H202        1.3411  -26.7239  -43.5945 H         1 UNK         0.0600 
    203 H203        1.5917  -26.0015  -45.1808 H         1 UNK         0.0600 
    204 H204        2.2138  -27.6077  -44.8364 H         1 UNK         0.0600 
    205 H205        0.0043  -25.9545  -47.1579 H         1 UNK         0.3000 
    206 H206        0.9838  -27.8276  -49.1363 H         1 UNK         0.0600 
    207 H207        1.5241  -25.3556  -49.0967 H         1 UNK         0.0600 
    208 H208        0.9346  -25.9361  -50.6478 H         1 UNK         0.0600 
    209 H209       -0.1341  -25.0285  -49.6009 H         1 UNK         0.0600 
    210 H210       -2.1957  -26.9305  -48.0943 H         1 UNK         0.3000 
    211 H211       -4.2757  -27.4458  -48.6560 H         1 UNK         0.0600 
    212 H212       -3.1024  -29.8222  -50.1875 H         1 UNK         0.0600 
    213 H213       -4.7535  -29.6636  -49.6041 H         1 UNK         0.0600 
    214 H214       -3.4318  -29.7899  -48.4556 H         1 UNK         0.0600 
    215 H215       -3.1461  -25.4276  -50.1501 H         1 UNK         0.3000 
    216 H216       -4.4527  -25.6313  -52.8368 H         1 UNK         0.0600 
    217 H217       -2.7749  -23.8498  -53.4739 H         1 UNK         0.0600 
    218 H218       -2.0280  -25.3856  -53.0709 H         1 UNK         0.0600 
    219 H219       -1.9782  -24.0696  -51.9118 H         1 UNK         0.0600 
    220 H220       -3.3893  -22.5954  -51.6628 H         1 UNK         0.3000 
    221 H221       -4.3581  -20.6804  -51.1866 H         1 UNK         0.0600 
    222 H222       -6.3635  -22.2983  -49.5287 H         1 UNK         0.0600 
    223 H223       -4.7933  -21.7160  -48.9898 H         1 UNK         0.0600 
    224 H224       -6.0490  -20.5674  -49.3866 H         1 UNK         0.0600 
    225 H225       -7.5402  -20.8150  -50.7596 H         1 UNK         0.3000 
    226 H226       -9.3521  -20.2086  -51.8742 H         1 UNK         0.0600 
    227 H227       -9.3642  -22.5490  -52.5930 H         1 UNK         0.0600 
    228 H228       -9.9588  -21.5510  -53.9075 H         1 UNK         0.0600 
    229 H229       -8.3245  -22.2066  -53.9664 H         1 UNK         0.0600 
    230 H230       -7.9634  -20.5477  -55.0565 H         1 UNK         0.3000 
    231 H231       -8.4700  -17.7734  -55.7242 H         1 UNK         0.0600 
    232 H232       -7.2039  -20.0592  -57.3284 H         1 UNK         0.0600 
    233 H233       -7.7195  -18.5109  -57.9862 H         1 UNK         0.0600 
    234 H234       -8.9124  -19.6186  -57.3279 H         1 UNK         0.0600 
    235 H235       -5.6853  -19.4685  -54.4818 H         1 UNK         0.3000 
    236 H236       -3.5823  -18.0092  -55.6774 H         1 UNK         0.0600 
    237 H237       -3.3124  -20.1498  -54.3787 H         1 UNK         0.0600 
    238 H238       -2.2125  -18.8885  -53.8462 H         1 UNK         0.0600 
    239 H239       -3.6383  -19.2650  -52.8881 H         1 UNK         0.0600 
    240 H240       -2.8411  -16.0141  -55.4154 H         1 UNK         0.3000 
    241 H241       -2.5562  -13.9299  -54.8434 H         1 UNK         0.0600 
    242 H242       -6.4014  -13.5713  -55.3692 H         1 UNK         0.3800 
    243 H243       -5.5157  -15.0647  -55.5313 H         1 UNK         0.3800 
    244 H244       -2.6094  -13.0602  -52.5573 H         1 UNK         0.0800 
    245 H245       -3.5081  -14.4362  -51.9909 H         1 UNK         0.0800 
    246 H246       -2.5492  -16.5033  -51.1518 H         1 UNK         0.0800 
    247 H247       -1.8155  -15.3221  -50.0916 H         1 UNK         0.0800 
@<TRIPOS>BOND
     1    1    2 1    
     2    1  127 1    
     3    1  128 1    
     4    1  129 1    
     5    2    3 2    
     6    2    4 am   BACKBONE|DICT|INTERRES
     7    4    5 1    
     8    4  130 1    
     9    5    6 1    
    10    5   65 1    
    11    5  131 1    
    12    6    7 1    
    13    6  132 1    
    14    6  133 1    
    15    7    8 1    
    16    8    9 1    
    17    8  134 1    
    18    8  135 1    
    19    9   10 ar   
    20    9   14 ar   
    21   10   11 ar   
    22   10  136 1    
    23   11   12 ar   
    24   11  126 1    
    25   12   13 ar   
    26   12  137 1    
    27   13   14 ar   
    28   13   15 1    
    29   14  138 1    
    30   15   16 1    
    31   15  139 1    
    32   15  140 1    
    33   16   17 1    
    34   17   18 1    
    35   17  141 1    
    36   17  142 1    
    37   18   19 1    
    38   18   67 1    
    39   18  143 1    
    40   19   20 am   BACKBONE|DICT|INTERRES
    41   19  144 1    
    42   20   21 2    
    43   20   22 1    
    44   22   23 1    
    45   22   24 1    
    46   22  145 1    
    47   23  146 1    
    48   23  147 1    
    49   23  148 1    
    50   24   25 am   BACKBONE|DICT|INTERRES
    51   24  149 1    
    52   25   26 2    
    53   25   27 1    
    54   27   28 1    
    55   27   29 1    
    56   27  150 1    
    57   28  151 1    
    58   28  152 1    
    59   28  153 1    
    60   29   30 am   BACKBONE|DICT|INTERRES
    61   29  154 1    
    62   30   31 2    
    63   30   32 1    
    64   32   33 1    
    65   32   34 1    
    66   32  155 1    
    67   33  156 1    
    68   33  157 1    
    69   33  158 1    
    70   34   35 am   BACKBONE|DICT|INTERRES
    71   34  159 1    
    72   35   36 2    
    73   35   37 1    
    74   37   38 1    
    75   37   39 1    
    76   37  160 1    
    77   38  161 1    
    78   38  162 1    
    79   38  163 1    
    80   39   40 am   BACKBONE|DICT|INTERRES
    81   39  164 1    
    82   40   41 2    
    83   40   42 1    
    84   42   43 1    
    85   42   44 1    
    86   42  165 1    
    87   43  166 1    
    88   43  167 1    
    89   43  168 1    
    90   44   45 am   BACKBONE|DICT|INTERRES
    91   44  169 1    
    92   45   46 2    
    93   45   47 1    
    94   47   48 1    
    95   47   49 1    
    96   47  170 1    
    97   48  171 1    
    98   48  172 1    
    99   48  173 1    
   100   49   50 am   BACKBONE|DICT|INTERRES
   101   49  174 1    
   102   50   51 2    
   103   50   52 1    
   104   52   53 1    
   105   52   54 1    
   106   52  175 1    
   107   53  176 1    
   108   53  177 1    
   109   53  178 1    
   110   54   55 am   BACKBONE|DICT|INTERRES
   111   54  179 1    
   112   55   56 2    
   113   55   57 1    
   114   57   58 1    
   115   57   59 1    
   116   57  180 1    
   117   58  181 1    
   118   58  182 1    
   119   58  183 1    
   120   59   60 am   BACKBONE|DICT|INTERRES
   121   59  184 1    
   122   60   61 2    
   123   60   62 1    
   124   62   63 1    
   125   62   64 1    
   126   62  185 1    
   127   63  186 1    
   128   63  187 1    
   129   63  188 1    
   130   64   65 am   BACKBONE|DICT|INTERRES
   131   64  189 1    
   132   65   66 2    
   133   67   68 2    
   134   67   69 am   BACKBONE|DICT|INTERRES
   135   69   70 1    
   136   69  190 1    
   137   70   71 1    
   138   70   72 1    
   139   70  191 1    
   140   71  192 1    
   141   71  193 1    
   142   71  194 1    
   143   72   73 2    
   144   72   74 am   BACKBONE|DICT|INTERRES
   145   74   75 1    
   146   74  195 1    
   147   75   76 1    
   148   75   77 1    
   149   75  196 1    
   150   76  197 1    
   151   76  198 1    
   152   76  199 1    
   153   77   78 2    
   154   77   79 am   BACKBONE|DICT|INTERRES
   155   79   80 1    
   156   79  200 1    
   157   80   81 1    
   158   80   82 1    
   159   80  201 1    
   160   81  202 1    
   161   81  203 1    
   162   81  204 1    
   163   82   83 2    
   164   82   84 am   BACKBONE|DICT|INTERRES
   165   84   85 1    
   166   84  205 1    
   167   85   86 1    
   168   85   87 1    
   169   85  206 1    
   170   86  207 1    
   171   86  208 1    
   172   86  209 1    
   173   87   88 2    
   174   87   89 am   BACKBONE|DICT|INTERRES
   175   89   90 1    
   176   89  210 1    
   177   90   91 1    
   178   90   92 1    
   179   90  211 1    
   180   91  212 1    
   181   91  213 1    
   182   91  214 1    
   183   92   93 2    
   184   92   94 am   BACKBONE|DICT|INTERRES
   185   94   95 1    
   186   94  215 1    
   187   95   96 1    
   188   95   97 1    
   189   95  216 1    
   190   96  217 1    
   191   96  218 1    
   192   96  219 1    
   193   97   98 2    
   194   97   99 am   BACKBONE|DICT|INTERRES
   195   99  100 1    
   196   99  220 1    
   197  100  101 1    
   198  100  102 1    
   199  100  221 1    
   200  101  222 1    
   201  101  223 1    
   202  101  224 1    
   203  102  103 2    
   204  102  104 am   BACKBONE|DICT|INTERRES
   205  104  105 1    
   206  104  225 1    
   207  105  106 1    
   208  105  107 1    
   209  105  226 1    
   210  106  227 1    
   211  106  228 1    
   212  106  229 1    
   213  107  108 2    
   214  107  109 am   BACKBONE|DICT|INTERRES
   215  109  110 1    
   216  109  230 1    
   217  110  111 1    
   218  110  112 1    
   219  110  231 1    
   220  111  232 1    
   221  111  233 1    
   222  111  234 1    
   223  112  113 2    
   224  112  114 am   BACKBONE|DICT|INTERRES
   225  114  115 1    
   226  114  235 1    
   227  115  116 1    
   228  115  117 1    
   229  115  236 1    
   230  116  237 1    
   231  116  238 1    
   232  116  239 1    
   233  117  118 2    
   234  117  119 am   BACKBONE|DICT|INTERRES
   235  119  120 1    
   236  119  240 1    
   237  120  121 1    
   238  120  124 1    
   239  120  241 1    
   240  121  122 am   BACKBONE|DICT|INTERRES
   241  121  123 2    
   242  122  242 1    
   243  122  243 1    
   244  124  125 1    
   245  124  244 1    
   246  124  245 1    
   247  125  126 1    
   248  126  246 1    
   249  126  247 1    
@<TRIPOS>SUBSTRUCTURE
     1 UNK         1 GROUP             0       ****    0 ROOT    
