@<TRIPOS>MOLECULE
3R540
247   249    1
SMALL
USER_CHARGES


@<TRIPOS>ATOM
      1 CA          3.6469  -14.8832  -45.4579 C.3       0 UNK        -0.1800 
      2 C           2.6534  -13.7320  -45.4517 C.2       0 UNK         0.5000 
      3 O           2.5151  -13.0501  -44.4357 O.2       0 UNK        -0.5000 
      4 N           1.9604  -13.5152  -46.5787 N.am      1 UNK        -0.5000 
      5 CA          0.8853  -12.5249  -46.7416 C.3       1 UNK         0.1400 
      6 C6          0.1680  -12.6454  -48.1086 C.3       23 UNK        -0.0398 
      7 S7         -0.6004  -14.2787  -48.3680 S.3       23 UNK        -0.2404 
      8 C8          0.2393  -14.8325  -49.8827 C.3       23 UNK        -0.0205 
      9 C9         -0.3009  -16.1772  -50.3407 C.ar      23 UNK        -0.0193 
     10 C10        -1.3711  -16.2396  -51.2379 C.ar      23 UNK        -0.1150 
     11 C11        -1.8741  -17.4751  -51.6559 C.ar      23 UNK        -0.0193 
     12 C12        -1.3085  -18.6528  -51.1577 C.ar      23 UNK        -0.1150 
     13 C13        -0.2295  -18.6050  -50.2697 C.ar      23 UNK        -0.0193 
     14 C14         0.2733  -17.3612  -49.8713 C.ar      23 UNK        -0.1150 
     15 C15         0.4085  -19.8994  -49.7815 C.3       23 UNK        -0.0205 
     16 S16         0.6527  -19.9253  -47.9774 S.3       23 UNK        -0.2404 
     17 C17         1.1704  -21.6550  -47.7195 C.3       23 UNK        -0.0398 
     18 CA          0.1075  -22.5716  -47.0637 C.3       11 UNK         0.1400 
     19 N          -0.0808  -22.2974  -45.6354 N.am      11 UNK        -0.5000 
     20 C          -0.6469  -23.1676  -44.7857 C.2       10 UNK         0.5000 
     21 O          -1.0709  -24.2713  -45.1290 O.2       10 UNK        -0.5000 
     22 CA         -0.8015  -22.7272  -43.3192 C.3       10 UNK         0.1400 
     23 CB          0.5405  -22.8069  -42.5773 C.3       10 UNK        -0.1800 
     24 N          -1.3639  -21.3846  -43.1822 N.am      10 UNK        -0.5000 
     25 C          -2.5879  -21.0268  -43.5958 C.2       9 UNK         0.5000 
     26 O          -3.3780  -21.7941  -44.1440 O.2       9 UNK        -0.5000 
     27 CA         -2.9796  -19.5536  -43.3989 C.3       9 UNK         0.1400 
     28 CB         -3.4636  -19.2939  -41.9643 C.3       9 UNK        -0.1800 
     29 N          -1.8688  -18.6597  -43.7183 N.am      9 UNK        -0.5000 
     30 C          -1.4331  -18.4294  -44.9646 C.2       8 UNK         0.5000 
     31 O          -1.9682  -18.8952  -45.9690 O.2       8 UNK        -0.5000 
     32 CA         -0.1752  -17.5546  -45.1028 C.3       8 UNK         0.1400 
     33 CB         -0.5603  -16.0690  -45.0655 C.3       8 UNK        -0.1800 
     34 N           0.8192  -17.8335  -44.0638 N.am      8 UNK        -0.5000 
     35 C           1.4829  -18.9957  -43.9412 C.2       7 UNK         0.5000 
     36 O           1.3469  -19.9476  -44.7080 O.2       7 UNK        -0.5000 
     37 CA          2.4200  -19.1514  -42.7271 C.3       7 UNK         0.1400 
     38 CB          3.8331  -18.6592  -43.0734 C.3       7 UNK        -0.1800 
     39 N           1.9486  -18.4491  -41.5352 N.am      7 UNK        -0.5000 
     40 C           0.7617  -18.6301  -40.9384 C.2       6 UNK         0.5000 
     41 O          -0.0410  -19.5029  -41.2704 O.2       6 UNK        -0.5000 
     42 CA          0.3845  -17.6285  -39.8269 C.3       6 UNK         0.1400 
     43 CB          0.5821  -18.2644  -38.4431 C.3       6 UNK        -0.1800 
     44 N           1.1313  -16.3642  -39.8872 N.am      6 UNK        -0.5000 
     45 C           1.1005  -15.4961  -40.9085 C.2       5 UNK         0.5000 
     46 O           0.4260  -15.6637  -41.9272 O.2       5 UNK        -0.5000 
     47 CA          2.0586  -14.2990  -40.8060 C.3       5 UNK         0.1400 
     48 CB          3.4662  -14.7059  -41.2714 C.3       5 UNK        -0.1800 
     49 N           1.6130  -13.1747  -41.6217 N.am      5 UNK        -0.5000 
     50 C           0.6433  -12.3143  -41.2865 C.2       4 UNK         0.5000 
     51 O          -0.0069  -12.3903  -40.2419 O.2       4 UNK        -0.5000 
     52 CA          0.3994  -11.1579  -42.2818 C.3       4 UNK         0.1400 
     53 CB         -0.4312  -10.0008  -41.6893 C.3       4 UNK        -0.1800 
     54 N           1.6543  -10.6680  -42.8633 N.am      4 UNK        -0.5000 
     55 C           2.7049  -10.1347  -42.2195 C.2       3 UNK         0.5000 
     56 O           2.6964   -9.8147  -41.0303 O.2       3 UNK        -0.5000 
     57 CA          4.0062   -9.9708  -43.0289 C.3       3 UNK         0.1400 
     58 CB          5.0335  -11.0301  -42.5970 C.3       3 UNK        -0.1800 
     59 N           3.7885  -10.1058  -44.4695 N.am      3 UNK        -0.5000 
     60 C           3.5208   -9.0910  -45.3011 C.2       2 UNK         0.5000 
     61 O           3.4796   -7.9104  -44.9533 O.2       2 UNK        -0.5000 
     62 CA          3.2375   -9.4618  -46.7699 C.3       2 UNK         0.1400 
     63 CB          4.5341   -9.4285  -47.5932 C.3       2 UNK        -0.1800 
     64 N           2.6078  -10.7766  -46.9213 N.am      2 UNK        -0.5000 
     65 C           1.3596  -11.0724  -46.5305 C.2       1 UNK         0.5000 
     66 O           0.6003  -10.2613  -46.0006 O.2       1 UNK        -0.5000 
     67 C          -1.2297  -22.6130  -47.8368 C.2       11 UNK         0.5000 
     68 O          -1.3507  -23.3880  -48.7870 O.2       11 UNK        -0.5000 
     69 N          -2.2172  -21.8164  -47.3990 N.am      12 UNK        -0.5000 
     70 CA         -3.5839  -21.8417  -47.9151 C.3       12 UNK         0.1400 
     71 CB         -4.3608  -20.6115  -47.4269 C.3       12 UNK        -0.1800 
     72 C          -4.3096  -23.1423  -47.5341 C.2       12 UNK         0.5000 
     73 O          -4.9096  -23.7698  -48.4037 O.2       12 UNK        -0.5000 
     74 N          -4.1964  -23.5625  -46.2655 N.am      13 UNK        -0.5000 
     75 CA         -4.7445  -24.8238  -45.7559 C.3       13 UNK         0.1400 
     76 CB         -4.5550  -24.8902  -44.2331 C.3       13 UNK        -0.1800 
     77 C          -4.1373  -26.0660  -46.4371 C.2       13 UNK         0.5000 
     78 O          -4.8565  -27.0312  -46.6971 O.2       13 UNK        -0.5000 
     79 N          -2.8364  -26.0010  -46.7500 N.am      14 UNK        -0.5000 
     80 CA         -2.1121  -27.0045  -47.5318 C.3       14 UNK         0.1400 
     81 CB         -0.6044  -26.8026  -47.3125 C.3       14 UNK        -0.1800 
     82 C          -2.4368  -26.9652  -49.0406 C.2       14 UNK         0.5000 
     83 O          -2.1131  -27.9241  -49.7424 O.2       14 UNK        -0.5000 
     84 N          -3.0396  -25.8614  -49.5112 N.am      15 UNK        -0.5000 
     85 CA         -3.3317  -25.5170  -50.9061 C.3       15 UNK         0.1400 
     86 CB         -4.4435  -26.4209  -51.4754 C.3       15 UNK        -0.1800 
     87 C          -2.0572  -25.4928  -51.7738 C.2       15 UNK         0.5000 
     88 O          -2.0273  -26.0769  -52.8584 O.2       15 UNK        -0.5000 
     89 N          -1.0133  -24.8247  -51.2619 N.am      16 UNK        -0.5000 
     90 CA          0.3417  -24.7924  -51.8237 C.3       16 UNK         0.1400 
     91 CB          1.2533  -24.0112  -50.8671 C.3       16 UNK        -0.1800 
     92 C           0.4388  -24.2082  -53.2472 C.2       16 UNK         0.5000 
     93 O           1.3452  -24.5780  -53.9936 O.2       16 UNK        -0.5000 
     94 N          -0.5066  -23.3306  -53.6048 N.am      17 UNK        -0.5000 
     95 CA         -0.6370  -22.7190  -54.9289 C.3       17 UNK         0.1400 
     96 CB         -1.1930  -21.2984  -54.7431 C.3       17 UNK        -0.1800 
     97 C          -1.5211  -23.5465  -55.8896 C.2       17 UNK         0.5000 
     98 O          -1.9300  -23.0234  -56.9262 O.2       17 UNK        -0.5000 
     99 N          -1.8375  -24.7967  -55.5133 N.am      18 UNK        -0.5000 
    100 CA        -2.7955  -25.7252  -56.1340 C.3       18 UNK         0.1400 
    101 CB        -2.4862  -25.9775  -57.6243 C.3       18 UNK        -0.1800 
    102 C         -4.2685  -25.3323  -55.8851 C.2       18 UNK         0.5000 
    103 O         -5.1741  -25.9358  -56.4621 O.2       18 UNK        -0.5000 
    104 N         -4.4784  -24.3537  -55.0011 N.am      19 UNK        -0.5000 
    105 CA        -5.7460  -23.8410  -54.5103 C.3       19 UNK         0.1400 
    106 CB        -6.4042  -22.9362  -55.5668 C.3       19 UNK        -0.1800 
    107 C         -5.4312  -23.0515  -53.2342 C.2       19 UNK         0.5000 
    108 O         -4.3191  -22.5318  -53.1000 O.2       19 UNK        -0.5000 
    109 N         -6.4062  -22.9621  -52.3241 N.am      20 UNK        -0.5000 
    110 CA        -6.2771  -22.2143  -51.0706 C.3       20 UNK         0.1400 
    111 CB        -7.3902  -22.6498  -50.1055 C.3       20 UNK        -0.1800 
    112 C         -6.3167  -20.6906  -51.2825 C.2       20 UNK         0.5000 
    113 O         -5.6251  -19.9556  -50.5794 O.2       20 UNK        -0.5000 
    114 N         -7.1234  -20.2544  -52.2572 N.am      21 UNK        -0.5000 
    115 CA        -7.3514  -18.8502  -52.6001 C.3       21 UNK         0.1400 
    116 CB        -8.8473  -18.6719  -52.9138 C.3       21 UNK        -0.1800 
    117 C         -6.4810  -18.3709  -53.7792 C.2       21 UNK         0.5000 
    118 O         -6.6738  -17.2426  -54.2346 O.2       21 UNK        -0.5000 
    119 N         -5.5600  -19.2224  -54.2578 N.am      22 UNK        -0.5000 
    120 CA        -4.7416  -19.0382  -55.4713 C.3       22 UNK         0.1400 
    121 C         -5.5749  -19.0829  -56.7920 C.2       22 UNK         0.5000 
    122 N         -4.9319  -18.9805  -57.9480 N.am      22 UNK        -0.7600 
    123 O         -6.7923  -19.2537  -56.7975 O.2       22 UNK        -0.5000 
    124 C124       -3.8018  -17.7954  -55.3893 C.3       23 UNK        -0.0398 
    125 S125       -2.3730  -18.0562  -54.2911 S.3       23 UNK        -0.2404 
    126 C126       -3.0083  -17.5432  -52.6663 C.3       23 UNK        -0.0205 
    127 H127        4.6099  -14.5516  -45.0698 H         1 UNK         0.0600 
    128 H128        3.2806  -15.6908  -44.8245 H         1 UNK         0.0600 
    129 H129        3.8012  -15.2796  -46.4616 H         1 UNK         0.0600 
    130 H130        2.1159  -14.1180  -47.3732 H         1 UNK         0.3000 
    131 H131        0.1496  -12.7293  -45.9604 H         1 UNK         0.0600 
    132 H132        0.8609  -12.4291  -48.9239 H         1 UNK         0.0800 
    133 H133       -0.6286  -11.9028  -48.1861 H         1 UNK         0.0800 
    134 H134        1.3133  -14.9008  -49.7035 H         1 UNK         0.0800 
    135 H135        0.1017  -14.0887  -50.6692 H         1 UNK         0.0800 
    136 H136       -1.8079  -15.3253  -51.6145 H         1 UNK         0.1150 
    137 H137       -1.6965  -19.6069  -51.4869 H         1 UNK         0.1150 
    138 H138        1.1088  -17.3144  -49.1871 H         1 UNK         0.1150 
    139 H139       -0.2095  -20.7530  -50.0645 H         1 UNK         0.0800 
    140 H140        1.3709  -20.0290  -50.2780 H         1 UNK         0.0800 
    141 H141        1.4897  -22.0788  -48.6710 H         1 UNK         0.0800 
    142 H142        2.0682  -21.6419  -47.1000 H         1 UNK         0.0800 
    143 H143        0.5151  -23.5829  -47.1257 H         1 UNK         0.0600 
    144 H144        0.2715  -21.4067  -45.2911 H         1 UNK         0.3000 
    145 H145       -1.4933  -23.4208  -42.8369 H         1 UNK         0.0600 
    146 H146        0.4357  -22.5070  -41.5343 H         1 UNK         0.0600 
    147 H147        0.9289  -23.8259  -42.5869 H         1 UNK         0.0600 
    148 H148        1.2931  -22.1675  -43.0369 H         1 UNK         0.0600 
    149 H149       -0.7944  -20.6944  -42.7033 H         1 UNK         0.3000 
    150 H150       -3.8065  -19.3327  -44.0774 H         1 UNK         0.0600 
    151 H151       -4.3227  -19.9223  -41.7262 H         1 UNK         0.0600 
    152 H152       -3.7739  -18.2570  -41.8347 H         1 UNK         0.0600 
    153 H153       -2.6900  -19.5070  -41.2266 H         1 UNK         0.0600 
    154 H154       -1.3478  -18.2789  -42.9417 H         1 UNK         0.3000 
    155 H155        0.2806  -17.7602  -46.0722 H         1 UNK         0.0600 
    156 H156        0.3121  -15.4308  -45.1890 H         1 UNK         0.0600 
    157 H157       -1.0444  -15.7978  -44.1271 H         1 UNK         0.0600 
    158 H158       -1.2568  -15.8304  -45.8696 H         1 UNK         0.0600 
    159 H159        0.9396  -17.1172  -43.3565 H         1 UNK         0.3000 
    160 H160        2.4778  -20.2130  -42.4826 H         1 UNK         0.0600 
    161 H161        3.8478  -17.5887  -43.2805 H         1 UNK         0.0600 
    162 H162        4.2191  -19.1703  -43.9565 H         1 UNK         0.0600 
    163 H163        4.5295  -18.8527  -42.2573 H         1 UNK         0.0600 
    164 H164        2.5424  -17.7141  -41.1831 H         1 UNK         0.3000 
    165 H165       -0.6751  -17.3954  -39.9499 H         1 UNK         0.0600 
    166 H166        1.6304  -18.4985  -38.2536 H         1 UNK         0.0600 
    167 H167        0.2363  -17.6008  -37.6503 H         1 UNK         0.0600 
    168 H168        0.0172  -19.1936  -38.3558 H         1 UNK         0.0600 
    169 H169        1.7240  -16.1617  -39.0947 H         1 UNK         0.3000 
    170 H170        2.1115  -13.9787  -39.7633 H         1 UNK         0.0600 
    171 H171        3.8571  -15.5328  -40.6775 H         1 UNK         0.0600 
    172 H172        3.4697  -15.0193  -42.3161 H         1 UNK         0.0600 
    173 H173        4.1676  -13.8777  -41.1694 H         1 UNK         0.0600 
    174 H174        2.0417  -13.0814  -42.5380 H         1 UNK         0.3000 
    175 H175       -0.1713  -11.5843  -43.1081 H         1 UNK         0.0600 
    176 H176       -0.5770   -9.2068  -42.4217 H         1 UNK         0.0600 
    177 H177       -1.4195  -10.3473  -41.3855 H         1 UNK         0.0600 
    178 H178        0.0451   -9.5647  -40.8110 H         1 UNK         0.0600 
    179 H179        1.7945  -10.9133  -43.8337 H         1 UNK         0.3000 
    180 H180        4.4163   -8.9842  -42.8033 H         1 UNK         0.0600 
    181 H181        5.9825  -10.8924  -43.1154 H         1 UNK         0.0600 
    182 H182        5.2365  -10.9685  -41.5271 H         1 UNK         0.0600 
    183 H183        4.6807  -12.0407  -42.8070 H         1 UNK         0.0600 
    184 H184        3.7773  -11.0483  -44.8346 H         1 UNK         0.3000 
    185 H185        2.5567   -8.7099  -47.1747 H         1 UNK         0.0600 
    186 H186        4.3362   -9.6144  -48.6489 H         1 UNK         0.0600 
    187 H187        5.0172   -8.4530  -47.5214 H         1 UNK         0.0600 
    188 H188        5.2501  -10.1755  -47.2481 H         1 UNK         0.0600 
    189 H189        3.1680  -11.5059  -47.3384 H         1 UNK         0.3000 
    190 H190       -2.0267  -21.1699  -46.6440 H         1 UNK         0.3000 
    191 H191       -3.5334  -21.7928  -49.0049 H         1 UNK         0.0600 
    192 H192       -5.3883  -20.6287  -47.7924 H         1 UNK         0.0600 
    193 H193       -3.9042  -19.6915  -47.7926 H         1 UNK         0.0600 
    194 H194       -4.3988  -20.5582  -46.3391 H         1 UNK         0.0600 
    195 H195       -3.7199  -22.9709  -45.5891 H         1 UNK         0.3000 
    196 H196       -5.8162  -24.8256  -45.9649 H         1 UNK         0.0600 
    197 H197       -4.9691  -25.8137  -43.8268 H         1 UNK         0.0600 
    198 H198       -5.0604  -24.0614  -43.7371 H         1 UNK         0.0600 
    199 H199       -3.5011  -24.8521  -43.9564 H         1 UNK         0.0600 
    200 H200       -2.2985  -25.2057  -46.4195 H         1 UNK         0.3000 
    201 H201       -2.3829  -27.9950  -47.1606 H         1 UNK         0.0600 
    202 H202       -0.3469  -26.8600  -46.2548 H         1 UNK         0.0600 
    203 H203       -0.2724  -25.8340  -47.6869 H         1 UNK         0.0600 
    204 H204       -0.0266  -27.5693  -47.8301 H         1 UNK         0.0600 
    205 H205       -3.2772  -25.1407  -48.8414 H         1 UNK         0.3000 
    206 H206       -3.7116  -24.4946  -50.8962 H         1 UNK         0.0600 
    207 H207       -5.3425  -26.3683  -50.8611 H         1 UNK         0.0600 
    208 H208       -4.7212  -26.1127  -52.4836 H         1 UNK         0.0600 
    209 H209       -4.1319  -27.4644  -51.5277 H         1 UNK         0.0600 
    210 H210       -1.1374  -24.3613  -50.3635 H         1 UNK         0.3000 
    211 H211        0.6977  -25.8235  -51.8706 H         1 UNK         0.0600 
    212 H212        0.9380  -22.9709  -50.7856 H         1 UNK         0.0600 
    213 H213        2.2864  -24.0159  -51.2169 H         1 UNK         0.0600 
    214 H214        1.2457  -24.4472  -49.8678 H         1 UNK         0.0600 
    215 H215       -1.2185  -23.0953  -52.9281 H         1 UNK         0.3000 
    216 H216        0.3484  -22.6355  -55.3916 H         1 UNK         0.0600 
    217 H217       -1.2432  -20.7644  -55.6927 H         1 UNK         0.0600 
    218 H218       -0.5592  -20.7104  -54.0788 H         1 UNK         0.0600 
    219 H219       -2.1980  -21.3104  -54.3201 H         1 UNK         0.0600 
    220 H220       -1.4814  -25.1188  -54.6196 H         1 UNK         0.3000 
    221 H221       -2.6547  -26.6731  -55.6129 H         1 UNK         0.0600 
    222 H222       -2.7256  -25.1136  -58.2443 H         1 UNK         0.0600 
    223 H223       -1.4345  -26.2213  -57.7746 H         1 UNK         0.0600 
    224 H224       -3.0705  -26.8164  -58.0041 H         1 UNK         0.0600 
    225 H225       -3.6768  -23.9224  -54.5590 H         1 UNK         0.3000 
    226 H226       -6.4037  -24.6774  -54.2653 H         1 UNK         0.0600 
    227 H227       -7.3332  -22.5041  -55.1933 H         1 UNK         0.0600 
    228 H228       -5.7492  -22.1123  -55.8524 H         1 UNK         0.0600 
    229 H229       -6.6484  -23.4943  -56.4706 H         1 UNK         0.0600 
    230 H230       -7.2892  -23.4239  -52.4900 H         1 UNK         0.3000 
    231 H231       -5.3133  -22.4590  -50.6220 H         1 UNK         0.0600 
    232 H232       -7.3009  -22.1313  -49.1500 H         1 UNK         0.0600 
    233 H233       -7.3333  -23.7185  -49.8976 H         1 UNK         0.0600 
    234 H234       -8.3820  -22.4361  -50.5055 H         1 UNK         0.0600 
    235 H235       -7.6443  -20.9349  -52.7906 H         1 UNK         0.3000 
    236 H236       -7.1096  -18.2156  -51.7450 H         1 UNK         0.0600 
    237 H237       -9.1448  -19.2468  -53.7918 H         1 UNK         0.0600 
    238 H238       -9.4669  -18.9924  -52.0761 H         1 UNK         0.0600 
    239 H239       -9.0878  -17.6262  -53.1093 H         1 UNK         0.0600 
    240 H240       -5.4724  -20.1201  -53.8057 H         1 UNK         0.3000 
    241 H241       -4.1151  -19.9298  -55.5227 H         1 UNK         0.0600 
    242 H242       -5.4638  -19.0251  -58.8035 H         1 UNK         0.3800 
    243 H243       -3.9299  -18.8828  -57.9972 H         1 UNK         0.3800 
    244 H244       -4.3348  -16.8918  -55.0961 H         1 UNK         0.0800 
    245 H245       -3.3733  -17.5635  -56.3645 H         1 UNK         0.0800 
    246 H246       -3.5075  -16.5770  -52.7534 H         1 UNK         0.0800 
    247 H247       -3.7579  -18.2563  -52.3209 H         1 UNK         0.0800 
@<TRIPOS>BOND
     1    1    2 1    
     2    1  127 1    
     3    1  128 1    
     4    1  129 1    
     5    2    3 2    
     6    2    4 am   BACKBONE|DICT|INTERRES
     7    4    5 1    
     8    4  130 1    
     9    5    6 1    
    10    5   65 1    
    11    5  131 1    
    12    6    7 1    
    13    6  132 1    
    14    6  133 1    
    15    7    8 1    
    16    8    9 1    
    17    8  134 1    
    18    8  135 1    
    19    9   10 ar   
    20    9   14 ar   
    21   10   11 ar   
    22   10  136 1    
    23   11   12 ar   
    24   11  126 1    
    25   12   13 ar   
    26   12  137 1    
    27   13   14 ar   
    28   13   15 1    
    29   14  138 1    
    30   15   16 1    
    31   15  139 1    
    32   15  140 1    
    33   16   17 1    
    34   17   18 1    
    35   17  141 1    
    36   17  142 1    
    37   18   19 1    
    38   18   67 1    
    39   18  143 1    
    40   19   20 am   BACKBONE|DICT|INTERRES
    41   19  144 1    
    42   20   21 2    
    43   20   22 1    
    44   22   23 1    
    45   22   24 1    
    46   22  145 1    
    47   23  146 1    
    48   23  147 1    
    49   23  148 1    
    50   24   25 am   BACKBONE|DICT|INTERRES
    51   24  149 1    
    52   25   26 2    
    53   25   27 1    
    54   27   28 1    
    55   27   29 1    
    56   27  150 1    
    57   28  151 1    
    58   28  152 1    
    59   28  153 1    
    60   29   30 am   BACKBONE|DICT|INTERRES
    61   29  154 1    
    62   30   31 2    
    63   30   32 1    
    64   32   33 1    
    65   32   34 1    
    66   32  155 1    
    67   33  156 1    
    68   33  157 1    
    69   33  158 1    
    70   34   35 am   BACKBONE|DICT|INTERRES
    71   34  159 1    
    72   35   36 2    
    73   35   37 1    
    74   37   38 1    
    75   37   39 1    
    76   37  160 1    
    77   38  161 1    
    78   38  162 1    
    79   38  163 1    
    80   39   40 am   BACKBONE|DICT|INTERRES
    81   39  164 1    
    82   40   41 2    
    83   40   42 1    
    84   42   43 1    
    85   42   44 1    
    86   42  165 1    
    87   43  166 1    
    88   43  167 1    
    89   43  168 1    
    90   44   45 am   BACKBONE|DICT|INTERRES
    91   44  169 1    
    92   45   46 2    
    93   45   47 1    
    94   47   48 1    
    95   47   49 1    
    96   47  170 1    
    97   48  171 1    
    98   48  172 1    
    99   48  173 1    
   100   49   50 am   BACKBONE|DICT|INTERRES
   101   49  174 1    
   102   50   51 2    
   103   50   52 1    
   104   52   53 1    
   105   52   54 1    
   106   52  175 1    
   107   53  176 1    
   108   53  177 1    
   109   53  178 1    
   110   54   55 am   BACKBONE|DICT|INTERRES
   111   54  179 1    
   112   55   56 2    
   113   55   57 1    
   114   57   58 1    
   115   57   59 1    
   116   57  180 1    
   117   58  181 1    
   118   58  182 1    
   119   58  183 1    
   120   59   60 am   BACKBONE|DICT|INTERRES
   121   59  184 1    
   122   60   61 2    
   123   60   62 1    
   124   62   63 1    
   125   62   64 1    
   126   62  185 1    
   127   63  186 1    
   128   63  187 1    
   129   63  188 1    
   130   64   65 am   BACKBONE|DICT|INTERRES
   131   64  189 1    
   132   65   66 2    
   133   67   68 2    
   134   67   69 am   BACKBONE|DICT|INTERRES
   135   69   70 1    
   136   69  190 1    
   137   70   71 1    
   138   70   72 1    
   139   70  191 1    
   140   71  192 1    
   141   71  193 1    
   142   71  194 1    
   143   72   73 2    
   144   72   74 am   BACKBONE|DICT|INTERRES
   145   74   75 1    
   146   74  195 1    
   147   75   76 1    
   148   75   77 1    
   149   75  196 1    
   150   76  197 1    
   151   76  198 1    
   152   76  199 1    
   153   77   78 2    
   154   77   79 am   BACKBONE|DICT|INTERRES
   155   79   80 1    
   156   79  200 1    
   157   80   81 1    
   158   80   82 1    
   159   80  201 1    
   160   81  202 1    
   161   81  203 1    
   162   81  204 1    
   163   82   83 2    
   164   82   84 am   BACKBONE|DICT|INTERRES
   165   84   85 1    
   166   84  205 1    
   167   85   86 1    
   168   85   87 1    
   169   85  206 1    
   170   86  207 1    
   171   86  208 1    
   172   86  209 1    
   173   87   88 2    
   174   87   89 am   BACKBONE|DICT|INTERRES
   175   89   90 1    
   176   89  210 1    
   177   90   91 1    
   178   90   92 1    
   179   90  211 1    
   180   91  212 1    
   181   91  213 1    
   182   91  214 1    
   183   92   93 2    
   184   92   94 am   BACKBONE|DICT|INTERRES
   185   94   95 1    
   186   94  215 1    
   187   95   96 1    
   188   95   97 1    
   189   95  216 1    
   190   96  217 1    
   191   96  218 1    
   192   96  219 1    
   193   97   98 2    
   194   97   99 am   BACKBONE|DICT|INTERRES
   195   99  100 1    
   196   99  220 1    
   197  100  101 1    
   198  100  102 1    
   199  100  221 1    
   200  101  222 1    
   201  101  223 1    
   202  101  224 1    
   203  102  103 2    
   204  102  104 am   BACKBONE|DICT|INTERRES
   205  104  105 1    
   206  104  225 1    
   207  105  106 1    
   208  105  107 1    
   209  105  226 1    
   210  106  227 1    
   211  106  228 1    
   212  106  229 1    
   213  107  108 2    
   214  107  109 am   BACKBONE|DICT|INTERRES
   215  109  110 1    
   216  109  230 1    
   217  110  111 1    
   218  110  112 1    
   219  110  231 1    
   220  111  232 1    
   221  111  233 1    
   222  111  234 1    
   223  112  113 2    
   224  112  114 am   BACKBONE|DICT|INTERRES
   225  114  115 1    
   226  114  235 1    
   227  115  116 1    
   228  115  117 1    
   229  115  236 1    
   230  116  237 1    
   231  116  238 1    
   232  116  239 1    
   233  117  118 2    
   234  117  119 am   BACKBONE|DICT|INTERRES
   235  119  120 1    
   236  119  240 1    
   237  120  121 1    
   238  120  124 1    
   239  120  241 1    
   240  121  122 am   BACKBONE|DICT|INTERRES
   241  121  123 2    
   242  122  242 1    
   243  122  243 1    
   244  124  125 1    
   245  124  244 1    
   246  124  245 1    
   247  125  126 1    
   248  126  246 1    
   249  126  247 1    
@<TRIPOS>SUBSTRUCTURE
     1 UNK         1 GROUP             0       ****    0 ROOT    
