@<TRIPOS>MOLECULE
3R540
247   249    1
SMALL
USER_CHARGES


@<TRIPOS>ATOM
      1 CA         -5.5920  -16.6414  -42.7599 C.3       0 UNK        -0.1800 
      2 C          -5.4276  -15.6115  -43.8686 C.2       0 UNK         0.5000 
      3 O          -6.1782  -14.6367  -43.9192 O.2       0 UNK        -0.5000 
      4 N          -4.4586  -15.8354  -44.7651 N.am      1 UNK        -0.5000 
      5 CA         -4.1335  -14.9492  -45.8854 C.3       1 UNK         0.1400 
      6 C6         -3.1885  -15.6487  -46.8935 C.3       23 UNK        -0.0398 
      7 S7         -3.1407  -14.7983  -48.5068 S.3       23 UNK        -0.2404 
      8 C8         -3.4071  -16.1695  -49.6756 C.3       23 UNK        -0.0205 
      9 C9         -2.1297  -16.9473  -49.9618 C.ar      23 UNK        -0.0193 
     10 C10        -1.0477  -16.3060  -50.5722 C.ar      23 UNK        -0.1150 
     11 C11         0.1025  -17.0204  -50.9156 C.ar      23 UNK        -0.0193 
     12 C12         0.1695  -18.3875  -50.6386 C.ar      23 UNK        -0.1150 
     13 C13        -0.8998  -19.0412  -50.0205 C.ar      23 UNK        -0.0193 
     14 C14        -2.0452  -18.3144  -49.6768 C.ar      23 UNK        -0.1150 
     15 C15        -0.8286  -20.5395  -49.7718 C.3       23 UNK        -0.0205 
     16 S16         0.4009  -20.9677  -48.4991 S.3       23 UNK        -0.2404 
     17 C17         0.1006  -22.7616  -48.3240 C.3       23 UNK        -0.0398 
     18 CA         -0.6614  -23.1577  -47.0361 C.3       11 UNK         0.1400 
     19 N           0.0682  -22.7714  -45.8245 N.am      11 UNK        -0.5000 
     20 C          -0.2505  -23.1299  -44.5725 C.2       10 UNK         0.5000 
     21 O          -1.2449  -23.8045  -44.3001 O.2       10 UNK        -0.5000 
     22 CA          0.6436  -22.5976  -43.4335 C.3       10 UNK         0.1400 
     23 CB          0.9607  -23.6750  -42.3773 C.3       10 UNK        -0.1800 
     24 N           1.8518  -21.9047  -43.9033 N.am      10 UNK        -0.5000 
     25 C           2.9447  -22.4372  -44.4697 C.2       9 UNK         0.5000 
     26 O           3.1258  -23.6462  -44.6118 O.2       9 UNK        -0.5000 
     27 CA          4.0039  -21.4597  -45.0063 C.3       9 UNK         0.1400 
     28 CB          3.7765  -21.1952  -46.5042 C.3       9 UNK        -0.1800 
     29 N           4.0167  -20.1758  -44.2978 N.am      9 UNK        -0.5000 
     30 C           5.1284  -19.5694  -43.8606 C.2       8 UNK         0.5000 
     31 O           6.2554  -20.0592  -43.9492 O.2       8 UNK        -0.5000 
     32 CA          4.9763  -18.1703  -43.2347 C.3       8 UNK         0.1400 
     33 CB          5.0864  -17.0819  -44.3131 C.3       8 UNK        -0.1800 
     34 N           3.7361  -17.9779  -42.4830 N.am      8 UNK        -0.5000 
     35 C           3.4880  -18.5305  -41.2867 C.2       7 UNK         0.5000 
     36 O           4.2338  -19.3427  -40.7387 O.2       7 UNK        -0.5000 
     37 CA          2.2004  -18.0877  -40.5744 C.3       7 UNK         0.1400 
     38 CB          2.3972  -16.7169  -39.9070 C.3       7 UNK        -0.1800 
     39 N           1.0838  -18.0083  -41.5124 N.am      7 UNK        -0.5000 
     40 C           0.1744  -18.9753  -41.6875 C.2       6 UNK         0.5000 
     41 O           0.1427  -20.0147  -41.0297 O.2       6 UNK        -0.5000 
     42 CA         -0.8780  -18.7557  -42.7926 C.3       6 UNK         0.1400 
     43 CB         -2.1352  -18.1039  -42.1971 C.3       6 UNK        -0.1800 
     44 N          -0.4006  -17.9347  -43.9077 N.am      6 UNK        -0.5000 
     45 C           0.6194  -18.2436  -44.7219 C.2       5 UNK         0.5000 
     46 O           1.2396  -19.3042  -44.6656 O.2       5 UNK        -0.5000 
     47 CA          1.0674  -17.1579  -45.7177 C.3       5 UNK         0.1400 
     48 CB          0.4215  -17.3764  -47.0908 C.3       5 UNK        -0.1800 
     49 N           0.7823  -15.7955  -45.2635 N.am      5 UNK        -0.5000 
     50 C           1.2683  -15.2219  -44.1526 C.2       4 UNK         0.5000 
     51 O           1.9898  -15.8148  -43.3474 O.2       4 UNK        -0.5000 
     52 CA          0.8229  -13.7734  -43.8699 C.3       4 UNK         0.1400 
     53 CB          1.9205  -12.9363  -43.1819 C.3       4 UNK        -0.1800 
     54 N           0.2675  -13.0973  -45.0504 N.am      4 UNK        -0.5000 
     55 C           0.9196  -12.6773  -46.1484 C.2       3 UNK         0.5000 
     56 O           2.1381  -12.7706  -46.2957 O.2       3 UNK        -0.5000 
     57 CA          0.0735  -12.0904  -47.3021 C.3       3 UNK         0.1400 
     58 CB          0.1908  -12.9770  -48.5546 C.3       3 UNK        -0.1800 
     59 N          -1.3465  -11.9409  -46.9753 N.am      3 UNK        -0.5000 
     60 C          -1.8668  -11.0221  -46.1486 C.2       2 UNK         0.5000 
     61 O          -1.2091  -10.1161  -45.6369 O.2       2 UNK        -0.5000 
     62 CA         -3.3645  -11.1644  -45.8014 C.3       2 UNK         0.1400 
     63 CB         -4.1995  -10.1530  -46.6013 C.3       2 UNK        -0.1800 
     64 N          -3.9026  -12.5108  -46.0303 N.am      2 UNK        -0.5000 
     65 C          -3.5173  -13.6233  -45.3890 C.2       1 UNK         0.5000 
     66 O          -2.6578  -13.6415  -44.5038 O.2       1 UNK        -0.5000 
     67 C          -2.1171  -22.6452  -47.0400 C.2       11 UNK         0.5000 
     68 O          -3.0105  -23.3523  -47.5055 O.2       11 UNK        -0.5000 
     69 N          -2.3219  -21.4502  -46.4664 N.am      12 UNK        -0.5000 
     70 CA         -3.6183  -20.7958  -46.3064 C.3       12 UNK         0.1400 
     71 CB         -3.3944  -19.3664  -45.7987 C.3       12 UNK        -0.1800 
     72 C          -4.5786  -21.5650  -45.3838 C.2       12 UNK         0.5000 
     73 O          -5.7852  -21.5593  -45.6262 O.2       12 UNK        -0.5000 
     74 N          -4.0262  -22.2310  -44.3621 N.am      13 UNK        -0.5000 
     75 CA         -4.7720  -23.1123  -43.4678 C.3       13 UNK         0.1400 
     76 CB         -4.0267  -23.2243  -42.1283 C.3       13 UNK        -0.1800 
     77 C          -4.9826  -24.5009  -44.0962 C.2       13 UNK         0.5000 
     78 O          -6.0527  -25.0866  -43.9285 O.2       13 UNK        -0.5000 
     79 N          -3.9566  -25.0026  -44.7971 N.am      14 UNK        -0.5000 
     80 CA         -3.9323  -26.3376  -45.3884 C.3       14 UNK         0.1400 
     81 CB         -2.4851  -26.7089  -45.7466 C.3       14 UNK        -0.1800 
     82 C          -4.8484  -26.4980  -46.6151 C.2       14 UNK         0.5000 
     83 O          -5.5631  -27.4986  -46.6954 O.2       14 UNK        -0.5000 
     84 N          -4.7910  -25.5497  -47.5615 N.am      15 UNK        -0.5000 
     85 CA         -5.4025  -25.6970  -48.8864 C.3       15 UNK         0.1400 
     86 CB         -4.4588  -26.5099  -49.7968 C.3       15 UNK        -0.1800 
     87 C          -5.8284  -24.3609  -49.5240 C.2       15 UNK         0.5000 
     88 O          -5.9833  -24.3032  -50.7463 O.2       15 UNK        -0.5000 
     89 N          -6.0354  -23.3182  -48.7052 N.am      16 UNK        -0.5000 
     90 CA         -6.4702  -21.9710  -49.0966 C.3       16 UNK         0.1400 
     91 CB         -7.9378  -21.9902  -49.5802 C.3       16 UNK        -0.1800 
     92 C          -5.4918  -21.3182  -50.0954 C.2       16 UNK         0.5000 
     93 O          -4.4054  -20.9140  -49.6893 O.2       16 UNK        -0.5000 
     94 N          -5.8668  -21.2342  -51.3788 N.am      17 UNK        -0.5000 
     95 CA         -4.9965  -20.7458  -52.4517 C.3       17 UNK         0.1400 
     96 CB         -5.8301  -20.5398  -53.7251 C.3       17 UNK        -0.1800 
     97 C          -3.8046  -21.6817  -52.7348 C.2       17 UNK         0.5000 
     98 O          -2.7609  -21.2073  -53.1830 O.2       17 UNK        -0.5000 
     99 N          -3.9895  -22.9895  -52.4858 N.am      18 UNK        -0.5000 
    100 CA        -2.9967  -24.0728  -52.5334 C.3       18 UNK         0.1400 
    101 CB        -2.0250  -23.9225  -51.3480 C.3       18 UNK        -0.1800 
    102 C         -2.2418  -24.2253  -53.8743 C.2       18 UNK         0.5000 
    103 O         -1.1653  -24.8239  -53.8999 O.2       18 UNK        -0.5000 
    104 N         -2.8046  -23.6614  -54.9541 N.am      19 UNK        -0.5000 
    105 CA        -2.2081  -23.4906  -56.2840 C.3       19 UNK         0.1400 
    106 CB        -2.0137  -24.8540  -56.9804 C.3       19 UNK        -0.1800 
    107 C         -0.9227  -22.6275  -56.2792 C.2       19 UNK         0.5000 
    108 O         -0.0835  -22.7797  -57.1687 O.2       19 UNK        -0.5000 
    109 N         -0.7871  -21.7286  -55.2902 N.am      20 UNK        -0.5000 
    110 CA         0.3665  -20.8383  -55.1296 C.3       20 UNK         0.1400 
    111 CB         0.3837  -20.2874  -53.6956 C.3       20 UNK        -0.1800 
    112 C          0.3903  -19.6869  -56.1535 C.2       20 UNK         0.5000 
    113 O          1.4687  -19.1792  -56.4628 O.2       20 UNK        -0.5000 
    114 N         -0.7945  -19.3131  -56.6637 N.am      21 UNK        -0.5000 
    115 CA        -1.0417  -18.2887  -57.6868 C.3       21 UNK         0.1400 
    116 CB        -0.4370  -18.7142  -59.0416 C.3       21 UNK        -0.1800 
    117 C         -0.6201  -16.8656  -57.2571 C.2       21 UNK         0.5000 
    118 O         -0.2038  -16.0629  -58.0948 O.2       21 UNK        -0.5000 
    119 N         -0.7506  -16.5746  -55.9566 N.am      22 UNK        -0.5000 
    120 CA        -0.4299  -15.2727  -55.3452 C.3       22 UNK         0.1400 
    121 C         -1.4591  -14.1414  -55.6442 C.2       22 UNK         0.5000 
    122 N         -2.6299  -14.4291  -56.2003 N.am      22 UNK        -0.7600 
    123 O         -1.1856  -12.9756  -55.3719 O.2       22 UNK        -0.5000 
    124 C124       -0.1975  -15.4038  -53.8191 C.3       23 UNK        -0.0398 
    125 S125        1.1966  -16.5069  -53.4085 S.3       23 UNK        -0.2404 
    126 C126        1.2678  -16.3221  -51.5984 C.3       23 UNK        -0.0205 
    127 H127       -5.2997  -17.6365  -43.0956 H         1 UNK         0.0600 
    128 H128       -4.9804  -16.3700  -41.8995 H         1 UNK         0.0600 
    129 H129       -6.6323  -16.6914  -42.4380 H         1 UNK         0.0600 
    130 H130       -3.8598  -16.6372  -44.6482 H         1 UNK         0.3000 
    131 H131       -5.0739  -14.7268  -46.3952 H         1 UNK         0.0600 
    132 H132       -3.5263  -16.6710  -47.0600 H         1 UNK         0.0800 
    133 H133       -2.1747  -15.7251  -46.4992 H         1 UNK         0.0800 
    134 H134       -3.7718  -15.7535  -50.6157 H         1 UNK         0.0800 
    135 H135       -4.1989  -16.8254  -49.3105 H         1 UNK         0.0800 
    136 H136       -1.1111  -15.2504  -50.7964 H         1 UNK         0.1150 
    137 H137        1.0517  -18.9484  -50.9133 H         1 UNK         0.1150 
    138 H138       -2.8810  -18.8200  -49.2145 H         1 UNK         0.1150 
    139 H139       -1.8053  -20.9234  -49.4775 H         1 UNK         0.0800 
    140 H140       -0.5697  -21.0375  -50.7058 H         1 UNK         0.0800 
    141 H141        1.0718  -23.2580  -48.3328 H         1 UNK         0.0800 
    142 H142       -0.4197  -23.1379  -49.2041 H         1 UNK         0.0800 
    143 H143       -0.7177  -24.2472  -47.0259 H         1 UNK         0.0600 
    144 H144        0.8782  -22.1853  -45.9610 H         1 UNK         0.3000 
    145 H145        0.0446  -21.8363  -42.9372 H         1 UNK         0.0600 
    146 H146        1.5916  -23.2744  -41.5839 H         1 UNK         0.0600 
    147 H147        0.0457  -24.0401  -41.9093 H         1 UNK         0.0600 
    148 H148        1.4666  -24.5380  -42.8101 H         1 UNK         0.0600 
    149 H149        1.7583  -20.8935  -43.9410 H         1 UNK         0.3000 
    150 H150        4.9648  -21.9659  -44.8936 H         1 UNK         0.0600 
    151 H151        3.7157  -22.1274  -47.0673 H         1 UNK         0.0600 
    152 H152        4.5949  -20.6131  -46.9278 H         1 UNK         0.0600 
    153 H153        2.8522  -20.6431  -46.6775 H         1 UNK         0.0600 
    154 H154        3.1280  -19.6972  -44.2066 H         1 UNK         0.3000 
    155 H155        5.8090  -18.0328  -42.5415 H         1 UNK         0.0600 
    156 H156        4.2948  -17.1686  -45.0559 H         1 UNK         0.0600 
    157 H157        6.0384  -17.1511  -44.8410 H         1 UNK         0.0600 
    158 H158        5.0283  -16.0845  -43.8765 H         1 UNK         0.0600 
    159 H159        3.0934  -17.2771  -42.8407 H         1 UNK         0.3000 
    160 H160        1.9846  -18.8134  -39.7873 H         1 UNK         0.0600 
    161 H161        1.5042  -16.4157  -39.3592 H         1 UNK         0.0600 
    162 H162        2.6203  -15.9371  -40.6362 H         1 UNK         0.0600 
    163 H163        3.2219  -16.7453  -39.1938 H         1 UNK         0.0600 
    164 H164        1.0679  -17.1993  -42.1215 H         1 UNK         0.3000 
    165 H165       -1.1507  -19.7348  -43.1900 H         1 UNK         0.0600 
    166 H166       -2.9130  -17.9798  -42.9474 H         1 UNK         0.0600 
    167 H167       -2.5525  -18.7179  -41.3978 H         1 UNK         0.0600 
    168 H168       -1.9185  -17.1209  -41.7766 H         1 UNK         0.0600 
    169 H169       -0.8256  -17.0261  -44.0118 H         1 UNK         0.3000 
    170 H170        2.1475  -17.2449  -45.8371 H         1 UNK         0.0600 
    171 H171        0.7754  -18.3066  -47.5315 H         1 UNK         0.0600 
    172 H172        0.6776  -16.5787  -47.7884 H         1 UNK         0.0600 
    173 H173       -0.6646  -17.4372  -47.0316 H         1 UNK         0.0600 
    174 H174        0.2065  -15.2287  -45.8661 H         1 UNK         0.3000 
    175 H175       -0.0063  -13.8556  -43.1658 H         1 UNK         0.0600 
    176 H176        1.5869  -11.9131  -43.0089 H         1 UNK         0.0600 
    177 H177        2.1813  -13.3603  -42.2114 H         1 UNK         0.0600 
    178 H178        2.8362  -12.8980  -43.7721 H         1 UNK         0.0600 
    179 H179       -0.7410  -12.9920  -45.0315 H         1 UNK         0.3000 
    180 H180        0.4795  -11.1045  -47.5375 H         1 UNK         0.0600 
    181 H181       -0.1620  -13.9917  -48.3660 H         1 UNK         0.0600 
    182 H182        1.2265  -13.0499  -48.8889 H         1 UNK         0.0600 
    183 H183       -0.3873  -12.5703  -49.3846 H         1 UNK         0.0600 
    184 H184       -1.9704  -12.6314  -47.3681 H         1 UNK         0.3000 
    185 H185       -3.4744  -10.9375  -44.7389 H         1 UNK         0.0600 
    186 H186       -4.1452  -10.3455  -47.6736 H         1 UNK         0.0600 
    187 H187       -5.2484  -10.1852  -46.3059 H         1 UNK         0.0600 
    188 H188       -3.8476   -9.1343  -46.4324 H         1 UNK         0.0600 
    189 H189       -4.5973  -12.5890  -46.7596 H         1 UNK         0.3000 
    190 H190       -1.5142  -20.9464  -46.1323 H         1 UNK         0.3000 
    191 H191       -4.0882  -20.7338  -47.2837 H         1 UNK         0.0600 
    192 H192       -2.7348  -18.8142  -46.4675 H         1 UNK         0.0600 
    193 H193       -2.9449  -19.3664  -44.8079 H         1 UNK         0.0600 
    194 H194       -4.3375  -18.8219  -45.7374 H         1 UNK         0.0600 
    195 H195       -3.0213  -22.2300  -44.2638 H         1 UNK         0.3000 
    196 H196       -5.7544  -22.6774  -43.2703 H         1 UNK         0.0600 
    197 H197       -4.5775  -23.8542  -41.4287 H         1 UNK         0.0600 
    198 H198       -3.9078  -22.2466  -41.6609 H         1 UNK         0.0600 
    199 H199       -3.0345  -23.6603  -42.2495 H         1 UNK         0.0600 
    200 H200       -3.0922  -24.4742  -44.8381 H         1 UNK         0.3000 
    201 H201       -4.2742  -27.0428  -44.6276 H         1 UNK         0.0600 
    202 H202       -1.8312  -26.6408  -44.8768 H         1 UNK         0.0600 
    203 H203       -2.0833  -26.0563  -46.5209 H         1 UNK         0.0600 
    204 H204       -2.4265  -27.7321  -46.1195 H         1 UNK         0.0600 
    205 H205       -4.1620  -24.7558  -47.4426 H         1 UNK         0.3000 
    206 H206       -6.3331  -26.2590  -48.7855 H         1 UNK         0.0600 
    207 H207       -4.2712  -27.5021  -49.3865 H         1 UNK         0.0600 
    208 H208       -4.8839  -26.6543  -50.7907 H         1 UNK         0.0600 
    209 H209       -3.4964  -26.0130  -49.9148 H         1 UNK         0.0600 
    210 H210       -5.8544  -23.4474  -47.7200 H         1 UNK         0.3000 
    211 H211       -6.4362  -21.3567  -48.1969 H         1 UNK         0.0600 
    212 H212       -8.0846  -22.6307  -50.4502 H         1 UNK         0.0600 
    213 H213       -8.2763  -20.9875  -49.8446 H         1 UNK         0.0600 
    214 H214       -8.5985  -22.3527  -48.7926 H         1 UNK         0.0600 
    215 H215       -6.7655  -21.6075  -51.6475 H         1 UNK         0.3000 
    216 H216       -4.5889  -19.7789  -52.1483 H         1 UNK         0.0600 
    217 H217       -5.2127  -20.1552  -54.5380 H         1 UNK         0.0600 
    218 H218       -6.6315  -19.8196  -53.5591 H         1 UNK         0.0600 
    219 H219       -6.2813  -21.4721  -54.0672 H         1 UNK         0.0600 
    220 H220       -4.8868  -23.2672  -52.0993 H         1 UNK         0.3000 
    221 H221       -3.5557  -24.9985  -52.3925 H         1 UNK         0.0600 
    222 H222       -1.3443  -23.0860  -51.5025 H         1 UNK         0.0600 
    223 H223       -2.5613  -23.7522  -50.4138 H         1 UNK         0.0600 
    224 H224       -1.4189  -24.8196  -51.2180 H         1 UNK         0.0600 
    225 H225       -3.6891  -23.1952  -54.8120 H         1 UNK         0.3000 
    226 H226       -2.9377  -22.9287  -56.8686 H         1 UNK         0.0600 
    227 H227       -2.9344  -25.4373  -56.9698 H         1 UNK         0.0600 
    228 H228       -1.7273  -24.7231  -58.0245 H         1 UNK         0.0600 
    229 H229       -1.2345  -25.4475  -56.5016 H         1 UNK         0.0600 
    230 H230       -1.5136  -21.6543  -54.5822 H         1 UNK         0.3000 
    231 H231        1.2748  -21.4270  -55.2746 H         1 UNK         0.0600 
    232 H232        0.4050  -21.0950  -52.9641 H         1 UNK         0.0600 
    233 H233       -0.4907  -19.6693  -53.4878 H         1 UNK         0.0600 
    234 H234        1.2670  -19.6710  -53.5247 H         1 UNK         0.0600 
    235 H235       -1.6123  -19.7990  -56.3242 H         1 UNK         0.3000 
    236 H236       -2.1241  -18.2490  -57.8154 H         1 UNK         0.0600 
    237 H237       -0.7480  -18.0388  -59.8393 H         1 UNK         0.0600 
    238 H238        0.6530  -18.7112  -59.0179 H         1 UNK         0.0600 
    239 H239       -0.7632  -19.7160  -59.3214 H         1 UNK         0.0600 
    240 H240       -1.0786  -17.2943  -55.3304 H         1 UNK         0.3000 
    241 H241        0.5095  -14.9324  -55.7857 H         1 UNK         0.0600 
    242 H242       -2.8700  -15.3793  -56.4316 H         1 UNK         0.3800 
    243 H243       -3.2833  -13.6860  -56.3931 H         1 UNK         0.3800 
    244 H244        0.0111  -14.4283  -53.3756 H         1 UNK         0.0800 
    245 H245       -1.1013  -15.7775  -53.3362 H         1 UNK         0.0800 
    246 H246        1.2906  -15.2637  -51.3340 H         1 UNK         0.0800 
    247 H247        2.2066  -16.7451  -51.2381 H         1 UNK         0.0800 
@<TRIPOS>BOND
     1    1    2 1    
     2    1  127 1    
     3    1  128 1    
     4    1  129 1    
     5    2    3 2    
     6    2    4 am   BACKBONE|DICT|INTERRES
     7    4    5 1    
     8    4  130 1    
     9    5    6 1    
    10    5   65 1    
    11    5  131 1    
    12    6    7 1    
    13    6  132 1    
    14    6  133 1    
    15    7    8 1    
    16    8    9 1    
    17    8  134 1    
    18    8  135 1    
    19    9   10 ar   
    20    9   14 ar   
    21   10   11 ar   
    22   10  136 1    
    23   11   12 ar   
    24   11  126 1    
    25   12   13 ar   
    26   12  137 1    
    27   13   14 ar   
    28   13   15 1    
    29   14  138 1    
    30   15   16 1    
    31   15  139 1    
    32   15  140 1    
    33   16   17 1    
    34   17   18 1    
    35   17  141 1    
    36   17  142 1    
    37   18   19 1    
    38   18   67 1    
    39   18  143 1    
    40   19   20 am   BACKBONE|DICT|INTERRES
    41   19  144 1    
    42   20   21 2    
    43   20   22 1    
    44   22   23 1    
    45   22   24 1    
    46   22  145 1    
    47   23  146 1    
    48   23  147 1    
    49   23  148 1    
    50   24   25 am   BACKBONE|DICT|INTERRES
    51   24  149 1    
    52   25   26 2    
    53   25   27 1    
    54   27   28 1    
    55   27   29 1    
    56   27  150 1    
    57   28  151 1    
    58   28  152 1    
    59   28  153 1    
    60   29   30 am   BACKBONE|DICT|INTERRES
    61   29  154 1    
    62   30   31 2    
    63   30   32 1    
    64   32   33 1    
    65   32   34 1    
    66   32  155 1    
    67   33  156 1    
    68   33  157 1    
    69   33  158 1    
    70   34   35 am   BACKBONE|DICT|INTERRES
    71   34  159 1    
    72   35   36 2    
    73   35   37 1    
    74   37   38 1    
    75   37   39 1    
    76   37  160 1    
    77   38  161 1    
    78   38  162 1    
    79   38  163 1    
    80   39   40 am   BACKBONE|DICT|INTERRES
    81   39  164 1    
    82   40   41 2    
    83   40   42 1    
    84   42   43 1    
    85   42   44 1    
    86   42  165 1    
    87   43  166 1    
    88   43  167 1    
    89   43  168 1    
    90   44   45 am   BACKBONE|DICT|INTERRES
    91   44  169 1    
    92   45   46 2    
    93   45   47 1    
    94   47   48 1    
    95   47   49 1    
    96   47  170 1    
    97   48  171 1    
    98   48  172 1    
    99   48  173 1    
   100   49   50 am   BACKBONE|DICT|INTERRES
   101   49  174 1    
   102   50   51 2    
   103   50   52 1    
   104   52   53 1    
   105   52   54 1    
   106   52  175 1    
   107   53  176 1    
   108   53  177 1    
   109   53  178 1    
   110   54   55 am   BACKBONE|DICT|INTERRES
   111   54  179 1    
   112   55   56 2    
   113   55   57 1    
   114   57   58 1    
   115   57   59 1    
   116   57  180 1    
   117   58  181 1    
   118   58  182 1    
   119   58  183 1    
   120   59   60 am   BACKBONE|DICT|INTERRES
   121   59  184 1    
   122   60   61 2    
   123   60   62 1    
   124   62   63 1    
   125   62   64 1    
   126   62  185 1    
   127   63  186 1    
   128   63  187 1    
   129   63  188 1    
   130   64   65 am   BACKBONE|DICT|INTERRES
   131   64  189 1    
   132   65   66 2    
   133   67   68 2    
   134   67   69 am   BACKBONE|DICT|INTERRES
   135   69   70 1    
   136   69  190 1    
   137   70   71 1    
   138   70   72 1    
   139   70  191 1    
   140   71  192 1    
   141   71  193 1    
   142   71  194 1    
   143   72   73 2    
   144   72   74 am   BACKBONE|DICT|INTERRES
   145   74   75 1    
   146   74  195 1    
   147   75   76 1    
   148   75   77 1    
   149   75  196 1    
   150   76  197 1    
   151   76  198 1    
   152   76  199 1    
   153   77   78 2    
   154   77   79 am   BACKBONE|DICT|INTERRES
   155   79   80 1    
   156   79  200 1    
   157   80   81 1    
   158   80   82 1    
   159   80  201 1    
   160   81  202 1    
   161   81  203 1    
   162   81  204 1    
   163   82   83 2    
   164   82   84 am   BACKBONE|DICT|INTERRES
   165   84   85 1    
   166   84  205 1    
   167   85   86 1    
   168   85   87 1    
   169   85  206 1    
   170   86  207 1    
   171   86  208 1    
   172   86  209 1    
   173   87   88 2    
   174   87   89 am   BACKBONE|DICT|INTERRES
   175   89   90 1    
   176   89  210 1    
   177   90   91 1    
   178   90   92 1    
   179   90  211 1    
   180   91  212 1    
   181   91  213 1    
   182   91  214 1    
   183   92   93 2    
   184   92   94 am   BACKBONE|DICT|INTERRES
   185   94   95 1    
   186   94  215 1    
   187   95   96 1    
   188   95   97 1    
   189   95  216 1    
   190   96  217 1    
   191   96  218 1    
   192   96  219 1    
   193   97   98 2    
   194   97   99 am   BACKBONE|DICT|INTERRES
   195   99  100 1    
   196   99  220 1    
   197  100  101 1    
   198  100  102 1    
   199  100  221 1    
   200  101  222 1    
   201  101  223 1    
   202  101  224 1    
   203  102  103 2    
   204  102  104 am   BACKBONE|DICT|INTERRES
   205  104  105 1    
   206  104  225 1    
   207  105  106 1    
   208  105  107 1    
   209  105  226 1    
   210  106  227 1    
   211  106  228 1    
   212  106  229 1    
   213  107  108 2    
   214  107  109 am   BACKBONE|DICT|INTERRES
   215  109  110 1    
   216  109  230 1    
   217  110  111 1    
   218  110  112 1    
   219  110  231 1    
   220  111  232 1    
   221  111  233 1    
   222  111  234 1    
   223  112  113 2    
   224  112  114 am   BACKBONE|DICT|INTERRES
   225  114  115 1    
   226  114  235 1    
   227  115  116 1    
   228  115  117 1    
   229  115  236 1    
   230  116  237 1    
   231  116  238 1    
   232  116  239 1    
   233  117  118 2    
   234  117  119 am   BACKBONE|DICT|INTERRES
   235  119  120 1    
   236  119  240 1    
   237  120  121 1    
   238  120  124 1    
   239  120  241 1    
   240  121  122 am   BACKBONE|DICT|INTERRES
   241  121  123 2    
   242  122  242 1    
   243  122  243 1    
   244  124  125 1    
   245  124  244 1    
   246  124  245 1    
   247  125  126 1    
   248  126  246 1    
   249  126  247 1    
@<TRIPOS>SUBSTRUCTURE
     1 UNK         1 GROUP             0       ****    0 ROOT    
