@<TRIPOS>MOLECULE
3R540
247   249    1
SMALL
USER_CHARGES


@<TRIPOS>ATOM
      1 CA         -3.6172  -16.1904  -46.8632 C.3       0 UNK        -0.1800 
      2 C          -3.1291  -14.9515  -47.5995 C.2       0 UNK         0.5000 
      3 O          -3.7544  -13.8963  -47.5041 O.2       0 UNK        -0.5000 
      4 N          -2.0063  -15.0757  -48.3202 N.am      1 UNK        -0.5000 
      5 CA         -1.3736  -14.0191  -49.1236 C.3       1 UNK         0.1400 
      6 C6         -0.2101  -14.5866  -49.9801 C.3       23 UNK        -0.0398 
      7 S7          1.1646  -15.2738  -48.9867 S.3       23 UNK        -0.2404 
      8 C8          2.3918  -15.6583  -50.2699 C.3       23 UNK        -0.0205 
      9 C9          2.1093  -16.9983  -50.9284 C.ar      23 UNK        -0.0193 
     10 C10         1.6969  -17.0656  -52.2609 C.ar      23 UNK        -0.1150 
     11 C11         1.4779  -18.3034  -52.8709 C.ar      23 UNK        -0.0193 
     12 C12         1.6483  -19.4760  -52.1273 C.ar      23 UNK        -0.1150 
     13 C13         2.0566  -19.4277  -50.7899 C.ar      23 UNK        -0.0193 
     14 C14         2.2965  -18.1784  -50.2041 C.ar      23 UNK        -0.1150 
     15 C15         2.2659  -20.7456  -50.0378 C.3       23 UNK        -0.0205 
     16 S16         2.3474  -20.6235  -48.2150 S.3       23 UNK        -0.2404 
     17 C17         0.6229  -20.1983  -47.8026 C.3       23 UNK        -0.0398 
     18 CA         -0.1017  -21.3461  -47.0606 C.3       11 UNK         0.1400 
     19 N           0.5119  -21.6448  -45.7667 N.am      11 UNK        -0.5000 
     20 C           0.3753  -22.7869  -45.0831 C.2       10 UNK         0.5000 
     21 O          -0.2811  -23.7450  -45.4935 O.2       10 UNK        -0.5000 
     22 CA          1.0471  -22.8511  -43.6933 C.3       10 UNK         0.1400 
     23 CB          1.5591  -24.2627  -43.3406 C.3       10 UNK        -0.1800 
     24 N           2.0889  -21.8353  -43.4920 N.am      10 UNK        -0.5000 
     25 C           3.2770  -21.7299  -44.1082 C.2       9 UNK         0.5000 
     26 O           3.7054  -22.5542  -44.9161 O.2       9 UNK        -0.5000 
     27 CA          4.1280  -20.4793  -43.7945 C.3       9 UNK         0.1400 
     28 CB          4.1830  -19.5525  -45.0194 C.3       9 UNK        -0.1800 
     29 N           3.6412  -19.7083  -42.6476 N.am      9 UNK        -0.5000 
     30 C           3.7976  -20.0592  -41.3636 C.2       8 UNK         0.5000 
     31 O           4.4384  -21.0447  -40.9973 O.2       8 UNK        -0.5000 
     32 CA          3.0786  -19.1855  -40.3160 C.3       8 UNK         0.1400 
     33 CB          3.9541  -17.9904  -39.9108 C.3       8 UNK        -0.1800 
     34 N           1.7723  -18.7024  -40.7735 N.am      8 UNK        -0.5000 
     35 C           0.7264  -19.4903  -41.0635 C.2       7 UNK         0.5000 
     36 O           0.7355  -20.7137  -40.9328 O.2       7 UNK        -0.5000 
     37 CA         -0.5128  -18.8113  -41.6700 C.3       7 UNK         0.1400 
     38 CB         -1.3921  -18.1726  -40.5861 C.3       7 UNK        -0.1800 
     39 N          -0.1536  -17.8115  -42.6749 N.am      7 UNK        -0.5000 
     40 C           0.4018  -18.0963  -43.8602 C.2       6 UNK         0.5000 
     41 O           0.5680  -19.2417  -44.2760 O.2       6 UNK        -0.5000 
     42 CA          0.8626  -16.9113  -44.7222 C.3       6 UNK         0.1400 
     43 CB         -0.2688  -16.4388  -45.6407 C.3       6 UNK        -0.1800 
     44 N           1.3436  -15.7963  -43.9073 N.am      6 UNK        -0.5000 
     45 C           2.5119  -15.8043  -43.2498 C.2       5 UNK         0.5000 
     46 O           3.3241  -16.7266  -43.3175 O.2       5 UNK        -0.5000 
     47 CA          2.7919  -14.6125  -42.3167 C.3       5 UNK         0.1400 
     48 CB          3.4849  -13.4693  -43.0700 C.3       5 UNK        -0.1800 
     49 N           1.5729  -14.1171  -41.6740 N.am      5 UNK        -0.5000 
     50 C           0.9312  -14.7831  -40.7030 C.2       4 UNK         0.5000 
     51 O           1.3253  -15.8555  -40.2451 O.2       4 UNK        -0.5000 
     52 CA         -0.3895  -14.1852  -40.1820 C.3       4 UNK         0.1400 
     53 CB         -0.1211  -13.2402  -39.0018 C.3       4 UNK        -0.1800 
     54 N          -1.1661  -13.4751  -41.1995 N.am      4 UNK        -0.5000 
     55 C          -1.6449  -14.0131  -42.3295 C.2       3 UNK         0.5000 
     56 O          -1.4606  -15.1867  -42.6531 O.2       3 UNK        -0.5000 
     57 CA         -2.4336  -13.0857  -43.2788 C.3       3 UNK         0.1400 
     58 CB         -2.8759  -11.7563  -42.6278 C.3       3 UNK        -0.1800 
     59 N          -1.7134  -12.8116  -44.5277 N.am      3 UNK        -0.5000 
     60 C          -0.4626  -12.3412  -44.6604 C.2       2 UNK         0.5000 
     61 O           0.2989  -12.1413  -43.7122 O.2       2 UNK        -0.5000 
     62 CA          0.0107  -12.0630  -46.0989 C.3       2 UNK         0.1400 
     63 CB          1.5438  -12.0671  -46.2478 C.3       2 UNK        -0.1800 
     64 N          -0.5642  -13.0329  -47.0262 N.am      2 UNK        -0.5000 
     65 C          -0.9101  -12.7952  -48.2969 C.2       1 UNK         0.5000 
     66 O          -0.8633  -11.6837  -48.8259 O.2       1 UNK        -0.5000 
     67 C          -1.5908  -21.0023  -46.8894 C.2       11 UNK         0.5000 
     68 O          -2.3959  -21.3832  -47.7381 O.2       11 UNK        -0.5000 
     69 N          -1.9401  -20.3131  -45.7895 N.am      12 UNK        -0.5000 
     70 CA         -3.2948  -19.8260  -45.4959 C.3       12 UNK         0.1400 
     71 CB         -3.2794  -18.9747  -44.2193 C.3       12 UNK        -0.1800 
     72 C          -4.3656  -20.9288  -45.3936 C.2       12 UNK         0.5000 
     73 O          -5.5339  -20.6630  -45.6740 O.2       12 UNK        -0.5000 
     74 N          -3.9442  -22.1499  -45.0388 N.am      13 UNK        -0.5000 
     75 CA         -4.7865  -23.3455  -44.9937 C.3       13 UNK         0.1400 
     76 CB         -4.0081  -24.4709  -44.2948 C.3       13 UNK        -0.1800 
     77 C          -5.2696  -23.8088  -46.3837 C.2       13 UNK         0.5000 
     78 O          -6.3324  -24.4241  -46.4748 O.2       13 UNK        -0.5000 
     79 N          -4.4901  -23.5077  -47.4315 N.am      14 UNK        -0.5000 
     80 CA         -4.7742  -23.8688  -48.8207 C.3       14 UNK         0.1400 
     81 CB         -3.5475  -24.5956  -49.3961 C.3       14 UNK        -0.1800 
     82 C          -5.1340  -22.6476  -49.6855 C.2       14 UNK         0.5000 
     83 O          -5.5571  -22.8290  -50.8290 O.2       14 UNK        -0.5000 
     84 N          -4.9452  -21.4251  -49.1677 N.am      15 UNK        -0.5000 
     85 CA         -5.1500  -20.1531  -49.8734 C.3       15 UNK         0.1400 
     86 CB         -4.6272  -18.9980  -49.0086 C.3       15 UNK        -0.1800 
     87 C          -6.6028  -19.8896  -50.3066 C.2       15 UNK         0.5000 
     88 O          -6.8242  -19.1291  -51.2488 O.2       15 UNK        -0.5000 
     89 N          -7.5601  -20.5500  -49.6424 N.am      16 UNK        -0.5000 
     90 CA         -8.9716  -20.5790  -50.0262 C.3       16 UNK         0.1400 
     91 CB         -9.7808  -21.2188  -48.8877 C.3       16 UNK        -0.1800 
     92 C          -9.2225  -21.3264  -51.3534 C.2       16 UNK         0.5000 
     93 O         -10.2297  -21.0588  -52.0099 O.2       16 UNK        -0.5000 
     94 N          -8.3128  -22.2403  -51.7201 N.am      17 UNK        -0.5000 
     95 CA         -8.3459  -23.0031  -52.9621 C.3       17 UNK         0.1400 
     96 CB         -8.0428  -24.4824  -52.6646 C.3       17 UNK        -0.1800 
     97 C          -7.3544  -22.4196  -53.9810 C.2       17 UNK         0.5000 
     98 O          -7.7825  -21.9817  -55.0499 O.2       17 UNK        -0.5000 
     99 N          -6.0543  -22.4373  -53.6491 N.am      18 UNK        -0.5000 
    100 CA        -4.9699  -22.1109  -54.5850 C.3       18 UNK         0.1400 
    101 CB        -4.8334  -23.2512  -55.6195 C.3       18 UNK        -0.1800 
    102 C         -3.6031  -21.8527  -53.9209 C.2       18 UNK         0.5000 
    103 O         -2.6396  -21.5753  -54.6372 O.2       18 UNK        -0.5000 
    104 N         -3.4814  -22.0384  -52.5967 N.am      19 UNK        -0.5000 
    105 CA        -2.2258  -21.9838  -51.8209 C.3       19 UNK         0.1400 
    106 CB        -1.6638  -20.5496  -51.7853 C.3       19 UNK        -0.1800 
    107 C         -1.1598  -23.0064  -52.2862 C.2       19 UNK         0.5000 
    108 O          0.0170  -22.8594  -51.9592 O.2       19 UNK        -0.5000 
    109 N         -1.5985  -24.0035  -53.0701 N.am      20 UNK        -0.5000 
    110 CA        -0.8198  -25.0130  -53.7893 C.3       20 UNK         0.1400 
    111 CB        -0.1010  -25.9495  -52.7953 C.3       20 UNK        -0.1800 
    112 C          0.1388  -24.4468  -54.8648 C.2       20 UNK         0.5000 
    113 O          1.0113  -25.1902  -55.3189 O.2       20 UNK        -0.5000 
    114 N         -0.0153  -23.1738  -55.2714 N.am      21 UNK        -0.5000 
    115 CA         0.9331  -22.5095  -56.1758 C.3       21 UNK         0.1400 
    116 CB         2.2311  -22.1734  -55.4102 C.3       21 UNK        -0.1800 
    117 C          0.4023  -21.2651  -56.9164 C.2       21 UNK         0.5000 
    118 O          1.1031  -20.7848  -57.8094 O.2       21 UNK        -0.5000 
    119 N         -0.7781  -20.7373  -56.5692 N.am      22 UNK        -0.5000 
    120 CA        -1.3042  -19.4751  -57.1244 C.3       22 UNK         0.1400 
    121 C         -2.8539  -19.4361  -57.2434 C.2       22 UNK         0.5000 
    122 N         -3.5087  -20.5679  -57.4650 N.am      22 UNK        -0.7600 
    123 O         -3.4742  -18.3780  -57.1791 O.2       22 UNK        -0.5000 
    124 C124       -0.6599  -18.2079  -56.4891 C.3       23 UNK        -0.0398 
    125 S125       -0.6565  -18.1662  -54.6600 S.3       23 UNK        -0.2404 
    126 C126        1.1248  -18.3690  -54.3490 C.3       23 UNK        -0.0205 
    127 H127       -2.9931  -17.0556  -47.0830 H         1 UNK         0.0600 
    128 H128       -3.6017  -16.0207  -45.7866 H         1 UNK         0.0600 
    129 H129       -4.6399  -16.4251  -47.1580 H         1 UNK         0.0600 
    130 H130       -1.5389  -15.9699  -48.3571 H         1 UNK         0.3000 
    131 H131       -2.1372  -13.6527  -49.8129 H         1 UNK         0.0600 
    132 H132        0.1842  -13.8110  -50.6392 H         1 UNK         0.0800 
    133 H133       -0.5845  -15.3721  -50.6383 H         1 UNK         0.0800 
    134 H134        3.3798  -15.6931  -49.8089 H         1 UNK         0.0800 
    135 H135        2.4273  -14.8535  -51.0057 H         1 UNK         0.0800 
    136 H136        1.5682  -16.1570  -52.8323 H         1 UNK         0.1150 
    137 H137        1.4747  -20.4351  -52.5938 H         1 UNK         0.1150 
    138 H138        2.6337  -18.1065  -49.1806 H         1 UNK         0.1150 
    139 H139        1.4720  -21.4462  -50.2972 H         1 UNK         0.0800 
    140 H140        3.1961  -21.1924  -50.3904 H         1 UNK         0.0800 
    141 H141        0.0917  -19.9372  -48.7200 H         1 UNK         0.0800 
    142 H142        0.6369  -19.2924  -47.1944 H         1 UNK         0.0800 
    143 H143       -0.0461  -22.2411  -47.6843 H         1 UNK         0.0600 
    144 H144        0.9960  -20.8776  -45.3134 H         1 UNK         0.3000 
    145 H145        0.2604  -22.6062  -42.9787 H         1 UNK         0.0600 
    146 H146        2.0273  -24.2773  -42.3563 H         1 UNK         0.0600 
    147 H147        0.7390  -24.9812  -43.3189 H         1 UNK         0.0600 
    148 H148        2.2878  -24.6248  -44.0660 H         1 UNK         0.0600 
    149 H149        1.8398  -21.1021  -42.8405 H         1 UNK         0.3000 
    150 H150        5.1429  -20.8193  -43.5789 H         1 UNK         0.0600 
    151 H151        4.6006  -20.0696  -45.8842 H         1 UNK         0.0600 
    152 H152        4.8094  -18.6808  -44.8292 H         1 UNK         0.0600 
    153 H153        3.1910  -19.1983  -45.2999 H         1 UNK         0.0600 
    154 H154        3.1620  -18.8405  -42.8570 H         1 UNK         0.3000 
    155 H155        2.9130  -19.8013  -39.4296 H         1 UNK         0.0600 
    156 H156        4.1424  -17.3248  -40.7533 H         1 UNK         0.0600 
    157 H157        4.9212  -18.3247  -39.5336 H         1 UNK         0.0600 
    158 H158        3.4816  -17.4052  -39.1216 H         1 UNK         0.0600 
    159 H159        1.6603  -17.6956  -40.8462 H         1 UNK         0.3000 
    160 H160       -1.0961  -19.5905  -42.1618 H         1 UNK         0.0600 
    161 H161       -2.2707  -17.6959  -41.0215 H         1 UNK         0.0600 
    162 H162       -0.8494  -17.4198  -40.0159 H         1 UNK         0.0600 
    163 H163       -1.7446  -18.9250  -39.8798 H         1 UNK         0.0600 
    164 H164       -0.3508  -16.8413  -42.4533 H         1 UNK         0.3000 
    165 H165        1.6832  -17.2576  -45.3539 H         1 UNK         0.0600 
    166 H166       -0.6104  -17.2493  -46.2852 H         1 UNK         0.0600 
    167 H167       -1.1297  -16.0784  -45.0788 H         1 UNK         0.0600 
    168 H168        0.0763  -15.6336  -46.2846 H         1 UNK         0.0600 
    169 H169        0.6987  -15.0378  -43.7382 H         1 UNK         0.3000 
    170 H170        3.4752  -14.9584  -41.5380 H         1 UNK         0.0600 
    171 H171        4.4014  -13.8157  -43.5493 H         1 UNK         0.0600 
    172 H172        2.8456  -13.0528  -43.8460 H         1 UNK         0.0600 
    173 H173        3.7573  -12.6601  -42.3924 H         1 UNK         0.0600 
    174 H174        1.1665  -13.2661  -42.0467 H         1 UNK         0.3000 
    175 H175       -1.0036  -15.0122  -39.8212 H         1 UNK         0.0600 
    176 H176       -1.0524  -12.8843  -38.5608 H         1 UNK         0.0600 
    177 H177        0.4366  -13.7480  -38.2136 H         1 UNK         0.0600 
    178 H178        0.4609  -12.3699  -39.3077 H         1 UNK         0.0600 
    179 H179       -1.3342  -12.4938  -41.0326 H         1 UNK         0.3000 
    180 H180       -3.3354  -13.6347  -43.5539 H         1 UNK         0.0600 
    181 H181       -2.0289  -11.1169  -42.3764 H         1 UNK         0.0600 
    182 H182       -3.4472  -11.9328  -41.7153 H         1 UNK         0.0600 
    183 H183       -3.5209  -11.1923  -43.3018 H         1 UNK         0.0600 
    184 H184       -2.2507  -12.9468  -45.3733 H         1 UNK         0.3000 
    185 H185       -0.3552  -11.0641  -46.3445 H         1 UNK         0.0600 
    186 H186        1.9601  -13.0541  -46.0439 H         1 UNK         0.0600 
    187 H187        1.8402  -11.7866  -47.2586 H         1 UNK         0.0600 
    188 H188        2.0129  -11.3560  -45.5669 H         1 UNK         0.0600 
    189 H189       -0.6399  -13.9807  -46.6883 H         1 UNK         0.3000 
    190 H190       -1.2087  -20.0562  -45.1371 H         1 UNK         0.3000 
    191 H191       -3.5864  -19.1786  -46.3212 H         1 UNK         0.0600 
    192 H192       -2.5690  -18.1524  -44.2942 H         1 UNK         0.0600 
    193 H193       -3.0267  -19.5721  -43.3444 H         1 UNK         0.0600 
    194 H194       -4.2596  -18.5325  -44.0363 H         1 UNK         0.0600 
    195 H195       -2.9634  -22.2789  -44.8387 H         1 UNK         0.3000 
    196 H196       -5.6711  -23.1162  -44.3958 H         1 UNK         0.0600 
    197 H197       -4.6111  -25.3770  -44.2220 H         1 UNK         0.0600 
    198 H198       -3.7278  -24.1863  -43.2804 H         1 UNK         0.0600 
    199 H199       -3.0958  -24.7255  -44.8364 H         1 UNK         0.0600 
    200 H200       -3.6416  -22.9753  -47.2751 H         1 UNK         0.3000 
    201 H201       -5.6252  -24.5501  -48.8785 H         1 UNK         0.0600 
    202 H202       -3.3868  -25.5458  -48.8866 H         1 UNK         0.0600 
    203 H203       -2.6375  -24.0059  -49.2828 H         1 UNK         0.0600 
    204 H204       -3.6732  -24.8169  -50.4570 H         1 UNK         0.0600 
    205 H205       -4.5225  -21.3612  -48.2520 H         1 UNK         0.3000 
    206 H206       -4.5576  -20.1836  -50.7872 H         1 UNK         0.0600 
    207 H207       -3.5675  -19.1206  -48.7859 H         1 UNK         0.0600 
    208 H208       -4.7377  -18.0422  -49.5224 H         1 UNK         0.0600 
    209 H209       -5.1724  -18.9281  -48.0670 H         1 UNK         0.0600 
    210 H210       -7.2856  -21.1348  -48.8666 H         1 UNK         0.3000 
    211 H211       -9.3125  -19.5497  -50.1557 H         1 UNK         0.0600 
    212 H212       -9.4713  -22.2484  -48.7032 H         1 UNK         0.0600 
    213 H213      -10.8454  -21.2334  -49.1254 H         1 UNK         0.0600 
    214 H214       -9.6644  -20.6608  -47.9585 H         1 UNK         0.0600 
    215 H215       -7.4872  -22.3647  -51.1465 H         1 UNK         0.3000 
    216 H216       -9.3419  -22.9590  -53.4077 H         1 UNK         0.0600 
    217 H217       -8.0329  -25.0701  -53.5834 H         1 UNK         0.0600 
    218 H218       -8.8039  -24.9122  -52.0133 H         1 UNK         0.0600 
    219 H219       -7.0768  -24.6182  -52.1779 H         1 UNK         0.0600 
    220 H220       -5.7978  -22.7755  -52.7281 H         1 UNK         0.3000 
    221 H221       -5.2274  -21.1875  -55.1073 H         1 UNK         0.0600 
    222 H222       -4.6822  -24.2144  -55.1312 H         1 UNK         0.0600 
    223 H223       -5.7209  -23.3324  -56.2466 H         1 UNK         0.0600 
    224 H224       -3.9896  -23.0944  -56.2914 H         1 UNK         0.0600 
    225 H225       -4.3032  -22.2910  -52.0578 H         1 UNK         0.3000 
    226 H226       -2.4779  -22.2503  -50.7963 H         1 UNK         0.0600 
    227 H227       -2.4285  -19.8152  -51.5389 H         1 UNK         0.0600 
    228 H228       -1.2301  -20.2694  -52.7440 H         1 UNK         0.0600 
    229 H229       -0.8794  -20.4596  -51.0340 H         1 UNK         0.0600 
    230 H230       -2.5872  -24.0098  -53.2718 H         1 UNK         0.3000 
    231 H231       -1.5484  -25.6147  -54.3343 H         1 UNK         0.0600 
    232 H232       -0.7939  -26.3415  -52.0508 H         1 UNK         0.0600 
    233 H233        0.7046  -25.4380  -52.2678 H         1 UNK         0.0600 
    234 H234        0.3381  -26.8057  -53.3085 H         1 UNK         0.0600 
    235 H235       -0.7684  -22.6173  -54.8859 H         1 UNK         0.3000 
    236 H236        1.1876  -23.2123  -56.9721 H         1 UNK         0.0600 
    237 H237        2.0228  -21.6008  -54.5080 H         1 UNK         0.0600 
    238 H238        2.7618  -23.0768  -55.1103 H         1 UNK         0.0600 
    239 H239        2.9221  -21.5902  -56.0204 H         1 UNK         0.0600 
    240 H240       -1.3550  -21.1416  -55.8350 H         1 UNK         0.3000 
    241 H241       -1.0143  -19.4465  -58.1765 H         1 UNK         0.0600 
    242 H242       -4.5092  -20.5457  -57.5763 H         1 UNK         0.3800 
    243 H243       -3.0101  -21.4390  -57.5449 H         1 UNK         0.3800 
    244 H244        0.3680  -18.1287  -56.8445 H         1 UNK         0.0800 
    245 H245       -1.1442  -17.2999  -56.8511 H         1 UNK         0.0800 
    246 H246        1.6731  -17.5910  -54.8825 H         1 UNK         0.0800 
    247 H247        1.4562  -19.3166  -54.7724 H         1 UNK         0.0800 
@<TRIPOS>BOND
     1    1    2 1    
     2    1  127 1    
     3    1  128 1    
     4    1  129 1    
     5    2    3 2    
     6    2    4 am   BACKBONE|DICT|INTERRES
     7    4    5 1    
     8    4  130 1    
     9    5    6 1    
    10    5   65 1    
    11    5  131 1    
    12    6    7 1    
    13    6  132 1    
    14    6  133 1    
    15    7    8 1    
    16    8    9 1    
    17    8  134 1    
    18    8  135 1    
    19    9   10 ar   
    20    9   14 ar   
    21   10   11 ar   
    22   10  136 1    
    23   11   12 ar   
    24   11  126 1    
    25   12   13 ar   
    26   12  137 1    
    27   13   14 ar   
    28   13   15 1    
    29   14  138 1    
    30   15   16 1    
    31   15  139 1    
    32   15  140 1    
    33   16   17 1    
    34   17   18 1    
    35   17  141 1    
    36   17  142 1    
    37   18   19 1    
    38   18   67 1    
    39   18  143 1    
    40   19   20 am   BACKBONE|DICT|INTERRES
    41   19  144 1    
    42   20   21 2    
    43   20   22 1    
    44   22   23 1    
    45   22   24 1    
    46   22  145 1    
    47   23  146 1    
    48   23  147 1    
    49   23  148 1    
    50   24   25 am   BACKBONE|DICT|INTERRES
    51   24  149 1    
    52   25   26 2    
    53   25   27 1    
    54   27   28 1    
    55   27   29 1    
    56   27  150 1    
    57   28  151 1    
    58   28  152 1    
    59   28  153 1    
    60   29   30 am   BACKBONE|DICT|INTERRES
    61   29  154 1    
    62   30   31 2    
    63   30   32 1    
    64   32   33 1    
    65   32   34 1    
    66   32  155 1    
    67   33  156 1    
    68   33  157 1    
    69   33  158 1    
    70   34   35 am   BACKBONE|DICT|INTERRES
    71   34  159 1    
    72   35   36 2    
    73   35   37 1    
    74   37   38 1    
    75   37   39 1    
    76   37  160 1    
    77   38  161 1    
    78   38  162 1    
    79   38  163 1    
    80   39   40 am   BACKBONE|DICT|INTERRES
    81   39  164 1    
    82   40   41 2    
    83   40   42 1    
    84   42   43 1    
    85   42   44 1    
    86   42  165 1    
    87   43  166 1    
    88   43  167 1    
    89   43  168 1    
    90   44   45 am   BACKBONE|DICT|INTERRES
    91   44  169 1    
    92   45   46 2    
    93   45   47 1    
    94   47   48 1    
    95   47   49 1    
    96   47  170 1    
    97   48  171 1    
    98   48  172 1    
    99   48  173 1    
   100   49   50 am   BACKBONE|DICT|INTERRES
   101   49  174 1    
   102   50   51 2    
   103   50   52 1    
   104   52   53 1    
   105   52   54 1    
   106   52  175 1    
   107   53  176 1    
   108   53  177 1    
   109   53  178 1    
   110   54   55 am   BACKBONE|DICT|INTERRES
   111   54  179 1    
   112   55   56 2    
   113   55   57 1    
   114   57   58 1    
   115   57   59 1    
   116   57  180 1    
   117   58  181 1    
   118   58  182 1    
   119   58  183 1    
   120   59   60 am   BACKBONE|DICT|INTERRES
   121   59  184 1    
   122   60   61 2    
   123   60   62 1    
   124   62   63 1    
   125   62   64 1    
   126   62  185 1    
   127   63  186 1    
   128   63  187 1    
   129   63  188 1    
   130   64   65 am   BACKBONE|DICT|INTERRES
   131   64  189 1    
   132   65   66 2    
   133   67   68 2    
   134   67   69 am   BACKBONE|DICT|INTERRES
   135   69   70 1    
   136   69  190 1    
   137   70   71 1    
   138   70   72 1    
   139   70  191 1    
   140   71  192 1    
   141   71  193 1    
   142   71  194 1    
   143   72   73 2    
   144   72   74 am   BACKBONE|DICT|INTERRES
   145   74   75 1    
   146   74  195 1    
   147   75   76 1    
   148   75   77 1    
   149   75  196 1    
   150   76  197 1    
   151   76  198 1    
   152   76  199 1    
   153   77   78 2    
   154   77   79 am   BACKBONE|DICT|INTERRES
   155   79   80 1    
   156   79  200 1    
   157   80   81 1    
   158   80   82 1    
   159   80  201 1    
   160   81  202 1    
   161   81  203 1    
   162   81  204 1    
   163   82   83 2    
   164   82   84 am   BACKBONE|DICT|INTERRES
   165   84   85 1    
   166   84  205 1    
   167   85   86 1    
   168   85   87 1    
   169   85  206 1    
   170   86  207 1    
   171   86  208 1    
   172   86  209 1    
   173   87   88 2    
   174   87   89 am   BACKBONE|DICT|INTERRES
   175   89   90 1    
   176   89  210 1    
   177   90   91 1    
   178   90   92 1    
   179   90  211 1    
   180   91  212 1    
   181   91  213 1    
   182   91  214 1    
   183   92   93 2    
   184   92   94 am   BACKBONE|DICT|INTERRES
   185   94   95 1    
   186   94  215 1    
   187   95   96 1    
   188   95   97 1    
   189   95  216 1    
   190   96  217 1    
   191   96  218 1    
   192   96  219 1    
   193   97   98 2    
   194   97   99 am   BACKBONE|DICT|INTERRES
   195   99  100 1    
   196   99  220 1    
   197  100  101 1    
   198  100  102 1    
   199  100  221 1    
   200  101  222 1    
   201  101  223 1    
   202  101  224 1    
   203  102  103 2    
   204  102  104 am   BACKBONE|DICT|INTERRES
   205  104  105 1    
   206  104  225 1    
   207  105  106 1    
   208  105  107 1    
   209  105  226 1    
   210  106  227 1    
   211  106  228 1    
   212  106  229 1    
   213  107  108 2    
   214  107  109 am   BACKBONE|DICT|INTERRES
   215  109  110 1    
   216  109  230 1    
   217  110  111 1    
   218  110  112 1    
   219  110  231 1    
   220  111  232 1    
   221  111  233 1    
   222  111  234 1    
   223  112  113 2    
   224  112  114 am   BACKBONE|DICT|INTERRES
   225  114  115 1    
   226  114  235 1    
   227  115  116 1    
   228  115  117 1    
   229  115  236 1    
   230  116  237 1    
   231  116  238 1    
   232  116  239 1    
   233  117  118 2    
   234  117  119 am   BACKBONE|DICT|INTERRES
   235  119  120 1    
   236  119  240 1    
   237  120  121 1    
   238  120  124 1    
   239  120  241 1    
   240  121  122 am   BACKBONE|DICT|INTERRES
   241  121  123 2    
   242  122  242 1    
   243  122  243 1    
   244  124  125 1    
   245  124  244 1    
   246  124  245 1    
   247  125  126 1    
   248  126  246 1    
   249  126  247 1    
@<TRIPOS>SUBSTRUCTURE
     1 UNK         1 GROUP             0       ****    0 ROOT    
