@<TRIPOS>MOLECULE
3R540
247   249    1
SMALL
USER_CHARGES


@<TRIPOS>ATOM
      1 CA         -0.1527  -14.9945  -52.8070 C.3       0 UNK        -0.1800 
      2 C           0.0088  -13.7193  -51.9968 C.2       0 UNK         0.5000 
      3 O          -0.3983  -12.6489  -52.4498 O.2       0 UNK        -0.5000 
      4 N           0.6096  -13.8325  -50.8077 N.am      1 UNK        -0.5000 
      5 CA          0.7713  -12.7481  -49.8371 C.3       1 UNK         0.1400 
      6 C6          2.0963  -12.9021  -49.0449 C.3       23 UNK        -0.0398 
      7 S7          2.1843  -14.3930  -47.9901 S.3       23 UNK        -0.2404 
      8 C8          3.7136  -15.1938  -48.5593 C.3       23 UNK        -0.0205 
      9 C9          3.4278  -16.2925  -49.5692 C.ar      23 UNK        -0.0193 
     10 C10         3.4117  -16.0225  -50.9416 C.ar      23 UNK        -0.1150 
     11 C11         3.1882  -17.0446  -51.8724 C.ar      23 UNK        -0.0193 
     12 C12         2.9701  -18.3468  -51.4003 C.ar      23 UNK        -0.1150 
     13 C13         2.9784  -18.6275  -50.0325 C.ar      23 UNK        -0.0193 
     14 C14         3.2077  -17.5965  -49.1217 C.ar      23 UNK        -0.1150 
     15 C15         2.7638  -20.0513  -49.5489 C.3       23 UNK        -0.0205 
     16 S16         1.0568  -20.3074  -48.9820 S.3       23 UNK        -0.2404 
     17 C17         0.8760  -22.1023  -49.2602 C.3       23 UNK        -0.0398 
     18 CA          0.1381  -22.8721  -48.1419 C.3       11 UNK         0.1400 
     19 N           0.7662  -22.7321  -46.8256 N.am      11 UNK        -0.5000 
     20 C           0.5484  -23.5748  -45.8085 C.2       10 UNK         0.5000 
     21 O          -0.2523  -24.5063  -45.8807 O.2       10 UNK        -0.5000 
     22 CA          1.2836  -23.3491  -44.4757 C.3       10 UNK         0.1400 
     23 CB          2.1052  -24.5859  -44.0617 C.3       10 UNK        -0.1800 
     24 N           2.0785  -22.1217  -44.3927 N.am      10 UNK        -0.5000 
     25 C           3.2488  -21.8219  -44.9736 C.2       9 UNK         0.5000 
     26 O           3.8274  -22.5616  -45.7692 O.2       9 UNK        -0.5000 
     27 CA          3.8796  -20.4565  -44.6182 C.3       9 UNK         0.1400 
     28 CB          3.9582  -19.5631  -45.8646 C.3       9 UNK        -0.1800 
     29 N           3.1570  -19.7321  -43.5686 N.am      9 UNK        -0.5000 
     30 C           3.1722  -20.0283  -42.2615 C.2       8 UNK         0.5000 
     31 O           3.8857  -20.9007  -41.7663 O.2       8 UNK        -0.5000 
     32 CA          2.1733  -19.2616  -41.3713 C.3       8 UNK         0.1400 
     33 CB          2.7763  -17.9366  -40.8820 C.3       8 UNK        -0.1800 
     34 N           0.8962  -19.0067  -42.0473 N.am      8 UNK        -0.5000 
     35 C           0.0324  -19.9632  -42.4204 C.2       7 UNK         0.5000 
     36 O           0.1949  -21.1569  -42.1740 O.2       7 UNK        -0.5000 
     37 CA         -1.1852  -19.5336  -43.2551 C.3       7 UNK         0.1400 
     38 CB         -2.3230  -19.0363  -42.3532 C.3       7 UNK        -0.1800 
     39 N          -0.8355  -18.5106  -44.2401 N.am      7 UNK        -0.5000 
     40 C          -0.1299  -18.7470  -45.3554 C.2       6 UNK         0.5000 
     41 O           0.1886  -19.8784  -45.7228 O.2       6 UNK        -0.5000 
     42 CA          0.3022  -17.5259  -46.1916 C.3       6 UNK         0.1400 
     43 CB         -0.7303  -17.2014  -47.2770 C.3       6 UNK        -0.1800 
     44 N           0.5341  -16.3336  -45.3786 N.am      6 UNK        -0.5000 
     45 C           1.5367  -16.1982  -44.5025 C.2       5 UNK         0.5000 
     46 O           2.3909  -17.0613  -44.3089 O.2       5 UNK        -0.5000 
     47 CA          1.5500  -14.9150  -43.6546 C.3       5 UNK         0.1400 
     48 CB          2.1828  -13.7403  -44.4143 C.3       5 UNK        -0.1800 
     49 N           0.2090  -14.5434  -43.2061 N.am      5 UNK        -0.5000 
     50 C          -0.4878  -15.2107  -42.2770 C.2       4 UNK         0.5000 
     51 O          -0.0611  -16.2024  -41.6857 O.2       4 UNK        -0.5000 
     52 CA         -1.9127  -14.7039  -41.9872 C.3       4 UNK         0.1400 
     53 CB         -1.8793  -13.5235  -41.0050 C.3       4 UNK        -0.1800 
     54 N          -2.6279  -14.3060  -43.2012 N.am      4 UNK        -0.5000 
     55 C          -3.0182  -15.1608  -44.1567 C.2       3 UNK         0.5000 
     56 O          -2.8328  -16.3748  -44.1037 O.2       3 UNK        -0.5000 
     57 CA         -3.6878  -14.5559  -45.4038 C.3       3 UNK         0.1400 
     58 CB         -5.1915  -14.3537  -45.1648 C.3       3 UNK        -0.1800 
     59 N          -3.0919  -13.2955  -45.8593 N.am      3 UNK        -0.5000 
     60 C          -1.8056  -13.1378  -46.1978 C.2       2 UNK         0.5000 
     61 O          -0.9445  -14.0040  -46.0368 O.2       2 UNK        -0.5000 
     62 CA         -1.4059  -11.7738  -46.7906 C.3       2 UNK         0.1400 
     63 CB         -0.8978  -10.8427  -45.6792 C.3       2 UNK        -0.1800 
     64 N          -0.3624  -11.9092  -47.8100 N.am      2 UNK        -0.5000 
     65 C          -0.4943  -12.5990  -48.9530 C.2       1 UNK         0.5000 
     66 O          -1.5673  -13.0911  -49.3156 O.2       1 UNK        -0.5000 
     67 C          -1.3737  -22.5760  -48.1019 C.2       11 UNK         0.5000 
     68 O          -2.1546  -23.3616  -48.6405 O.2       11 UNK        -0.5000 
     69 N          -1.7741  -21.5014  -47.4043 N.am      12 UNK        -0.5000 
     70 CA         -3.1882  -21.1751  -47.1898 C.3       12 UNK         0.1400 
     71 CB         -3.3537  -19.7005  -46.7982 C.3       12 UNK        -0.1800 
     72 C          -3.8546  -22.0839  -46.1433 C.2       12 UNK         0.5000 
     73 O          -5.0784  -22.1843  -46.1395 O.2       12 UNK        -0.5000 
     74 N          -3.0584  -22.7403  -45.2882 N.am      13 UNK        -0.5000 
     75 CA         -3.5430  -23.7477  -44.3458 C.3       13 UNK         0.1400 
     76 CB         -2.5179  -23.9496  -43.2187 C.3       13 UNK        -0.1800 
     77 C          -3.8545  -25.0715  -45.0672 C.2       13 UNK         0.5000 
     78 O          -4.9239  -25.6418  -44.8531 O.2       13 UNK        -0.5000 
     79 N          -2.9290  -25.5157  -45.9302 N.am      14 UNK        -0.5000 
     80 CA         -3.0376  -26.7400  -46.7228 C.3       14 UNK         0.1400 
     81 CB         -1.6773  -27.0539  -47.3650 C.3       14 UNK        -0.1800 
     82 C          -4.1379  -26.6659  -47.7948 C.2       14 UNK         0.5000 
     83 O          -4.9316  -27.6001  -47.9142 O.2       14 UNK        -0.5000 
     84 N          -4.1741  -25.5573  -48.5473 N.am      15 UNK        -0.5000 
     85 CA         -5.1592  -25.3230  -49.6072 C.3       15 UNK         0.1400 
     86 CB         -4.5663  -24.3374  -50.6209 C.3       15 UNK        -0.1800 
     87 C          -6.5111  -24.8031  -49.0829 C.2       15 UNK         0.5000 
     88 O          -7.4797  -24.7805  -49.8418 O.2       15 UNK        -0.5000 
     89 N          -6.5409  -24.3683  -47.8154 N.am      16 UNK        -0.5000 
     90 CA         -7.6565  -23.7717  -47.0694 C.3       16 UNK         0.1400 
     91 CB         -8.8820  -24.7080  -47.0395 C.3       16 UNK        -0.1800 
     92 C          -8.0365  -22.3390  -47.5062 C.2       16 UNK         0.5000 
     93 O          -8.8734  -21.7221  -46.8445 O.2       16 UNK        -0.5000 
     94 N          -7.4186  -21.8169  -48.5736 N.am      17 UNK        -0.5000 
     95 CA         -7.6301  -20.4848  -49.1286 C.3       17 UNK         0.1400 
     96 CB         -9.0344  -20.3872  -49.7629 C.3       17 UNK        -0.1800 
     97 C          -6.5542  -20.1878  -50.1855 C.2       17 UNK         0.5000 
     98 O          -5.8494  -21.0987  -50.6304 O.2       17 UNK        -0.5000 
     99 N          -6.4869  -18.9112  -50.5898 N.am      18 UNK        -0.5000 
    100 CA        -5.8314  -18.3796  -51.7938 C.3       18 UNK         0.1400 
    101 CB        -6.5623  -18.8967  -53.0517 C.3       18 UNK        -0.1800 
    102 C         -4.3072  -18.5967  -51.8986 C.2       18 UNK         0.5000 
    103 O         -3.7652  -18.4788  -52.9984 O.2       18 UNK        -0.5000 
    104 N         -3.6398  -18.9260  -50.7811 N.am      19 UNK        -0.5000 
    105 CA        -2.2002  -19.2154  -50.6787 C.3       19 UNK         0.1400 
    106 CB        -1.3836  -17.9169  -50.8519 C.3       19 UNK        -0.1800 
    107 C         -1.7395  -20.3333  -51.6417 C.2       19 UNK         0.5000 
    108 O         -0.6564  -20.2431  -52.2187 O.2       19 UNK        -0.5000 
    109 N         -2.6060  -21.3386  -51.8450 N.am      20 UNK        -0.5000 
    110 CA        -2.4552  -22.4407  -52.8047 C.3       20 UNK         0.1400 
    111 CB        -1.3030  -23.3789  -52.3880 C.3       20 UNK        -0.1800 
    112 C         -2.3525  -21.9735  -54.2752 C.2       20 UNK         0.5000 
    113 O         -1.6932  -22.6281  -55.0842 O.2       20 UNK        -0.5000 
    114 N         -3.0189  -20.8517  -54.5890 N.am      21 UNK        -0.5000 
    115 CA        -3.0802  -20.1769  -55.8897 C.3       21 UNK         0.1400 
    116 CB        -3.7228  -21.0800  -56.9640 C.3       21 UNK        -0.1800 
    117 C         -1.7341  -19.5636  -56.3321 C.2       21 UNK         0.5000 
    118 O         -1.4940  -19.4093  -57.5314 O.2       21 UNK        -0.5000 
    119 N         -0.8871  -19.2046  -55.3590 N.am      22 UNK        -0.5000 
    120 CA         0.3503  -18.4369  -55.5579 C.3       22 UNK         0.1400 
    121 C          0.0816  -16.9800  -56.0424 C.2       22 UNK         0.5000 
    122 N          1.0259  -16.3669  -56.7427 N.am      22 UNK        -0.7600 
    123 O         -0.9647  -16.3918  -55.7782 O.2       22 UNK        -0.5000 
    124 C124        1.2137  -18.4825  -54.2730 C.3       23 UNK        -0.0398 
    125 S125        2.9740  -18.0717  -54.5393 S.3       23 UNK        -0.2404 
    126 C126        3.2169  -16.6896  -53.3642 C.3       23 UNK        -0.0205 
    127 H127       -1.2093  -15.2172  -52.9553 H         1 UNK         0.0600 
    128 H128        0.3108  -14.8748  -53.7857 H         1 UNK         0.0600 
    129 H129        0.3096  -15.8462  -52.3089 H         1 UNK         0.0600 
    130 H130        0.8964  -14.7429  -50.4769 H         1 UNK         0.3000 
    131 H131        0.8521  -11.8081  -50.3869 H         1 UNK         0.0600 
    132 H132        2.9245  -12.9106  -49.7541 H         1 UNK         0.0800 
    133 H133        2.2778  -12.0289  -48.4173 H         1 UNK         0.0800 
    134 H134        4.2167  -15.6210  -47.6903 H         1 UNK         0.0800 
    135 H135        4.4093  -14.4619  -48.9712 H         1 UNK         0.0800 
    136 H136        3.5888  -15.0135  -51.2874 H         1 UNK         0.1150 
    137 H137        2.8021  -19.1627  -52.0857 H         1 UNK         0.1150 
    138 H138        3.2223  -17.8094  -48.0632 H         1 UNK         0.1150 
    139 H139        2.9921  -20.7469  -50.3579 H         1 UNK         0.0800 
    140 H140        3.4558  -20.2856  -48.7403 H         1 UNK         0.0800 
    141 H141        1.8662  -22.5438  -49.3787 H         1 UNK         0.0800 
    142 H142        0.3778  -22.2483  -50.2192 H         1 UNK         0.0800 
    143 H143        0.2199  -23.9281  -48.4108 H         1 UNK         0.0600 
    144 H144        1.3737  -21.9366  -46.6866 H         1 UNK         0.3000 
    145 H145        0.4977  -23.2299  -43.7308 H         1 UNK         0.0600 
    146 H146        2.5894  -24.4329  -43.0971 H         1 UNK         0.0600 
    147 H147        1.4654  -25.4641  -43.9665 H         1 UNK         0.0600 
    148 H148        2.8769  -24.8271  -44.7928 H         1 UNK         0.0600 
    149 H149        1.6847  -21.4211  -43.7780 H         1 UNK         0.3000 
    150 H150        4.8960  -20.6460  -44.2677 H         1 UNK         0.0600 
    151 H151        4.5872  -20.0168  -46.6309 H         1 UNK         0.0600 
    152 H152        4.3867  -18.5884  -45.6306 H         1 UNK         0.0600 
    153 H153        2.9712  -19.4025  -46.2980 H         1 UNK         0.0600 
    154 H154        2.6127  -18.9288  -43.8711 H         1 UNK         0.3000 
    155 H155        1.9683  -19.8816  -40.4960 H         1 UNK         0.0600 
    156 H156        3.0037  -17.2649  -41.7093 H         1 UNK         0.0600 
    157 H157        3.7046  -18.1093  -40.3360 H         1 UNK         0.0600 
    158 H158        2.0941  -17.4181  -40.2081 H         1 UNK         0.0600 
    159 H159        0.6653  -18.0363  -42.2324 H         1 UNK         0.3000 
    160 H160       -1.5470  -20.4150  -43.7890 H         1 UNK         0.0600 
    161 H161       -3.2206  -18.8266  -42.9351 H         1 UNK         0.0600 
    162 H162       -2.0484  -18.1260  -41.8201 H         1 UNK         0.0600 
    163 H163       -2.5882  -19.7877  -41.6085 H         1 UNK         0.0600 
    164 H164       -1.1588  -17.5679  -44.0536 H         1 UNK         0.3000 
    165 H165        1.2392  -17.7806  -46.6885 H         1 UNK         0.0600 
    166 H166       -0.4076  -16.3574  -47.8876 H         1 UNK         0.0600 
    167 H167       -0.8614  -18.0515  -47.9453 H         1 UNK         0.0600 
    168 H168       -1.7016  -16.9527  -46.8485 H         1 UNK         0.0600 
    169 H169       -0.0941  -15.5458  -45.5263 H         1 UNK         0.3000 
    170 H170        2.1641  -15.1108  -42.7731 H         1 UNK         0.0600 
    171 H171        3.1647  -14.0098  -44.8056 H         1 UNK         0.0600 
    172 H172        1.5679  -13.4260  -45.2572 H         1 UNK         0.0600 
    173 H173        2.3171  -12.8777  -43.7617 H         1 UNK         0.0600 
    174 H174       -0.2426  -13.7910  -43.7048 H         1 UNK         0.3000 
    175 H175       -2.4663  -15.5204  -41.5187 H         1 UNK         0.0600 
    176 H176       -2.8869  -13.2098  -40.7316 H         1 UNK         0.0600 
    177 H177       -1.3643  -13.7980  -40.0834 H         1 UNK         0.0600 
    178 H178       -1.3614  -12.6610  -41.4264 H         1 UNK         0.0600 
    179 H179       -2.8125  -13.3218  -43.3275 H         1 UNK         0.3000 
    180 H180       -3.5697  -15.2787  -46.2138 H         1 UNK         0.0600 
    181 H181       -5.3802  -13.6044  -44.3950 H         1 UNK         0.0600 
    182 H182       -5.6640  -15.2826  -44.8420 H         1 UNK         0.0600 
    183 H183       -5.6969  -14.0344  -46.0763 H         1 UNK         0.0600 
    184 H184       -3.7311  -12.5272  -46.0036 H         1 UNK         0.3000 
    185 H185       -2.2815  -11.3210  -47.2600 H         1 UNK         0.0600 
    186 H186       -0.0105  -11.2465  -45.1897 H         1 UNK         0.0600 
    187 H187       -0.6448   -9.8583  -46.0737 H         1 UNK         0.0600 
    188 H188       -1.6586  -10.6972  -44.9112 H         1 UNK         0.0600 
    189 H189        0.5473  -11.5551  -47.5574 H         1 UNK         0.3000 
    190 H190       -1.0762  -20.9205  -46.9481 H         1 UNK         0.3000 
    191 H191       -3.7219  -21.3254  -48.1313 H         1 UNK         0.0600 
    192 H192       -2.9346  -19.0372  -47.5512 H         1 UNK         0.0600 
    193 H193       -2.8830  -19.4803  -45.8419 H         1 UNK         0.0600 
    194 H194       -4.4092  -19.4430  -46.7008 H         1 UNK         0.0600 
    195 H195       -2.0602  -22.6284  -45.3749 H         1 UNK         0.3000 
    196 H196       -4.4671  -23.3834  -43.8912 H         1 UNK         0.0600 
    197 H197       -2.9208  -24.6059  -42.4465 H         1 UNK         0.0600 
    198 H198       -2.2614  -23.0040  -42.7401 H         1 UNK         0.0600 
    199 H199       -1.5969  -24.4058  -43.5790 H         1 UNK         0.0600 
    200 H200       -2.0480  -25.0140  -46.0093 H         1 UNK         0.3000 
    201 H201       -3.2882  -27.5582  -46.0443 H         1 UNK         0.0600 
    202 H202       -0.9098  -27.2046  -46.6056 H         1 UNK         0.0600 
    203 H203       -1.3444  -26.2464  -48.0187 H         1 UNK         0.0600 
    204 H204       -1.7263  -27.9645  -47.9633 H         1 UNK         0.0600 
    205 H205       -3.4643  -24.8409  -48.4194 H         1 UNK         0.3000 
    206 H206       -5.3522  -26.2630  -50.1285 H         1 UNK         0.0600 
    207 H207       -3.6395  -24.7272  -51.0404 H         1 UNK         0.0600 
    208 H208       -5.2536  -24.1627  -51.4497 H         1 UNK         0.0600 
    209 H209       -4.3510  -23.3709  -50.1647 H         1 UNK         0.0600 
    210 H210       -5.6736  -24.4120  -47.2991 H         1 UNK         0.3000 
    211 H211       -7.3000  -23.6837  -46.0422 H         1 UNK         0.0600 
    212 H212       -9.3613  -24.7859  -48.0153 H         1 UNK         0.0600 
    213 H213       -9.6339  -24.3406  -46.3403 H         1 UNK         0.0600 
    214 H214       -8.6042  -25.7118  -46.7178 H         1 UNK         0.0600 
    215 H215       -6.7320  -22.3694  -49.0701 H         1 UNK         0.3000 
    216 H216       -7.5341  -19.7521  -48.3249 H         1 UNK         0.0600 
    217 H217       -9.2007  -19.4102  -50.2179 H         1 UNK         0.0600 
    218 H218       -9.8233  -20.5269  -49.0245 H         1 UNK         0.0600 
    219 H219       -9.1713  -21.1382  -50.5421 H         1 UNK         0.0600 
    220 H220       -7.0763  -18.2434  -50.1119 H         1 UNK         0.3000 
    221 H221       -5.9695  -17.2982  -51.7569 H         1 UNK         0.0600 
    222 H222       -6.4148  -19.9684  -53.1909 H         1 UNK         0.0600 
    223 H223       -7.6347  -18.7121  -52.9889 H         1 UNK         0.0600 
    224 H224       -6.2047  -18.3976  -53.9532 H         1 UNK         0.0600 
    225 H225       -4.1782  -19.0208  -49.9328 H         1 UNK         0.3000 
    226 H226       -2.0206  -19.5921  -49.6722 H         1 UNK         0.0600 
    227 H227       -1.7275  -17.1367  -50.1733 H         1 UNK         0.0600 
    228 H228       -0.3257  -18.0846  -50.6448 H         1 UNK         0.0600 
    229 H229       -1.4593  -17.5321  -51.8688 H         1 UNK         0.0600 
    230 H230       -3.4915  -21.3050  -51.3551 H         1 UNK         0.3000 
    231 H231       -3.3812  -23.0119  -52.7537 H         1 UNK         0.0600 
    232 H232       -1.3985  -23.6845  -51.3464 H         1 UNK         0.0600 
    233 H233       -0.3298  -22.9038  -52.5127 H         1 UNK         0.0600 
    234 H234       -1.3015  -24.2871  -52.9915 H         1 UNK         0.0600 
    235 H235       -3.4636  -20.3390  -53.8357 H         1 UNK         0.3000 
    236 H236       -3.7500  -19.3282  -55.7441 H         1 UNK         0.0600 
    237 H237       -3.9283  -20.5168  -57.8748 H         1 UNK         0.0600 
    238 H238       -3.0744  -21.9126  -57.2373 H         1 UNK         0.0600 
    239 H239       -4.6713  -21.4909  -56.6183 H         1 UNK         0.0600 
    240 H240       -1.1591  -19.3724  -54.3995 H         1 UNK         0.3000 
    241 H241        0.9016  -18.9462  -56.3509 H         1 UNK         0.0600 
    242 H242        0.8667  -15.4243  -57.0620 H         1 UNK         0.3800 
    243 H243        1.9030  -16.8198  -56.9493 H         1 UNK         0.3800 
    244 H244        0.7818  -17.8562  -53.4917 H         1 UNK         0.0800 
    245 H245        1.2072  -19.4969  -53.8730 H         1 UNK         0.0800 
    246 H246        2.4749  -15.9189  -53.5696 H         1 UNK         0.0800 
    247 H247        4.1861  -16.2403  -53.5847 H         1 UNK         0.0800 
@<TRIPOS>BOND
     1    1    2 1    
     2    1  127 1    
     3    1  128 1    
     4    1  129 1    
     5    2    3 2    
     6    2    4 am   BACKBONE|DICT|INTERRES
     7    4    5 1    
     8    4  130 1    
     9    5    6 1    
    10    5   65 1    
    11    5  131 1    
    12    6    7 1    
    13    6  132 1    
    14    6  133 1    
    15    7    8 1    
    16    8    9 1    
    17    8  134 1    
    18    8  135 1    
    19    9   10 ar   
    20    9   14 ar   
    21   10   11 ar   
    22   10  136 1    
    23   11   12 ar   
    24   11  126 1    
    25   12   13 ar   
    26   12  137 1    
    27   13   14 ar   
    28   13   15 1    
    29   14  138 1    
    30   15   16 1    
    31   15  139 1    
    32   15  140 1    
    33   16   17 1    
    34   17   18 1    
    35   17  141 1    
    36   17  142 1    
    37   18   19 1    
    38   18   67 1    
    39   18  143 1    
    40   19   20 am   BACKBONE|DICT|INTERRES
    41   19  144 1    
    42   20   21 2    
    43   20   22 1    
    44   22   23 1    
    45   22   24 1    
    46   22  145 1    
    47   23  146 1    
    48   23  147 1    
    49   23  148 1    
    50   24   25 am   BACKBONE|DICT|INTERRES
    51   24  149 1    
    52   25   26 2    
    53   25   27 1    
    54   27   28 1    
    55   27   29 1    
    56   27  150 1    
    57   28  151 1    
    58   28  152 1    
    59   28  153 1    
    60   29   30 am   BACKBONE|DICT|INTERRES
    61   29  154 1    
    62   30   31 2    
    63   30   32 1    
    64   32   33 1    
    65   32   34 1    
    66   32  155 1    
    67   33  156 1    
    68   33  157 1    
    69   33  158 1    
    70   34   35 am   BACKBONE|DICT|INTERRES
    71   34  159 1    
    72   35   36 2    
    73   35   37 1    
    74   37   38 1    
    75   37   39 1    
    76   37  160 1    
    77   38  161 1    
    78   38  162 1    
    79   38  163 1    
    80   39   40 am   BACKBONE|DICT|INTERRES
    81   39  164 1    
    82   40   41 2    
    83   40   42 1    
    84   42   43 1    
    85   42   44 1    
    86   42  165 1    
    87   43  166 1    
    88   43  167 1    
    89   43  168 1    
    90   44   45 am   BACKBONE|DICT|INTERRES
    91   44  169 1    
    92   45   46 2    
    93   45   47 1    
    94   47   48 1    
    95   47   49 1    
    96   47  170 1    
    97   48  171 1    
    98   48  172 1    
    99   48  173 1    
   100   49   50 am   BACKBONE|DICT|INTERRES
   101   49  174 1    
   102   50   51 2    
   103   50   52 1    
   104   52   53 1    
   105   52   54 1    
   106   52  175 1    
   107   53  176 1    
   108   53  177 1    
   109   53  178 1    
   110   54   55 am   BACKBONE|DICT|INTERRES
   111   54  179 1    
   112   55   56 2    
   113   55   57 1    
   114   57   58 1    
   115   57   59 1    
   116   57  180 1    
   117   58  181 1    
   118   58  182 1    
   119   58  183 1    
   120   59   60 am   BACKBONE|DICT|INTERRES
   121   59  184 1    
   122   60   61 2    
   123   60   62 1    
   124   62   63 1    
   125   62   64 1    
   126   62  185 1    
   127   63  186 1    
   128   63  187 1    
   129   63  188 1    
   130   64   65 am   BACKBONE|DICT|INTERRES
   131   64  189 1    
   132   65   66 2    
   133   67   68 2    
   134   67   69 am   BACKBONE|DICT|INTERRES
   135   69   70 1    
   136   69  190 1    
   137   70   71 1    
   138   70   72 1    
   139   70  191 1    
   140   71  192 1    
   141   71  193 1    
   142   71  194 1    
   143   72   73 2    
   144   72   74 am   BACKBONE|DICT|INTERRES
   145   74   75 1    
   146   74  195 1    
   147   75   76 1    
   148   75   77 1    
   149   75  196 1    
   150   76  197 1    
   151   76  198 1    
   152   76  199 1    
   153   77   78 2    
   154   77   79 am   BACKBONE|DICT|INTERRES
   155   79   80 1    
   156   79  200 1    
   157   80   81 1    
   158   80   82 1    
   159   80  201 1    
   160   81  202 1    
   161   81  203 1    
   162   81  204 1    
   163   82   83 2    
   164   82   84 am   BACKBONE|DICT|INTERRES
   165   84   85 1    
   166   84  205 1    
   167   85   86 1    
   168   85   87 1    
   169   85  206 1    
   170   86  207 1    
   171   86  208 1    
   172   86  209 1    
   173   87   88 2    
   174   87   89 am   BACKBONE|DICT|INTERRES
   175   89   90 1    
   176   89  210 1    
   177   90   91 1    
   178   90   92 1    
   179   90  211 1    
   180   91  212 1    
   181   91  213 1    
   182   91  214 1    
   183   92   93 2    
   184   92   94 am   BACKBONE|DICT|INTERRES
   185   94   95 1    
   186   94  215 1    
   187   95   96 1    
   188   95   97 1    
   189   95  216 1    
   190   96  217 1    
   191   96  218 1    
   192   96  219 1    
   193   97   98 2    
   194   97   99 am   BACKBONE|DICT|INTERRES
   195   99  100 1    
   196   99  220 1    
   197  100  101 1    
   198  100  102 1    
   199  100  221 1    
   200  101  222 1    
   201  101  223 1    
   202  101  224 1    
   203  102  103 2    
   204  102  104 am   BACKBONE|DICT|INTERRES
   205  104  105 1    
   206  104  225 1    
   207  105  106 1    
   208  105  107 1    
   209  105  226 1    
   210  106  227 1    
   211  106  228 1    
   212  106  229 1    
   213  107  108 2    
   214  107  109 am   BACKBONE|DICT|INTERRES
   215  109  110 1    
   216  109  230 1    
   217  110  111 1    
   218  110  112 1    
   219  110  231 1    
   220  111  232 1    
   221  111  233 1    
   222  111  234 1    
   223  112  113 2    
   224  112  114 am   BACKBONE|DICT|INTERRES
   225  114  115 1    
   226  114  235 1    
   227  115  116 1    
   228  115  117 1    
   229  115  236 1    
   230  116  237 1    
   231  116  238 1    
   232  116  239 1    
   233  117  118 2    
   234  117  119 am   BACKBONE|DICT|INTERRES
   235  119  120 1    
   236  119  240 1    
   237  120  121 1    
   238  120  124 1    
   239  120  241 1    
   240  121  122 am   BACKBONE|DICT|INTERRES
   241  121  123 2    
   242  122  242 1    
   243  122  243 1    
   244  124  125 1    
   245  124  244 1    
   246  124  245 1    
   247  125  126 1    
   248  126  246 1    
   249  126  247 1    
@<TRIPOS>SUBSTRUCTURE
     1 UNK         1 GROUP             0       ****    0 ROOT    
