@<TRIPOS>MOLECULE
3R540
247   249    1
SMALL
USER_CHARGES


@<TRIPOS>ATOM
      1 CA         -3.4070  -12.2456  -53.0131 C.3       0 UNK        -0.1800 
      2 C          -2.2556  -12.2548  -52.0177 C.2       0 UNK         0.5000 
      3 O          -1.5635  -11.2474  -51.8706 O.2       0 UNK        -0.5000 
      4 N          -2.0512  -13.3872  -51.3329 N.am      1 UNK        -0.5000 
      5 CA         -0.9753  -13.5967  -50.3513 C.3       1 UNK         0.1400 
      6 C6         -0.6611  -15.1018  -50.1463 C.3       23 UNK        -0.0398 
      7 S7         -0.2451  -15.9271  -51.7222 S.3       23 UNK        -0.2404 
      8 C8          1.5686  -16.0562  -51.6344 C.3       23 UNK        -0.0205 
      9 C9          2.0354  -17.2916  -50.8748 C.ar      23 UNK        -0.0193 
     10 C10         1.9010  -18.5592  -51.4521 C.ar      23 UNK        -0.1150 
     11 C11         2.3727  -19.7000  -50.7906 C.ar      23 UNK        -0.0193 
     12 C12         3.0177  -19.5480  -49.5610 C.ar      23 UNK        -0.1150 
     13 C13         3.1553  -18.2908  -48.9620 C.ar      23 UNK        -0.0193 
     14 C14         2.6513  -17.1670  -49.6250 C.ar      23 UNK        -0.1150 
     15 C15         3.8991  -18.1159  -47.6371 C.3       23 UNK        -0.0205 
     16 S16         3.7416  -19.5209  -46.4784 S.3       23 UNK        -0.2404 
     17 C17         2.0263  -19.3232  -45.8940 C.3       23 UNK        -0.0398 
     18 CA          0.9912  -20.1424  -46.6948 C.3       11 UNK         0.1400 
     19 N           1.3443  -21.5567  -46.7985 N.am      11 UNK        -0.5000 
     20 C           0.8270  -22.4103  -47.6900 C.2       10 UNK         0.5000 
     21 O           0.0046  -22.0895  -48.5467 O.2       10 UNK        -0.5000 
     22 CA          1.2766  -23.8773  -47.5601 C.3       10 UNK         0.1400 
     23 CB          2.6224  -24.0898  -48.2700 C.3       10 UNK        -0.1800 
     24 N           1.4051  -24.2950  -46.1622 N.am      10 UNK        -0.5000 
     25 C           0.3877  -24.3653  -45.2917 C.2       9 UNK         0.5000 
     26 O          -0.7876  -24.1717  -45.6015 O.2       9 UNK        -0.5000 
     27 CA          0.7556  -24.6328  -43.8176 C.3       9 UNK         0.1400 
     28 CB          0.7630  -26.1411  -43.5294 C.3       9 UNK        -0.1800 
     29 N           2.0483  -24.0561  -43.4269 N.am      9 UNK        -0.5000 
     30 C           2.3363  -22.7469  -43.4443 C.2       8 UNK         0.5000 
     31 O           1.5233  -21.8818  -43.7737 O.2       8 UNK        -0.5000 
     32 CA          3.7947  -22.3667  -43.1226 C.3       8 UNK         0.1400 
     33 CB          4.7159  -22.7741  -44.2853 C.3       8 UNK        -0.1800 
     34 N           3.9799  -20.9350  -42.8759 N.am      8 UNK        -0.5000 
     35 C           3.5742  -20.2753  -41.7830 C.2       7 UNK         0.5000 
     36 O           2.9754  -20.8194  -40.8528 O.2       7 UNK        -0.5000 
     37 CA          3.9475  -18.7775  -41.6824 C.3       7 UNK         0.1400 
     38 CB          4.4643  -18.1589  -42.9967 C.3       7 UNK        -0.1800 
     39 N           2.8147  -17.9863  -41.2072 N.am      7 UNK        -0.5000 
     40 C           2.5502  -17.7040  -39.9226 C.2       6 UNK         0.5000 
     41 O           3.2838  -18.0275  -38.9870 O.2       6 UNK        -0.5000 
     42 CA          1.2577  -16.9135  -39.6182 C.3       6 UNK         0.1400 
     43 CB          1.5805  -15.4338  -39.3584 C.3       6 UNK        -0.1800 
     44 N           0.2609  -16.9933  -40.6861 N.am      6 UNK        -0.5000 
     45 C          -0.4093  -18.1017  -41.0272 C.2       5 UNK         0.5000 
     46 O          -0.3697  -19.1453  -40.3756 O.2       5 UNK        -0.5000 
     47 CA         -1.2499  -18.0553  -42.3198 C.3       5 UNK         0.1400 
     48 CB         -2.7498  -18.1116  -41.9879 C.3       5 UNK        -0.1800 
     49 N          -1.0048  -16.9046  -43.1974 N.am      5 UNK        -0.5000 
     50 C           0.1564  -16.5874  -43.7889 C.2       4 UNK         0.5000 
     51 O           1.1947  -17.2236  -43.6134 O.2       4 UNK        -0.5000 
     52 CA          0.1787  -15.3428  -44.7009 C.3       4 UNK         0.1400 
     53 CB          0.4428  -15.7274  -46.1648 C.3       4 UNK        -0.1800 
     54 N          -1.0510  -14.5513  -44.6456 N.am      4 UNK        -0.5000 
     55 C          -1.4020  -13.7203  -43.6584 C.2       3 UNK         0.5000 
     56 O          -0.7304  -13.5671  -42.6369 O.2       3 UNK        -0.5000 
     57 CA         -2.7212  -12.9392  -43.8590 C.3       3 UNK         0.1400 
     58 CB         -2.9914  -11.9334  -42.7255 C.3       3 UNK        -0.1800 
     59 N          -2.7749  -12.2257  -45.1399 N.am      3 UNK        -0.5000 
     60 C          -2.9813  -12.7783  -46.3427 C.2       2 UNK         0.5000 
     61 O          -3.1395  -13.9898  -46.5055 O.2       2 UNK        -0.5000 
     62 CA         -3.0374  -11.8372  -47.5650 C.3       2 UNK         0.1400 
     63 CB         -2.3718  -10.4611  -47.3352 C.3       2 UNK        -0.1800 
     64 N          -2.5127  -12.4805  -48.7742 N.am      2 UNK        -0.5000 
     65 C          -1.2565  -12.8985  -49.0002 C.2       1 UNK         0.5000 
     66 O          -0.3301  -12.7450  -48.2040 O.2       1 UNK        -0.5000 
     67 C          -0.4200  -19.9597  -46.1069 C.2       11 UNK         0.5000 
     68 O          -1.1337  -19.0555  -46.5330 O.2       11 UNK        -0.5000 
     69 N          -0.8219  -20.8361  -45.1754 N.am      12 UNK        -0.5000 
     70 CA         -2.1806  -20.8935  -44.6346 C.3       12 UNK         0.1400 
     71 CB         -2.2228  -21.8105  -43.4043 C.3       12 UNK        -0.1800 
     72 C          -3.2200  -21.3088  -45.6892 C.2       12 UNK         0.5000 
     73 O          -4.2990  -20.7193  -45.7301 O.2       12 UNK        -0.5000 
     74 N          -2.8632  -22.2631  -46.5613 N.am      13 UNK        -0.5000 
     75 CA         -3.6537  -22.6295  -47.7386 C.3       13 UNK         0.1400 
     76 CB         -3.0562  -23.8782  -48.4056 C.3       13 UNK        -0.1800 
     77 C          -3.7659  -21.4654  -48.7408 C.2       13 UNK         0.5000 
     78 O          -4.8553  -21.1961  -49.2470 O.2       13 UNK        -0.5000 
     79 N          -2.6514  -20.7593  -48.9702 N.am      14 UNK        -0.5000 
     80 CA         -2.5945  -19.5702  -49.8168 C.3       14 UNK         0.1400 
     81 CB         -1.1348  -19.1583  -50.0230 C.3       14 UNK        -0.1800 
     82 C          -3.4420  -18.4035  -49.2758 C.2       14 UNK         0.5000 
     83 O          -4.1818  -17.7869  -50.0425 O.2       14 UNK        -0.5000 
     84 N          -3.3724  -18.1647  -47.9589 N.am      15 UNK        -0.5000 
     85 CA         -4.1903  -17.1947  -47.2255 C.3       15 UNK         0.1400 
     86 CB         -3.6889  -17.1041  -45.7769 C.3       15 UNK        -0.1800 
     87 C          -5.6959  -17.5246  -47.2555 C.2       15 UNK         0.5000 
     88 O          -6.5193  -16.6098  -47.2734 O.2       15 UNK        -0.5000 
     89 N          -6.0275  -18.8219  -47.3159 N.am      16 UNK        -0.5000 
     90 CA         -7.3783  -19.3529  -47.5188 C.3       16 UNK         0.1400 
     91 CB         -7.4486  -20.7768  -46.9411 C.3       16 UNK        -0.1800 
     92 C          -7.8420  -19.3141  -48.9943 C.2       16 UNK         0.5000 
     93 O          -8.8995  -19.8642  -49.3045 O.2       16 UNK        -0.5000 
     94 N          -7.0614  -18.6619  -49.8693 N.am      17 UNK        -0.5000 
     95 CA         -7.3010  -18.4093  -51.2921 C.3       17 UNK         0.1400 
     96 CB         -8.6443  -17.6867  -51.5313 C.3       17 UNK        -0.1800 
     97 C          -7.1063  -19.6416  -52.1968 C.2       17 UNK         0.5000 
     98 O          -7.5500  -19.6203  -53.3458 O.2       17 UNK        -0.5000 
     99 N          -6.3894  -20.6645  -51.7102 N.am      18 UNK        -0.5000 
    100 CA        -5.9586  -21.8261  -52.4933 C.3       18 UNK         0.1400 
    101 CB        -6.1159  -23.1061  -51.6530 C.3       18 UNK        -0.1800 
    102 C         -4.5171  -21.6448  -53.0128 C.2       18 UNK         0.5000 
    103 O         -3.8203  -22.6341  -53.2386 O.2       18 UNK        -0.5000 
    104 N         -4.0855  -20.3898  -53.2123 N.am      19 UNK        -0.5000 
    105 CA        -2.7385  -19.9917  -53.6431 C.3       19 UNK         0.1400 
    106 CB        -2.6289  -18.4605  -53.5717 C.3       19 UNK        -0.1800 
    107 C         -2.3338  -20.4964  -55.0434 C.2       19 UNK         0.5000 
    108 O         -1.1436  -20.5347  -55.3533 O.2       19 UNK        -0.5000 
    109 N         -3.3201  -20.8954  -55.8584 N.am      20 UNK        -0.5000 
    110 CA        -3.1146  -21.5779  -57.1365 C.3       20 UNK         0.1400 
    111 CB        -4.4449  -21.6066  -57.9057 C.3       20 UNK        -0.1800 
    112 C         -2.5560  -23.0070  -56.9691 C.2       20 UNK         0.5000 
    113 O         -1.8874  -23.5002  -57.8786 O.2       20 UNK        -0.5000 
    114 N         -2.8368  -23.6388  -55.8206 N.am      21 UNK        -0.5000 
    115 CA        -2.3475  -24.9644  -55.4495 C.3       21 UNK         0.1400 
    116 CB        -3.5194  -25.7985  -54.9079 C.3       21 UNK        -0.1800 
    117 C         -1.2255  -24.8698  -54.4031 C.2       21 UNK         0.5000 
    118 O         -0.2382  -25.5969  -54.5177 O.2       21 UNK        -0.5000 
    119 N         -1.3941  -23.9846  -53.4075 N.am      22 UNK        -0.5000 
    120 CA        -0.4961  -23.7975  -52.2529 C.3       22 UNK         0.1400 
    121 C         -0.4041  -25.0491  -51.3228 C.2       22 UNK         0.5000 
    122 N         -1.4335  -25.8845  -51.2546 N.am      22 UNK        -0.7600 
    123 O          0.5894  -25.2666  -50.6391 O.2       22 UNK        -0.5000 
    124 C124        0.8831  -23.1924  -52.6640 C.3       23 UNK        -0.0398 
    125 S125        0.8862  -21.3693  -52.5550 S.3       23 UNK        -0.2404 
    126 C126        2.2454  -21.1112  -51.3638 C.3       23 UNK        -0.0205 
    127 H127       -4.1263  -11.4707  -52.7480 H         1 UNK         0.0600 
    128 H128       -3.9303  -13.2019  -53.0372 H         1 UNK         0.0600 
    129 H129       -3.0338  -12.0375  -54.0159 H         1 UNK         0.0600 
    130 H130       -2.6355  -14.1906  -51.5164 H         1 UNK         0.3000 
    131 H131       -0.0706  -13.1314  -50.7492 H         1 UNK         0.0600 
    132 H132        0.1627  -15.2362  -49.4431 H         1 UNK         0.0800 
    133 H133       -1.5187  -15.6167  -49.7090 H         1 UNK         0.0800 
    134 H134        1.9589  -16.1057  -52.6518 H         1 UNK         0.0800 
    135 H135        1.9825  -15.1456  -51.1987 H         1 UNK         0.0800 
    136 H136        1.4271  -18.6475  -52.4190 H         1 UNK         0.1150 
    137 H137        3.4145  -20.4236  -49.0676 H         1 UNK         0.1150 
    138 H138        2.7689  -16.1876  -49.1827 H         1 UNK         0.1150 
    139 H139        4.9572  -17.9805  -47.8634 H         1 UNK         0.0800 
    140 H140        3.5767  -17.2034  -47.1337 H         1 UNK         0.0800 
    141 H141        2.0011  -19.5945  -44.8384 H         1 UNK         0.0800 
    142 H142        1.7695  -18.2684  -45.9331 H         1 UNK         0.0800 
    143 H143        0.9603  -19.7364  -47.7067 H         1 UNK         0.0600 
    144 H144        1.9756  -21.9051  -46.0931 H         1 UNK         0.3000 
    145 H145        0.5221  -24.5057  -48.0371 H         1 UNK         0.0600 
    146 H146        2.9272  -25.1356  -48.2304 H         1 UNK         0.0600 
    147 H147        2.5551  -23.8160  -49.3228 H         1 UNK         0.0600 
    148 H148        3.4164  -23.4894  -47.8243 H         1 UNK         0.0600 
    149 H149        2.3375  -24.4842  -45.8268 H         1 UNK         0.3000 
    150 H150       -0.0144  -24.1711  -43.1967 H         1 UNK         0.0600 
    151 H151        0.9376  -26.3401  -42.4718 H         1 UNK         0.0600 
    152 H152        1.5349  -26.6576  -44.1013 H         1 UNK         0.0600 
    153 H153       -0.1955  -26.5924  -43.7894 H         1 UNK         0.0600 
    154 H154        2.7657  -24.7117  -43.1516 H         1 UNK         0.3000 
    155 H155        4.0980  -22.9111  -42.2260 H         1 UNK         0.0600 
    156 H156        4.6772  -23.8487  -44.4672 H         1 UNK         0.0600 
    157 H157        5.7553  -22.5251  -44.0700 H         1 UNK         0.0600 
    158 H158        4.4389  -22.2744  -45.2143 H         1 UNK         0.0600 
    159 H159        4.4343  -20.4121  -43.6099 H         1 UNK         0.3000 
    160 H160        4.7621  -18.7138  -40.9585 H         1 UNK         0.0600 
    161 H161        3.7124  -18.1938  -43.7834 H         1 UNK         0.0600 
    162 H162        5.3591  -18.6662  -43.3591 H         1 UNK         0.0600 
    163 H163        4.7334  -17.1125  -42.8519 H         1 UNK         0.0600 
    164 H164        2.1487  -17.7012  -41.9185 H         1 UNK         0.3000 
    165 H165        0.8206  -17.3346  -38.7104 H         1 UNK         0.0600 
    166 H166        2.0068  -14.9550  -40.2410 H         1 UNK         0.0600 
    167 H167        0.6865  -14.8785  -39.0738 H         1 UNK         0.0600 
    168 H168        2.3006  -15.3271  -38.5462 H         1 UNK         0.0600 
    169 H169        0.1588  -16.1774  -41.2723 H         1 UNK         0.3000 
    170 H170       -0.9775  -18.9483  -42.8819 H         1 UNK         0.0600 
    171 H171       -2.9874  -18.9972  -41.3970 H         1 UNK         0.0600 
    172 H172       -3.0643  -17.2394  -41.4135 H         1 UNK         0.0600 
    173 H173       -3.3597  -18.1545  -42.8893 H         1 UNK         0.0600 
    174 H174       -1.7970  -16.3095  -43.3853 H         1 UNK         0.3000 
    175 H175        1.0033  -14.7105  -44.3655 H         1 UNK         0.0600 
    176 H176       -0.2595  -16.4800  -46.5245 H         1 UNK         0.0600 
    177 H177        0.3658  -14.8609  -46.8192 H         1 UNK         0.0600 
    178 H178        1.4518  -16.1171  -46.2876 H         1 UNK         0.0600 
    179 H179       -1.6667  -14.5982  -45.4532 H         1 UNK         0.3000 
    180 H180       -3.5275  -13.6755  -43.8432 H         1 UNK         0.0600 
    181 H181       -2.2199  -11.1639  -42.6779 H         1 UNK         0.0600 
    182 H182       -3.0197  -12.4323  -41.7559 H         1 UNK         0.0600 
    183 H183       -3.9527  -11.4370  -42.8593 H         1 UNK         0.0600 
    184 H184       -2.6193  -11.2292  -45.0962 H         1 UNK         0.3000 
    185 H185       -4.0965  -11.6604  -47.7564 H         1 UNK         0.0600 
    186 H186       -2.3874   -9.8637  -48.2469 H         1 UNK         0.0600 
    187 H187       -2.8992   -9.8872  -46.5726 H         1 UNK         0.0600 
    188 H188       -1.3320  -10.5560  -47.0204 H         1 UNK         0.0600 
    189 H189       -3.1962  -12.6785  -49.4904 H         1 UNK         0.3000 
    190 H190       -0.1476  -21.5038  -44.8167 H         1 UNK         0.3000 
    191 H191       -2.4507  -19.8880  -44.3141 H         1 UNK         0.0600 
    192 H192       -1.4861  -21.5086  -42.6592 H         1 UNK         0.0600 
    193 H193       -2.0300  -22.8499  -43.6665 H         1 UNK         0.0600 
    194 H194       -3.2031  -21.7718  -42.9279 H         1 UNK         0.0600 
    195 H195       -1.9835  -22.7498  -46.4230 H         1 UNK         0.3000 
    196 H196       -4.6624  -22.8766  -47.4016 H         1 UNK         0.0600 
    197 H197       -3.6592  -24.1912  -49.2587 H         1 UNK         0.0600 
    198 H198       -3.0169  -24.7159  -47.7092 H         1 UNK         0.0600 
    199 H199       -2.0447  -23.7025  -48.7703 H         1 UNK         0.0600 
    200 H200       -1.7778  -21.0740  -48.5616 H         1 UNK         0.3000 
    201 H201       -3.0045  -19.8550  -50.7840 H         1 UNK         0.0600 
    202 H202       -1.0536  -18.4669  -50.8578 H         1 UNK         0.0600 
    203 H203       -0.5108  -20.0183  -50.2614 H         1 UNK         0.0600 
    204 H204       -0.7110  -18.6692  -49.1463 H         1 UNK         0.0600 
    205 H205       -2.6791  -18.6719  -47.4122 H         1 UNK         0.3000 
    206 H206       -4.0542  -16.2218  -47.7013 H         1 UNK         0.0600 
    207 H207       -2.6367  -16.8246  -45.7434 H         1 UNK         0.0600 
    208 H208       -4.2444  -16.3511  -45.2166 H         1 UNK         0.0600 
    209 H209       -3.8009  -18.0544  -45.2563 H         1 UNK         0.0600 
    210 H210       -5.2868  -19.5097  -47.2432 H         1 UNK         0.3000 
    211 H211       -8.0780  -18.7335  -46.9544 H         1 UNK         0.0600 
    212 H212       -6.8044  -21.4661  -47.4856 H         1 UNK         0.0600 
    213 H213       -8.4640  -21.1717  -46.9885 H         1 UNK         0.0600 
    214 H214       -7.1456  -20.7926  -45.8940 H         1 UNK         0.0600 
    215 H215       -6.1833  -18.2914  -49.5252 H         1 UNK         0.3000 
    216 H216       -6.5153  -17.7130  -51.5891 H         1 UNK         0.0600 
    217 H217       -8.7138  -17.3219  -52.5569 H         1 UNK         0.0600 
    218 H218       -8.7513  -16.8229  -50.8747 H         1 UNK         0.0600 
    219 H219       -9.4973  -18.3450  -51.3648 H         1 UNK         0.0600 
    220 H220       -6.0272  -20.6153  -50.7615 H         1 UNK         0.3000 
    221 H221       -6.5957  -21.9403  -53.3724 H         1 UNK         0.0600 
    222 H222       -5.9573  -23.9946  -52.2657 H         1 UNK         0.0600 
    223 H223       -5.3998  -23.1482  -50.8339 H         1 UNK         0.0600 
    224 H224       -7.1172  -23.1804  -51.2284 H         1 UNK         0.0600 
    225 H225       -4.7319  -19.6386  -53.0233 H         1 UNK         0.3000 
    226 H226       -2.0269  -20.4201  -52.9345 H         1 UNK         0.0600 
    227 H227       -2.8599  -18.0873  -52.5744 H         1 UNK         0.0600 
    228 H228       -1.6168  -18.1305  -53.8105 H         1 UNK         0.0600 
    229 H229       -3.3076  -17.9762  -54.2748 H         1 UNK         0.0600 
    230 H230       -4.2726  -20.8043  -55.5375 H         1 UNK         0.3000 
    231 H231       -2.3918  -21.0045  -57.7211 H         1 UNK         0.0600 
    232 H232       -4.3227  -22.0852  -58.8784 H         1 UNK         0.0600 
    233 H233       -4.8191  -20.5987  -58.0862 H         1 UNK         0.0600 
    234 H234       -5.2131  -22.1588  -57.3622 H         1 UNK         0.0600 
    235 H235       -3.3556  -23.1425  -55.1052 H         1 UNK         0.3000 
    236 H236       -1.9451  -25.4816  -56.3226 H         1 UNK         0.0600 
    237 H237       -4.2930  -25.9244  -55.6650 H         1 UNK         0.0600 
    238 H238       -3.1863  -26.7950  -54.6143 H         1 UNK         0.0600 
    239 H239       -3.9805  -25.3342  -54.0357 H         1 UNK         0.0600 
    240 H240       -2.2622  -23.4540  -53.3712 H         1 UNK         0.3000 
    241 H241       -1.0008  -23.0696  -51.6156 H         1 UNK         0.0600 
    242 H242       -2.2623  -25.7262  -51.8016 H         1 UNK         0.3800 
    243 H243       -1.3744  -26.6903  -50.6538 H         1 UNK         0.3800 
    244 H244        1.6980  -23.5725  -52.0507 H         1 UNK         0.0800 
    245 H245        1.1533  -23.4714  -53.6812 H         1 UNK         0.0800 
    246 H246        2.0957  -21.8053  -50.5363 H         1 UNK         0.0800 
    247 H247        3.1889  -21.3835  -51.8380 H         1 UNK         0.0800 
@<TRIPOS>BOND
     1    1    2 1    
     2    1  127 1    
     3    1  128 1    
     4    1  129 1    
     5    2    3 2    
     6    2    4 am   BACKBONE|DICT|INTERRES
     7    4    5 1    
     8    4  130 1    
     9    5    6 1    
    10    5   65 1    
    11    5  131 1    
    12    6    7 1    
    13    6  132 1    
    14    6  133 1    
    15    7    8 1    
    16    8    9 1    
    17    8  134 1    
    18    8  135 1    
    19    9   10 ar   
    20    9   14 ar   
    21   10   11 ar   
    22   10  136 1    
    23   11   12 ar   
    24   11  126 1    
    25   12   13 ar   
    26   12  137 1    
    27   13   14 ar   
    28   13   15 1    
    29   14  138 1    
    30   15   16 1    
    31   15  139 1    
    32   15  140 1    
    33   16   17 1    
    34   17   18 1    
    35   17  141 1    
    36   17  142 1    
    37   18   19 1    
    38   18   67 1    
    39   18  143 1    
    40   19   20 am   BACKBONE|DICT|INTERRES
    41   19  144 1    
    42   20   21 2    
    43   20   22 1    
    44   22   23 1    
    45   22   24 1    
    46   22  145 1    
    47   23  146 1    
    48   23  147 1    
    49   23  148 1    
    50   24   25 am   BACKBONE|DICT|INTERRES
    51   24  149 1    
    52   25   26 2    
    53   25   27 1    
    54   27   28 1    
    55   27   29 1    
    56   27  150 1    
    57   28  151 1    
    58   28  152 1    
    59   28  153 1    
    60   29   30 am   BACKBONE|DICT|INTERRES
    61   29  154 1    
    62   30   31 2    
    63   30   32 1    
    64   32   33 1    
    65   32   34 1    
    66   32  155 1    
    67   33  156 1    
    68   33  157 1    
    69   33  158 1    
    70   34   35 am   BACKBONE|DICT|INTERRES
    71   34  159 1    
    72   35   36 2    
    73   35   37 1    
    74   37   38 1    
    75   37   39 1    
    76   37  160 1    
    77   38  161 1    
    78   38  162 1    
    79   38  163 1    
    80   39   40 am   BACKBONE|DICT|INTERRES
    81   39  164 1    
    82   40   41 2    
    83   40   42 1    
    84   42   43 1    
    85   42   44 1    
    86   42  165 1    
    87   43  166 1    
    88   43  167 1    
    89   43  168 1    
    90   44   45 am   BACKBONE|DICT|INTERRES
    91   44  169 1    
    92   45   46 2    
    93   45   47 1    
    94   47   48 1    
    95   47   49 1    
    96   47  170 1    
    97   48  171 1    
    98   48  172 1    
    99   48  173 1    
   100   49   50 am   BACKBONE|DICT|INTERRES
   101   49  174 1    
   102   50   51 2    
   103   50   52 1    
   104   52   53 1    
   105   52   54 1    
   106   52  175 1    
   107   53  176 1    
   108   53  177 1    
   109   53  178 1    
   110   54   55 am   BACKBONE|DICT|INTERRES
   111   54  179 1    
   112   55   56 2    
   113   55   57 1    
   114   57   58 1    
   115   57   59 1    
   116   57  180 1    
   117   58  181 1    
   118   58  182 1    
   119   58  183 1    
   120   59   60 am   BACKBONE|DICT|INTERRES
   121   59  184 1    
   122   60   61 2    
   123   60   62 1    
   124   62   63 1    
   125   62   64 1    
   126   62  185 1    
   127   63  186 1    
   128   63  187 1    
   129   63  188 1    
   130   64   65 am   BACKBONE|DICT|INTERRES
   131   64  189 1    
   132   65   66 2    
   133   67   68 2    
   134   67   69 am   BACKBONE|DICT|INTERRES
   135   69   70 1    
   136   69  190 1    
   137   70   71 1    
   138   70   72 1    
   139   70  191 1    
   140   71  192 1    
   141   71  193 1    
   142   71  194 1    
   143   72   73 2    
   144   72   74 am   BACKBONE|DICT|INTERRES
   145   74   75 1    
   146   74  195 1    
   147   75   76 1    
   148   75   77 1    
   149   75  196 1    
   150   76  197 1    
   151   76  198 1    
   152   76  199 1    
   153   77   78 2    
   154   77   79 am   BACKBONE|DICT|INTERRES
   155   79   80 1    
   156   79  200 1    
   157   80   81 1    
   158   80   82 1    
   159   80  201 1    
   160   81  202 1    
   161   81  203 1    
   162   81  204 1    
   163   82   83 2    
   164   82   84 am   BACKBONE|DICT|INTERRES
   165   84   85 1    
   166   84  205 1    
   167   85   86 1    
   168   85   87 1    
   169   85  206 1    
   170   86  207 1    
   171   86  208 1    
   172   86  209 1    
   173   87   88 2    
   174   87   89 am   BACKBONE|DICT|INTERRES
   175   89   90 1    
   176   89  210 1    
   177   90   91 1    
   178   90   92 1    
   179   90  211 1    
   180   91  212 1    
   181   91  213 1    
   182   91  214 1    
   183   92   93 2    
   184   92   94 am   BACKBONE|DICT|INTERRES
   185   94   95 1    
   186   94  215 1    
   187   95   96 1    
   188   95   97 1    
   189   95  216 1    
   190   96  217 1    
   191   96  218 1    
   192   96  219 1    
   193   97   98 2    
   194   97   99 am   BACKBONE|DICT|INTERRES
   195   99  100 1    
   196   99  220 1    
   197  100  101 1    
   198  100  102 1    
   199  100  221 1    
   200  101  222 1    
   201  101  223 1    
   202  101  224 1    
   203  102  103 2    
   204  102  104 am   BACKBONE|DICT|INTERRES
   205  104  105 1    
   206  104  225 1    
   207  105  106 1    
   208  105  107 1    
   209  105  226 1    
   210  106  227 1    
   211  106  228 1    
   212  106  229 1    
   213  107  108 2    
   214  107  109 am   BACKBONE|DICT|INTERRES
   215  109  110 1    
   216  109  230 1    
   217  110  111 1    
   218  110  112 1    
   219  110  231 1    
   220  111  232 1    
   221  111  233 1    
   222  111  234 1    
   223  112  113 2    
   224  112  114 am   BACKBONE|DICT|INTERRES
   225  114  115 1    
   226  114  235 1    
   227  115  116 1    
   228  115  117 1    
   229  115  236 1    
   230  116  237 1    
   231  116  238 1    
   232  116  239 1    
   233  117  118 2    
   234  117  119 am   BACKBONE|DICT|INTERRES
   235  119  120 1    
   236  119  240 1    
   237  120  121 1    
   238  120  124 1    
   239  120  241 1    
   240  121  122 am   BACKBONE|DICT|INTERRES
   241  121  123 2    
   242  122  242 1    
   243  122  243 1    
   244  124  125 1    
   245  124  244 1    
   246  124  245 1    
   247  125  126 1    
   248  126  246 1    
   249  126  247 1    
@<TRIPOS>SUBSTRUCTURE
     1 UNK         1 GROUP             0       ****    0 ROOT    
