@<TRIPOS>MOLECULE
3R540
247   249    1
SMALL
USER_CHARGES


@<TRIPOS>ATOM
      1 CA         -0.2377  -15.2182  -53.4155 C.3       0 UNK        -0.1800 
      2 C           0.0541  -14.1779  -52.3450 C.2       0 UNK         0.5000 
      3 O          -0.2528  -13.0014  -52.5356 O.2       0 UNK        -0.5000 
      4 N           0.6440  -14.6047  -51.2209 N.am      1 UNK        -0.5000 
      5 CA          1.0448  -13.7343  -50.1052 C.3       1 UNK         0.1400 
      6 C6          2.2161  -14.3378  -49.2923 C.3       23 UNK        -0.0398 
      7 S7          3.7136  -14.5970  -50.2999 S.3       23 UNK        -0.2404 
      8 C8          4.3503  -16.1687  -49.6213 C.3       23 UNK        -0.0205 
      9 C9          3.5430  -17.4103  -49.9985 C.ar      23 UNK        -0.0193 
     10 C10         2.8968  -17.5207  -51.2365 C.ar      23 UNK        -0.1150 
     11 C11         2.1936  -18.6793  -51.5778 C.ar      23 UNK        -0.0193 
     12 C12         2.1508  -19.7426  -50.6711 C.ar      23 UNK        -0.1150 
     13 C13         2.8200  -19.6643  -49.4478 C.ar      23 UNK        -0.0193 
     14 C14         3.4995  -18.4906  -49.1101 C.ar      23 UNK        -0.1150 
     15 C15         2.8554  -20.8744  -48.5283 C.3       23 UNK        -0.0205 
     16 S16         1.3736  -20.9893  -47.4850 S.3       23 UNK        -0.2404 
     17 C17         1.4413  -22.7674  -47.0650 C.3       23 UNK        -0.0398 
     18 CA          0.4205  -23.2428  -46.0004 C.3       11 UNK         0.1400 
     19 N           0.7441  -22.7358  -44.6655 N.am      11 UNK        -0.5000 
     20 C           1.0372  -23.4929  -43.6005 C.2       10 UNK         0.5000 
     21 O           1.0245  -24.7251  -43.6128 O.2       10 UNK        -0.5000 
     22 CA          1.4055  -22.7345  -42.3080 C.3       10 UNK         0.1400 
     23 CB          2.0758  -23.6270  -41.2432 C.3       10 UNK        -0.1800 
     24 N           2.2088  -21.5376  -42.5686 N.am      10 UNK        -0.5000 
     25 C           3.4267  -21.4605  -43.1255 C.2       9 UNK         0.5000 
     26 O           4.0951  -22.4383  -43.4625 O.2       9 UNK        -0.5000 
     27 CA          3.9930  -20.0450  -43.3628 C.3       9 UNK         0.1400 
     28 CB          3.9326  -19.6932  -44.8577 C.3       9 UNK        -0.1800 
     29 N           3.2890  -19.0051  -42.6090 N.am      9 UNK        -0.5000 
     30 C           3.3910  -18.8027  -41.2886 C.2       8 UNK         0.5000 
     31 O           4.1606  -19.4266  -40.5574 O.2       8 UNK        -0.5000 
     32 CA          2.4393  -17.7553  -40.6792 C.3       8 UNK         0.1400 
     33 CB          3.0010  -16.3357  -40.8496 C.3       8 UNK        -0.1800 
     34 N           1.0897  -17.8232  -41.2473 N.am      8 UNK        -0.5000 
     35 C           0.2412  -18.8465  -41.0664 C.2       7 UNK         0.5000 
     36 O           0.4973  -19.8328  -40.3764 O.2       7 UNK        -0.5000 
     37 CA         -1.1051  -18.7798  -41.8080 C.3       7 UNK         0.1400 
     38 CB         -2.1117  -17.9213  -41.0287 C.3       7 UNK        -0.1800 
     39 N          -0.9659  -18.2609  -43.1670 N.am      7 UNK        -0.5000 
     40 C          -0.3515  -18.9049  -44.1684 C.2       6 UNK         0.5000 
     41 O           0.0911  -20.0489  -44.0732 O.2       6 UNK        -0.5000 
     42 CA         -0.1810  -18.1353  -45.4888 C.3       6 UNK         0.1400 
     43 CB         -1.4407  -18.2651  -46.3545 C.3       6 UNK        -0.1800 
     44 N           0.1331  -16.7223  -45.2827 N.am      6 UNK        -0.5000 
     45 C           1.2450  -16.2742  -44.6831 C.2       5 UNK         0.5000 
     46 O           2.1275  -17.0088  -44.2443 O.2       5 UNK        -0.5000 
     47 CA          1.3803  -14.7551  -44.5095 C.3       5 UNK         0.1400 
     48 CB          1.9217  -14.1152  -45.7896 C.3       5 UNK        -0.1800 
     49 N           0.1052  -14.1362  -44.1620 N.am      5 UNK        -0.5000 
     50 C          -0.4590  -14.2150  -42.9509 C.2       4 UNK         0.5000 
     51 O           0.0538  -14.7902  -41.9900 O.2       4 UNK        -0.5000 
     52 CA         -1.8519  -13.5764  -42.8097 C.3       4 UNK         0.1400 
     53 CB         -1.7406  -12.0535  -42.6421 C.3       4 UNK        -0.1800 
     54 N          -2.7320  -13.8794  -43.9411 N.am      4 UNK        -0.5000 
     55 C          -3.1562  -15.1120  -44.2497 C.2       3 UNK         0.5000 
     56 O          -2.8237  -16.1244  -43.6360 O.2       3 UNK        -0.5000 
     57 CA         -4.1054  -15.2462  -45.4503 C.3       3 UNK         0.1400 
     58 CB         -5.5387  -14.8869  -45.0257 C.3       3 UNK        -0.1800 
     59 N          -3.7474  -14.4653  -46.6374 N.am      3 UNK        -0.5000 
     60 C          -2.5631  -14.4518  -47.2664 C.2       2 UNK         0.5000 
     61 O          -1.5332  -14.9547  -46.8108 O.2       2 UNK        -0.5000 
     62 CA         -2.5727  -13.7941  -48.6618 C.3       2 UNK         0.1400 
     63 CB         -3.0162  -12.3158  -48.6085 C.3       2 UNK        -0.1800 
     64 N          -1.3118  -13.9542  -49.3963 N.am      2 UNK        -0.5000 
     65 C          -0.1342  -13.3487  -49.1784 C.2       1 UNK         0.5000 
     66 O           0.0520  -12.5028  -48.3027 O.2       1 UNK        -0.5000 
     67 C          -1.0328  -22.9293  -46.4069 C.2       11 UNK         0.5000 
     68 O          -1.4367  -23.3276  -47.4982 O.2       11 UNK        -0.5000 
     69 N          -1.8035  -22.2452  -45.5474 N.am      12 UNK        -0.5000 
     70 CA         -3.1541  -21.7417  -45.8285 C.3       12 UNK         0.1400 
     71 CB         -3.6658  -20.9613  -44.6078 C.3       12 UNK        -0.1800 
     72 C          -4.1921  -22.7967  -46.2627 C.2       12 UNK         0.5000 
     73 O          -5.1476  -22.4364  -46.9497 O.2       12 UNK        -0.5000 
     74 N          -3.9889  -24.0599  -45.8704 N.am      13 UNK        -0.5000 
     75 CA         -4.8300  -25.1979  -46.2498 C.3       13 UNK         0.1400 
     76 CB         -5.0647  -26.0587  -44.9970 C.3       13 UNK        -0.1800 
     77 C          -4.2162  -26.0503  -47.3815 C.2       13 UNK         0.5000 
     78 O          -4.8692  -26.9905  -47.8365 O.2       13 UNK        -0.5000 
     79 N          -2.9780  -25.7458  -47.7942 N.am      14 UNK        -0.5000 
     80 CA         -2.2200  -26.4945  -48.7982 C.3       14 UNK         0.1400 
     81 CB         -0.8173  -26.7985  -48.2462 C.3       14 UNK        -0.1800 
     82 C          -2.1212  -25.7138  -50.1171 C.2       14 UNK         0.5000 
     83 O          -2.3519  -26.2842  -51.1845 O.2       14 UNK        -0.5000 
     84 N          -1.7996  -24.4174  -50.0262 N.am      15 UNK        -0.5000 
     85 CA         -1.7033  -23.4807  -51.1417 C.3       15 UNK         0.1400 
     86 CB         -0.7510  -22.3391  -50.7403 C.3       15 UNK        -0.1800 
     87 C          -3.1085  -22.9846  -51.5266 C.2       15 UNK         0.5000 
     88 O          -3.4552  -21.8345  -51.2516 O.2       15 UNK        -0.5000 
     89 N          -3.9058  -23.8975  -52.1010 N.am      16 UNK        -0.5000 
     90 CA         -5.3286  -23.7599  -52.4192 C.3       16 UNK         0.1400 
     91 CB         -5.5432  -22.7423  -53.5614 C.3       16 UNK        -0.1800 
     92 C          -6.1333  -23.4581  -51.1402 C.2       16 UNK         0.5000 
     93 O          -6.2918  -24.3523  -50.3074 O.2       16 UNK        -0.5000 
     94 N          -6.5838  -22.2106  -50.9905 N.am      17 UNK        -0.5000 
     95 CA         -7.1396  -21.6635  -49.7644 C.3       17 UNK         0.1400 
     96 CB         -8.6671  -21.5485  -49.8923 C.3       17 UNK        -0.1800 
     97 C          -6.4888  -20.2927  -49.5555 C.2       17 UNK         0.5000 
     98 O          -6.5901  -19.4380  -50.4372 O.2       17 UNK        -0.5000 
     99 N          -5.8217  -20.1112  -48.4090 N.am      18 UNK        -0.5000 
    100 CA        -5.2252  -18.8581  -47.9280 C.3       18 UNK         0.1400 
    101 CB        -6.3423  -17.8634  -47.5524 C.3       18 UNK        -0.1800 
    102 C         -4.1793  -18.2385  -48.8832 C.2       18 UNK         0.5000 
    103 O         -4.0501  -17.0152  -48.9356 O.2       18 UNK        -0.5000 
    104 N         -3.4667  -19.0955  -49.6308 N.am      19 UNK        -0.5000 
    105 CA        -2.4714  -18.7665  -50.6584 C.3       19 UNK         0.1400 
    106 CB        -1.2798  -17.9779  -50.0695 C.3       19 UNK        -0.1800 
    107 C         -3.0512  -18.1098  -51.9301 C.2       19 UNK         0.5000 
    108 O         -2.2701  -17.6890  -52.7839 O.2       19 UNK        -0.5000 
    109 N         -4.3845  -18.0499  -52.0764 N.am      20 UNK        -0.5000 
    110 CA        -5.0709  -17.4653  -53.2307 C.3       20 UNK         0.1400 
    111 CB        -6.5779  -17.3720  -52.9446 C.3       20 UNK        -0.1800 
    112 C         -4.7905  -18.2719  -54.5121 C.2       20 UNK         0.5000 
    113 O         -5.2553  -19.4055  -54.6307 O.2       20 UNK        -0.5000 
    114 N         -3.9917  -17.6807  -55.4129 N.am      21 UNK        -0.5000 
    115 CA        -3.4310  -18.2657  -56.6409 C.3       21 UNK         0.1400 
    116 CB        -4.5421  -18.7229  -57.6095 C.3       21 UNK        -0.1800 
    117 C         -2.3742  -19.3683  -56.3926 C.2       21 UNK         0.5000 
    118 O         -1.9383  -20.0135  -57.3476 O.2       21 UNK        -0.5000 
    119 N         -1.9444  -19.5269  -55.1339 N.am      22 UNK        -0.5000 
    120 CA        -0.9454  -20.4881  -54.6495 C.3       22 UNK         0.1400 
    121 C         -1.3074  -21.9923  -54.8546 C.2       22 UNK         0.5000 
    122 N         -0.3731  -22.9036  -54.6158 N.am      22 UNK        -0.7600 
    123 O         -2.4332  -22.3547  -55.1833 O.2       22 UNK        -0.5000 
    124 C124        0.4887  -20.1120  -55.1283 C.3       23 UNK        -0.0398 
    125 S125        1.7291  -20.3186  -53.8083 S.3       23 UNK        -0.2404 
    126 C126        1.4609  -18.7551  -52.9117 C.3       23 UNK        -0.0205 
    127 H127        0.0101  -16.2227  -53.0769 H         1 UNK         0.0600 
    128 H128       -1.2955  -15.2022  -53.6777 H         1 UNK         0.0600 
    129 H129        0.3420  -15.0079  -54.3141 H         1 UNK         0.0600 
    130 H130        0.8885  -15.5791  -51.1224 H         1 UNK         0.3000 
    131 H131        1.4051  -12.7943  -50.5291 H         1 UNK         0.0600 
    132 H132        1.9137  -15.2763  -48.8239 H         1 UNK         0.0800 
    133 H133        2.5044  -13.6614  -48.4872 H         1 UNK         0.0800 
    134 H134        4.4176  -16.0750  -48.5361 H         1 UNK         0.0800 
    135 H135        5.3703  -16.3082  -49.9811 H         1 UNK         0.0800 
    136 H136        2.9443  -16.7046  -51.9430 H         1 UNK         0.1150 
    137 H137        1.6157  -20.6453  -50.9267 H         1 UNK         0.1150 
    138 H138        4.0190  -18.4305  -48.1638 H         1 UNK         0.1150 
    139 H139        2.9459  -21.7766  -49.1353 H         1 UNK         0.0800 
    140 H140        3.7406  -20.8456  -47.8917 H         1 UNK         0.0800 
    141 H141        2.4511  -23.0061  -46.7275 H         1 UNK         0.0800 
    142 H142        1.2975  -23.3333  -47.9873 H         1 UNK         0.0800 
    143 H143        0.4741  -24.3330  -45.9917 H         1 UNK         0.0600 
    144 H144        0.7416  -21.7234  -44.5555 H         1 UNK         0.3000 
    145 H145        0.4631  -22.3778  -41.8900 H         1 UNK         0.0600 
    146 H146        2.3113  -23.0563  -40.3448 H         1 UNK         0.0600 
    147 H147        1.4157  -24.4422  -40.9449 H         1 UNK         0.0600 
    148 H148        3.0006  -24.0732  -41.6099 H         1 UNK         0.0600 
    149 H149        1.7457  -20.6625  -42.3654 H         1 UNK         0.3000 
    150 H150        5.0395  -20.0514  -43.0520 H         1 UNK         0.0600 
    151 H151        4.4592  -20.4349  -45.4591 H         1 UNK         0.0600 
    152 H152        4.3943  -18.7257  -45.0554 H         1 UNK         0.0600 
    153 H153        2.9033  -19.6499  -45.2152 H         1 UNK         0.0600 
    154 H154        2.6893  -18.3859  -43.1507 H         1 UNK         0.3000 
    155 H155        2.3625  -17.9602  -39.6093 H         1 UNK         0.0600 
    156 H156        3.1010  -16.0627  -41.9000 H         1 UNK         0.0600 
    157 H157        3.9880  -16.2502  -40.3936 H         1 UNK         0.0600 
    158 H158        2.3567  -15.5970  -40.3725 H         1 UNK         0.0600 
    159 H159        0.7972  -17.0417  -41.8196 H         1 UNK         0.3000 
    160 H160       -1.5025  -19.7951  -41.8718 H         1 UNK         0.0600 
    161 H161       -3.0946  -17.9447  -41.4997 H         1 UNK         0.0600 
    162 H162       -1.7933  -16.8794  -40.9723 H         1 UNK         0.0600 
    163 H163       -2.2315  -18.2863  -40.0079 H         1 UNK         0.0600 
    164 H164       -1.3822  -17.3515  -43.3495 H         1 UNK         0.3000 
    165 H165        0.6572  -18.5738  -46.0315 H         1 UNK         0.0600 
    166 H166       -1.3832  -17.6246  -47.2326 H         1 UNK         0.0600 
    167 H167       -1.5581  -19.2888  -46.7077 H         1 UNK         0.0600 
    168 H168       -2.3421  -17.9921  -45.8059 H         1 UNK         0.0600 
    169 H169       -0.5262  -16.0475  -45.6637 H         1 UNK         0.3000 
    170 H170        2.0950  -14.5668  -43.7055 H         1 UNK         0.0600 
    171 H171        2.8769  -14.5565  -46.0773 H         1 UNK         0.0600 
    172 H172        1.2242  -14.2608  -46.6128 H         1 UNK         0.0600 
    173 H173        2.0771  -13.0435  -45.6651 H         1 UNK         0.0600 
    174 H174       -0.4142  -13.7083  -44.9159 H         1 UNK         0.3000 
    175 H175       -2.3122  -13.9854  -41.9077 H         1 UNK         0.0600 
    176 H176       -2.7163  -11.6056  -42.4527 H         1 UNK         0.0600 
    177 H177       -1.0985  -11.8001  -41.7975 H         1 UNK         0.0600 
    178 H178       -1.3194  -11.5786  -43.5291 H         1 UNK         0.0600 
    179 H179       -3.0414  -13.1037  -44.5080 H         1 UNK         0.3000 
    180 H180       -4.0923  -16.2949  -45.7509 H         1 UNK         0.0600 
    181 H181       -5.6150  -13.8453  -44.7110 H         1 UNK         0.0600 
    182 H182       -5.8648  -15.5066  -44.1892 H         1 UNK         0.0600 
    183 H183       -6.2503  -15.0385  -45.8367 H         1 UNK         0.0600 
    184 H184       -4.5223  -14.0122  -47.0985 H         1 UNK         0.3000 
    185 H185       -3.3135  -14.3378  -49.2501 H         1 UNK         0.0600 
    186 H186       -2.4101  -11.7317  -47.9155 H         1 UNK         0.0600 
    187 H187       -2.9475  -11.8478  -49.5907 H         1 UNK         0.0600 
    188 H188       -4.0530  -12.2251  -48.2840 H         1 UNK         0.0600 
    189 H189       -1.3336  -14.6423  -50.1340 H         1 UNK         0.3000 
    190 H190       -1.3882  -21.9544  -44.6737 H         1 UNK         0.3000 
    191 H191       -3.0649  -21.0461  -46.6641 H         1 UNK         0.0600 
    192 H192       -3.0258  -20.1100  -44.3813 H         1 UNK         0.0600 
    193 H193       -3.7106  -21.5923  -43.7194 H         1 UNK         0.0600 
    194 H194       -4.6687  -20.5691  -44.7820 H         1 UNK         0.0600 
    195 H195       -3.1852  -24.2614  -45.2938 H         1 UNK         0.3000 
    196 H196       -5.8019  -24.8486  -46.6047 H         1 UNK         0.0600 
    197 H197       -5.7226  -26.9009  -45.2155 H         1 UNK         0.0600 
    198 H198       -5.5370  -25.4785  -44.2040 H         1 UNK         0.0600 
    199 H199       -4.1307  -26.4640  -44.6061 H         1 UNK         0.0600 
    200 H200       -2.5392  -24.9035  -47.4391 H         1 UNK         0.3000 
    201 H201       -2.7060  -27.4483  -49.0138 H         1 UNK         0.0600 
    202 H202       -0.8750  -27.3938  -47.3348 H         1 UNK         0.0600 
    203 H203       -0.2638  -25.8877  -48.0156 H         1 UNK         0.0600 
    204 H204       -0.2289  -27.3660  -48.9683 H         1 UNK         0.0600 
    205 H205       -1.6590  -24.0120  -49.1026 H         1 UNK         0.3000 
    206 H206       -1.2732  -23.9882  -52.0075 H         1 UNK         0.0600 
    207 H207        0.2386  -22.7231  -50.4926 H         1 UNK         0.0600 
    208 H208       -0.6270  -21.6288  -51.5571 H         1 UNK         0.0600 
    209 H209       -1.1173  -21.7885  -49.8725 H         1 UNK         0.0600 
    210 H210       -3.5292  -24.8342  -52.1932 H         1 UNK         0.3000 
    211 H211       -5.6676  -24.7335  -52.7759 H         1 UNK         0.0600 
    212 H212       -5.1528  -21.7543  -53.3173 H         1 UNK         0.0600 
    213 H213       -6.6018  -22.6326  -53.7995 H         1 UNK         0.0600 
    214 H214       -5.0429  -23.0717  -54.4718 H         1 UNK         0.0600 
    215 H215       -6.3511  -21.5229  -51.6952 H         1 UNK         0.3000 
    216 H216       -6.9059  -22.3059  -48.9134 H         1 UNK         0.0600 
    217 H217       -9.1011  -21.1172  -48.9895 H         1 UNK         0.0600 
    218 H218       -9.1232  -22.5277  -50.0387 H         1 UNK         0.0600 
    219 H219       -8.9561  -20.9158  -50.7325 H         1 UNK         0.0600 
    220 H220       -5.7220  -20.9141  -47.7896 H         1 UNK         0.3000 
    221 H221       -4.6840  -19.1040  -47.0139 H         1 UNK         0.0600 
    222 H222       -6.9219  -17.5586  -48.4243 H         1 UNK         0.0600 
    223 H223       -7.0298  -18.2969  -46.8263 H         1 UNK         0.0600 
    224 H224       -5.9313  -16.9597  -47.1078 H         1 UNK         0.0600 
    225 H225       -3.6928  -20.0799  -49.5682 H         1 UNK         0.3000 
    226 H226       -2.0659  -19.7165  -51.0003 H         1 UNK         0.0600 
    227 H227       -0.7712  -18.5608  -49.3018 H         1 UNK         0.0600 
    228 H228       -0.5354  -17.7486  -50.8294 H         1 UNK         0.0600 
    229 H229       -1.5830  -17.0278  -49.6319 H         1 UNK         0.0600 
    230 H230       -4.9773  -18.4682  -51.3679 H         1 UNK         0.3000 
    231 H231       -4.6954  -16.4481  -53.3597 H         1 UNK         0.0600 
    232 H232       -6.7734  -16.8081  -52.0323 H         1 UNK         0.0600 
    233 H233       -7.0303  -18.3578  -52.8317 H         1 UNK         0.0600 
    234 H234       -7.0971  -16.8668  -53.7597 H         1 UNK         0.0600 
    235 H235       -3.6405  -16.7597  -55.1889 H         1 UNK         0.3000 
    236 H236       -2.8934  -17.4525  -57.1305 H         1 UNK         0.0600 
    237 H237       -4.1276  -18.9763  -58.5859 H         1 UNK         0.0600 
    238 H238       -5.0645  -19.6065  -57.2425 H         1 UNK         0.0600 
    239 H239       -5.2794  -17.9356  -57.7662 H         1 UNK         0.0600 
    240 H240       -2.3351  -18.9185  -54.4238 H         1 UNK         0.3000 
    241 H241       -0.9984  -20.3552  -53.5693 H         1 UNK         0.0600 
    242 H242       -0.5927  -23.8778  -54.7506 H         1 UNK         0.3800 
    243 H243        0.5590  -22.6349  -54.3384 H         1 UNK         0.3800 
    244 H244        0.7835  -20.6963  -56.0017 H         1 UNK         0.0800 
    245 H245        0.5298  -19.0719  -55.4558 H         1 UNK         0.0800 
    246 H246        1.7642  -17.9326  -53.5613 H         1 UNK         0.0800 
    247 H247        0.3953  -18.6284  -52.7266 H         1 UNK         0.0800 
@<TRIPOS>BOND
     1    1    2 1    
     2    1  127 1    
     3    1  128 1    
     4    1  129 1    
     5    2    3 2    
     6    2    4 am   BACKBONE|DICT|INTERRES
     7    4    5 1    
     8    4  130 1    
     9    5    6 1    
    10    5   65 1    
    11    5  131 1    
    12    6    7 1    
    13    6  132 1    
    14    6  133 1    
    15    7    8 1    
    16    8    9 1    
    17    8  134 1    
    18    8  135 1    
    19    9   10 ar   
    20    9   14 ar   
    21   10   11 ar   
    22   10  136 1    
    23   11   12 ar   
    24   11  126 1    
    25   12   13 ar   
    26   12  137 1    
    27   13   14 ar   
    28   13   15 1    
    29   14  138 1    
    30   15   16 1    
    31   15  139 1    
    32   15  140 1    
    33   16   17 1    
    34   17   18 1    
    35   17  141 1    
    36   17  142 1    
    37   18   19 1    
    38   18   67 1    
    39   18  143 1    
    40   19   20 am   BACKBONE|DICT|INTERRES
    41   19  144 1    
    42   20   21 2    
    43   20   22 1    
    44   22   23 1    
    45   22   24 1    
    46   22  145 1    
    47   23  146 1    
    48   23  147 1    
    49   23  148 1    
    50   24   25 am   BACKBONE|DICT|INTERRES
    51   24  149 1    
    52   25   26 2    
    53   25   27 1    
    54   27   28 1    
    55   27   29 1    
    56   27  150 1    
    57   28  151 1    
    58   28  152 1    
    59   28  153 1    
    60   29   30 am   BACKBONE|DICT|INTERRES
    61   29  154 1    
    62   30   31 2    
    63   30   32 1    
    64   32   33 1    
    65   32   34 1    
    66   32  155 1    
    67   33  156 1    
    68   33  157 1    
    69   33  158 1    
    70   34   35 am   BACKBONE|DICT|INTERRES
    71   34  159 1    
    72   35   36 2    
    73   35   37 1    
    74   37   38 1    
    75   37   39 1    
    76   37  160 1    
    77   38  161 1    
    78   38  162 1    
    79   38  163 1    
    80   39   40 am   BACKBONE|DICT|INTERRES
    81   39  164 1    
    82   40   41 2    
    83   40   42 1    
    84   42   43 1    
    85   42   44 1    
    86   42  165 1    
    87   43  166 1    
    88   43  167 1    
    89   43  168 1    
    90   44   45 am   BACKBONE|DICT|INTERRES
    91   44  169 1    
    92   45   46 2    
    93   45   47 1    
    94   47   48 1    
    95   47   49 1    
    96   47  170 1    
    97   48  171 1    
    98   48  172 1    
    99   48  173 1    
   100   49   50 am   BACKBONE|DICT|INTERRES
   101   49  174 1    
   102   50   51 2    
   103   50   52 1    
   104   52   53 1    
   105   52   54 1    
   106   52  175 1    
   107   53  176 1    
   108   53  177 1    
   109   53  178 1    
   110   54   55 am   BACKBONE|DICT|INTERRES
   111   54  179 1    
   112   55   56 2    
   113   55   57 1    
   114   57   58 1    
   115   57   59 1    
   116   57  180 1    
   117   58  181 1    
   118   58  182 1    
   119   58  183 1    
   120   59   60 am   BACKBONE|DICT|INTERRES
   121   59  184 1    
   122   60   61 2    
   123   60   62 1    
   124   62   63 1    
   125   62   64 1    
   126   62  185 1    
   127   63  186 1    
   128   63  187 1    
   129   63  188 1    
   130   64   65 am   BACKBONE|DICT|INTERRES
   131   64  189 1    
   132   65   66 2    
   133   67   68 2    
   134   67   69 am   BACKBONE|DICT|INTERRES
   135   69   70 1    
   136   69  190 1    
   137   70   71 1    
   138   70   72 1    
   139   70  191 1    
   140   71  192 1    
   141   71  193 1    
   142   71  194 1    
   143   72   73 2    
   144   72   74 am   BACKBONE|DICT|INTERRES
   145   74   75 1    
   146   74  195 1    
   147   75   76 1    
   148   75   77 1    
   149   75  196 1    
   150   76  197 1    
   151   76  198 1    
   152   76  199 1    
   153   77   78 2    
   154   77   79 am   BACKBONE|DICT|INTERRES
   155   79   80 1    
   156   79  200 1    
   157   80   81 1    
   158   80   82 1    
   159   80  201 1    
   160   81  202 1    
   161   81  203 1    
   162   81  204 1    
   163   82   83 2    
   164   82   84 am   BACKBONE|DICT|INTERRES
   165   84   85 1    
   166   84  205 1    
   167   85   86 1    
   168   85   87 1    
   169   85  206 1    
   170   86  207 1    
   171   86  208 1    
   172   86  209 1    
   173   87   88 2    
   174   87   89 am   BACKBONE|DICT|INTERRES
   175   89   90 1    
   176   89  210 1    
   177   90   91 1    
   178   90   92 1    
   179   90  211 1    
   180   91  212 1    
   181   91  213 1    
   182   91  214 1    
   183   92   93 2    
   184   92   94 am   BACKBONE|DICT|INTERRES
   185   94   95 1    
   186   94  215 1    
   187   95   96 1    
   188   95   97 1    
   189   95  216 1    
   190   96  217 1    
   191   96  218 1    
   192   96  219 1    
   193   97   98 2    
   194   97   99 am   BACKBONE|DICT|INTERRES
   195   99  100 1    
   196   99  220 1    
   197  100  101 1    
   198  100  102 1    
   199  100  221 1    
   200  101  222 1    
   201  101  223 1    
   202  101  224 1    
   203  102  103 2    
   204  102  104 am   BACKBONE|DICT|INTERRES
   205  104  105 1    
   206  104  225 1    
   207  105  106 1    
   208  105  107 1    
   209  105  226 1    
   210  106  227 1    
   211  106  228 1    
   212  106  229 1    
   213  107  108 2    
   214  107  109 am   BACKBONE|DICT|INTERRES
   215  109  110 1    
   216  109  230 1    
   217  110  111 1    
   218  110  112 1    
   219  110  231 1    
   220  111  232 1    
   221  111  233 1    
   222  111  234 1    
   223  112  113 2    
   224  112  114 am   BACKBONE|DICT|INTERRES
   225  114  115 1    
   226  114  235 1    
   227  115  116 1    
   228  115  117 1    
   229  115  236 1    
   230  116  237 1    
   231  116  238 1    
   232  116  239 1    
   233  117  118 2    
   234  117  119 am   BACKBONE|DICT|INTERRES
   235  119  120 1    
   236  119  240 1    
   237  120  121 1    
   238  120  124 1    
   239  120  241 1    
   240  121  122 am   BACKBONE|DICT|INTERRES
   241  121  123 2    
   242  122  242 1    
   243  122  243 1    
   244  124  125 1    
   245  124  244 1    
   246  124  245 1    
   247  125  126 1    
   248  126  246 1    
   249  126  247 1    
@<TRIPOS>SUBSTRUCTURE
     1 UNK         1 GROUP             0       ****    0 ROOT    
