@<TRIPOS>MOLECULE
3R540
247   249    1
SMALL
USER_CHARGES


@<TRIPOS>ATOM
      1 CA          3.1246  -12.8111  -52.8104 C.3       0 UNK        -0.1800 
      2 C           2.6526  -13.3209  -51.4562 C.2       0 UNK         0.5000 
      3 O           3.1939  -14.3041  -50.9517 O.2       0 UNK        -0.5000 
      4 N           1.6416  -12.6616  -50.8752 N.am      1 UNK        -0.5000 
      5 CA          1.0664  -12.9967  -49.5673 C.3       1 UNK         0.1400 
      6 C6         -0.3222  -12.3348  -49.3800 C.3       23 UNK        -0.0398 
      7 S7         -1.4020  -13.2224  -48.2055 S.3       23 UNK        -0.2404 
      8 C8         -2.5085  -14.1473  -49.3195 C.3       23 UNK        -0.0205 
      9 C9         -1.9127  -15.4885  -49.7188 C.ar      23 UNK        -0.0193 
     10 C10        -1.0255  -15.5828  -50.7935 C.ar      23 UNK        -0.1150 
     11 C11        -0.4582  -16.8128  -51.1359 C.ar      23 UNK        -0.0193 
     12 C12        -0.8191  -17.9607  -50.4232 C.ar      23 UNK        -0.1150 
     13 C13        -1.7287  -17.8888  -49.3597 C.ar      23 UNK        -0.0193 
     14 C14        -2.2536  -16.6418  -49.0080 C.ar      23 UNK        -0.1150 
     15 C15        -2.1898  -19.1093  -48.5612 C.3       23 UNK        -0.0205 
     16 S16        -1.3283  -20.6801  -48.9109 S.3       23 UNK        -0.2404 
     17 C17        -2.1352  -21.7710  -47.6946 C.3       23 UNK        -0.0398 
     18 CA         -1.1996  -22.9022  -47.2073 C.3       11 UNK         0.1400 
     19 N          -0.1018  -22.4277  -46.3616 N.am      11 UNK        -0.5000 
     20 C           0.9191  -23.1879  -45.9406 C.2       10 UNK         0.5000 
     21 O           1.0673  -24.3674  -46.2591 O.2       10 UNK        -0.5000 
     22 CA          1.9112  -22.5456  -44.9550 C.3       10 UNK         0.1400 
     23 CB          2.9131  -21.6406  -45.6873 C.3       10 UNK        -0.1800 
     24 N           1.2396  -21.7938  -43.8943 N.am      10 UNK        -0.5000 
     25 C           0.4327  -22.3406  -42.9735 C.2       9 UNK         0.5000 
     26 O           0.2053  -23.5487  -42.8960 O.2       9 UNK        -0.5000 
     27 CA         -0.2727  -21.3737  -42.0031 C.3       9 UNK         0.1400 
     28 CB          0.6708  -20.9428  -40.8704 C.3       9 UNK        -0.1800 
     29 N          -0.8098  -20.1892  -42.6745 N.am      9 UNK        -0.5000 
     30 C          -1.7770  -20.2219  -43.6027 C.2       8 UNK         0.5000 
     31 O          -2.3512  -21.2504  -43.9595 O.2       8 UNK        -0.5000 
     32 CA         -2.1248  -18.8916  -44.2932 C.3       8 UNK         0.1400 
     33 CB         -3.0488  -18.0414  -43.4095 C.3       8 UNK        -0.1800 
     34 N          -0.9412  -18.1164  -44.6705 N.am      8 UNK        -0.5000 
     35 C           0.0292  -18.5556  -45.4854 C.2       7 UNK         0.5000 
     36 O           0.0131  -19.6569  -46.0277 O.2       7 UNK        -0.5000 
     37 CA          1.2544  -17.6495  -45.6787 C.3       7 UNK         0.1400 
     38 CB          0.9482  -16.5082  -46.6557 C.3       7 UNK        -0.1800 
     39 N           1.7539  -17.1189  -44.4104 N.am      7 UNK        -0.5000 
     40 C           2.2293  -17.8805  -43.4133 C.2       6 UNK         0.5000 
     41 O           2.3643  -19.1018  -43.4875 O.2       6 UNK        -0.5000 
     42 CA          2.5542  -17.1670  -42.0918 C.3       6 UNK         0.1400 
     43 CB          3.9587  -16.5458  -42.1270 C.3       6 UNK        -0.1800 
     44 N           1.5607  -16.1396  -41.7827 N.am      6 UNK        -0.5000 
     45 C           0.3119  -16.4031  -41.3725 C.2       5 UNK         0.5000 
     46 O          -0.1150  -17.5410  -41.1719 O.2       5 UNK        -0.5000 
     47 CA         -0.6251  -15.1939  -41.1889 C.3       5 UNK         0.1400 
     48 CB         -0.4262  -14.5607  -39.8039 C.3       5 UNK        -0.1800 
     49 N          -0.4411  -14.1707  -42.2205 N.am      5 UNK        -0.5000 
     50 C          -0.7447  -14.3440  -43.5143 C.2       4 UNK         0.5000 
     51 O          -1.2459  -15.3736  -43.9619 O.2       4 UNK        -0.5000 
     52 CA         -0.3973  -13.1963  -44.4800 C.3       4 UNK         0.1400 
     53 CB         -1.5736  -12.2164  -44.5972 C.3       4 UNK        -0.1800 
     54 N           0.8187  -12.4514  -44.1433 N.am      4 UNK        -0.5000 
     55 C           2.0381  -12.9839  -43.9920 C.2       3 UNK         0.5000 
     56 O           2.2635  -14.1958  -43.9908 O.2       3 UNK        -0.5000 
     57 CA          3.2036  -11.9859  -43.8667 C.3       3 UNK         0.1400 
     58 CB          4.3306  -12.5266  -42.9697 C.3       3 UNK        -0.1800 
     59 N           3.7426  -11.7121  -45.1959 N.am      3 UNK        -0.5000 
     60 C           3.1582  -10.9345  -46.1171 C.2       2 UNK         0.5000 
     61 O           2.1918  -10.2066  -45.8798 O.2       2 UNK        -0.5000 
     62 CA          3.7159  -10.9968  -47.5577 C.3       2 UNK         0.1400 
     63 CB          5.0341  -11.7925  -47.6930 C.3       2 UNK        -0.1800 
     64 N           2.7224  -11.5129  -48.5086 N.am      2 UNK        -0.5000 
     65 C           2.0323  -12.6629  -48.4105 C.2       1 UNK         0.5000 
     66 O           2.1565  -13.4605  -47.4834 O.2       1 UNK        -0.5000 
     67 C          -2.0100  -24.0143  -46.5176 C.2       11 UNK         0.5000 
     68 O          -2.2913  -25.0240  -47.1591 O.2       11 UNK        -0.5000 
     69 N          -2.3293  -23.8460  -45.2260 N.am      12 UNK        -0.5000 
     70 CA         -3.0289  -24.8463  -44.4166 C.3       12 UNK         0.1400 
     71 CB         -3.3556  -24.2639  -43.0334 C.3       12 UNK        -0.1800 
     72 C          -2.2478  -26.1675  -44.2872 C.2       12 UNK         0.5000 
     73 O          -2.8471  -27.2365  -44.4068 O.2       12 UNK        -0.5000 
     74 N          -0.9245  -26.0725  -44.0944 N.am      13 UNK        -0.5000 
     75 CA         -0.0091  -27.2149  -44.0576 C.3       13 UNK         0.1400 
     76 CB          1.3643  -26.7516  -43.5485 C.3       13 UNK        -0.1800 
     77 C           0.1213  -27.9252  -45.4201 C.2       13 UNK         0.5000 
     78 O           0.1812  -29.1546  -45.4611 O.2       13 UNK        -0.5000 
     79 N           0.1445  -27.1439  -46.5080 N.am      14 UNK        -0.5000 
     80 CA          0.2253  -27.6256  -47.8896 C.3       14 UNK         0.1400 
     81 CB          0.7202  -26.4748  -48.7809 C.3       14 UNK        -0.1800 
     82 C          -1.1033  -28.1850  -48.4402 C.2       14 UNK         0.5000 
     83 O          -1.0878  -28.8228  -49.4938 O.2       14 UNK        -0.5000 
     84 N          -2.2184  -27.9138  -47.7459 N.am      15 UNK        -0.5000 
     85 CA         -3.6081  -28.1593  -48.1516 C.3       15 UNK         0.1400 
     86 CB         -3.8952  -29.6672  -48.3098 C.3       15 UNK        -0.1800 
     87 C          -4.0172  -27.3194  -49.3836 C.2       15 UNK         0.5000 
     88 O          -4.7621  -27.7894  -50.2461 O.2       15 UNK        -0.5000 
     89 N          -3.5151  -26.0817  -49.4280 N.am      16 UNK        -0.5000 
     90 CA         -3.8232  -25.0444  -50.4068 C.3       16 UNK         0.1400 
     91 CB         -2.4964  -24.3865  -50.8245 C.3       16 UNK        -0.1800 
     92 C          -4.7863  -24.0120  -49.7877 C.2       16 UNK         0.5000 
     93 O          -5.1573  -24.1330  -48.6167 O.2       16 UNK        -0.5000 
     94 N          -5.1694  -23.0004  -50.5741 N.am      17 UNK        -0.5000 
     95 CA         -6.0303  -21.9025  -50.1448 C.3       17 UNK         0.1400 
     96 CB         -7.4898  -22.2165  -50.5124 C.3       17 UNK        -0.1800 
     97 C          -5.5663  -20.5945  -50.7967 C.2       17 UNK         0.5000 
     98 O          -5.0830  -20.6094  -51.9334 O.2       17 UNK        -0.5000 
     99 N          -5.7502  -19.4864  -50.0671 N.am      18 UNK        -0.5000 
    100 CA        -5.4516  -18.1229  -50.5053 C.3       18 UNK         0.1400 
    101 CB        -5.7010  -17.1592  -49.3352 C.3       18 UNK        -0.1800 
    102 C         -6.3029  -17.7172  -51.7198 C.2       18 UNK         0.5000 
    103 O         -7.4642  -18.1212  -51.8115 O.2       18 UNK        -0.5000 
    104 N         -5.6985  -16.9538  -52.6396 N.am      19 UNK        -0.5000 
    105 CA        -6.2331  -16.4768  -53.9261 C.3       19 UNK         0.1400 
    106 CB        -7.4827  -15.5974  -53.7267 C.3       19 UNK        -0.1800 
    107 C         -6.4889  -17.5809  -54.9765 C.2       19 UNK         0.5000 
    108 O         -6.4001  -17.2978  -56.1704 O.2       19 UNK        -0.5000 
    109 N         -6.7725  -18.8123  -54.5355 N.am      20 UNK        -0.5000 
    110 CA        -6.9028  -19.9994  -55.3757 C.3       20 UNK         0.1400 
    111 CB        -7.6634  -21.0895  -54.6051 C.3       20 UNK        -0.1800 
    112 C         -5.5269  -20.5081  -55.8366 C.2       20 UNK         0.5000 
    113 O         -5.3357  -20.7488  -57.0291 O.2       20 UNK        -0.5000 
    114 N         -4.5907  -20.6469  -54.8864 N.am      21 UNK        -0.5000 
    115 CA        -3.2164  -21.0799  -55.1499 C.3       21 UNK         0.1400 
    116 CB        -2.6381  -21.7014  -53.8706 C.3       21 UNK        -0.1800 
    117 C         -2.3111  -19.9378  -55.6480 C.2       21 UNK         0.5000 
    118 O         -1.3121  -20.2106  -56.3154 O.2       21 UNK        -0.5000 
    119 N         -2.6702  -18.6948  -55.3082 N.am      22 UNK        -0.5000 
    120 CA        -1.9340  -17.4668  -55.6369 C.3       22 UNK         0.1400 
    121 C         -2.8532  -16.5116  -56.4478 C.2       22 UNK         0.5000 
    122 N         -3.0961  -15.2823  -56.0083 N.am      22 UNK        -0.7600 
    123 O         -3.3205  -16.8721  -57.5248 O.2       22 UNK        -0.5000 
    124 C124       -1.2754  -16.8325  -54.3793 C.3       23 UNK        -0.0398 
    125 S125       -0.0010  -17.9135  -53.6501 S.3       23 UNK        -0.2404 
    126 C126        0.5720  -16.8993  -52.2528 C.3       23 UNK        -0.0205 
    127 H127        2.5546  -11.9417  -53.1387 H         1 UNK         0.0600 
    128 H128        3.0166  -13.5923  -53.5630 H         1 UNK         0.0600 
    129 H129        4.1761  -12.5287  -52.7588 H         1 UNK         0.0600 
    130 H130        1.2417  -11.8622  -51.3458 H         1 UNK         0.3000 
    131 H131        0.9296  -14.0798  -49.5530 H         1 UNK         0.0600 
    132 H132       -0.2235  -11.2998  -49.0474 H         1 UNK         0.0800 
    133 H133       -0.8410  -12.2774  -50.3374 H         1 UNK         0.0800 
    134 H134       -3.4573  -14.3058  -48.8047 H         1 UNK         0.0800 
    135 H135       -2.7482  -13.5573  -50.2050 H         1 UNK         0.0800 
    136 H136       -0.7555  -14.6933  -51.3446 H         1 UNK         0.1150 
    137 H137       -0.3823  -18.9049  -50.7123 H         1 UNK         0.1150 
    138 H138       -2.9375  -16.5672  -48.1744 H         1 UNK         0.1150 
    139 H139       -2.0849  -18.8832  -47.5016 H         1 UNK         0.0800 
    140 H140       -3.2540  -19.2589  -48.7395 H         1 UNK         0.0800 
    141 H141       -3.0261  -22.1780  -48.1753 H         1 UNK         0.0800 
    142 H142       -2.4879  -21.1850  -46.8445 H         1 UNK         0.0800 
    143 H143       -0.7383  -23.3553  -48.0865 H         1 UNK         0.0600 
    144 H144       -0.1182  -21.4407  -46.1072 H         1 UNK         0.3000 
    145 H145        2.4736  -23.3529  -44.4812 H         1 UNK         0.0600 
    146 H146        3.6550  -21.2365  -44.9984 H         1 UNK         0.0600 
    147 H147        3.4504  -22.1971  -46.4561 H         1 UNK         0.0600 
    148 H148        2.4195  -20.8008  -46.1757 H         1 UNK         0.0600 
    149 H149        1.4039  -20.7918  -43.8721 H         1 UNK         0.3000 
    150 H150       -1.1123  -21.9099  -41.5561 H         1 UNK         0.0600 
    151 H151        1.0589  -21.8101  -40.3350 H         1 UNK         0.0600 
    152 H152        0.1532  -20.3160  -40.1440 H         1 UNK         0.0600 
    153 H153        1.5251  -20.3801  -41.2470 H         1 UNK         0.0600 
    154 H154       -0.4056  -19.2954  -42.4198 H         1 UNK         0.3000 
    155 H155       -2.6672  -19.1318  -45.2089 H         1 UNK         0.0600 
    156 H156       -2.5483  -17.7178  -42.4967 H         1 UNK         0.0600 
    157 H157       -3.3883  -17.1508  -43.9385 H         1 UNK         0.0600 
    158 H158       -3.9367  -18.6032  -43.1171 H         1 UNK         0.0600 
    159 H159       -0.8837  -17.1707  -44.2999 H         1 UNK         0.3000 
    160 H160        2.0486  -18.2575  -46.1167 H         1 UNK         0.0600 
    161 H161        1.8447  -15.9232  -46.8532 H         1 UNK         0.0600 
    162 H162        0.1811  -15.8357  -46.2737 H         1 UNK         0.0600 
    163 H163        0.5964  -16.8949  -47.6131 H         1 UNK         0.0600 
    164 H164        1.7178  -16.1127  -44.2795 H         1 UNK         0.3000 
    165 H165        2.5368  -17.9131  -41.2943 H         1 UNK         0.0600 
    166 H166        4.1943  -16.0472  -41.1868 H         1 UNK         0.0600 
    167 H167        4.7167  -17.3134  -42.2874 H         1 UNK         0.0600 
    168 H168        4.0613  -15.8156  -42.9294 H         1 UNK         0.0600 
    169 H169        1.8081  -15.1882  -42.0182 H         1 UNK         0.3000 
    170 H170       -1.6527  -15.5584  -41.2522 H         1 UNK         0.0600 
    171 H171        0.5782  -14.1520  -39.6868 H         1 UNK         0.0600 
    172 H172       -1.1395  -13.7542  -39.6330 H         1 UNK         0.0600 
    173 H173       -0.5752  -15.2976  -39.0135 H         1 UNK         0.0600 
    174 H174       -0.0283  -13.2951  -41.9345 H         1 UNK         0.3000 
    175 H175       -0.2295  -13.6424  -45.4614 H         1 UNK         0.0600 
    176 H176       -1.3830  -11.4623  -45.3612 H         1 UNK         0.0600 
    177 H177       -1.7656  -11.7021  -43.6549 H         1 UNK         0.0600 
    178 H178       -2.4886  -12.7381  -44.8816 H         1 UNK         0.0600 
    179 H179        0.7454  -11.4441  -44.1809 H         1 UNK         0.3000 
    180 H180        2.8323  -11.0593  -43.4237 H         1 UNK         0.0600 
    181 H181        4.7876  -13.4247  -43.3869 H         1 UNK         0.0600 
    182 H182        3.9527  -12.7805  -41.9785 H         1 UNK         0.0600 
    183 H183        5.1173  -11.7836  -42.8375 H         1 UNK         0.0600 
    184 H184        4.4961  -12.3122  -45.4975 H         1 UNK         0.3000 
    185 H185        3.9214   -9.9656  -47.8483 H         1 UNK         0.0600 
    186 H186        4.9050  -12.8485  -47.4523 H         1 UNK         0.0600 
    187 H187        5.4167  -11.7357  -48.7122 H         1 UNK         0.0600 
    188 H188        5.8089  -11.3897  -47.0395 H         1 UNK         0.0600 
    189 H189        2.5430  -10.9240  -49.3089 H         1 UNK         0.3000 
    190 H190       -2.1009  -22.9685  -44.7659 H         1 UNK         0.3000 
    191 H191       -3.9724  -25.0709  -44.9186 H         1 UNK         0.0600 
    192 H192       -3.9893  -23.3811  -43.1180 H         1 UNK         0.0600 
    193 H193       -3.8902  -24.9901  -42.4198 H         1 UNK         0.0600 
    194 H194       -2.4537  -23.9772  -42.4926 H         1 UNK         0.0600 
    195 H195       -0.5145  -25.1531  -43.9635 H         1 UNK         0.3000 
    196 H196       -0.4064  -27.9394  -43.3437 H         1 UNK         0.0600 
    197 H197        2.0597  -27.5892  -43.4829 H         1 UNK         0.0600 
    198 H198        1.2877  -26.3126  -42.5536 H         1 UNK         0.0600 
    199 H199        1.8090  -26.0059  -44.2079 H         1 UNK         0.0600 
    200 H200        0.1582  -26.1361  -46.3813 H         1 UNK         0.3000 
    201 H201        0.9618  -28.4305  -47.9331 H         1 UNK         0.0600 
    202 H202        1.6877  -26.1021  -48.4441 H         1 UNK         0.0600 
    203 H203        0.0201  -25.6387  -48.7799 H         1 UNK         0.0600 
    204 H204        0.8401  -26.8006  -49.8148 H         1 UNK         0.0600 
    205 H205       -2.1086  -27.3373  -46.9214 H         1 UNK         0.3000 
    206 H206       -4.2237  -27.7969  -47.3270 H         1 UNK         0.0600 
    207 H207       -3.5867  -30.2218  -47.4237 H         1 UNK         0.0600 
    208 H208       -4.9617  -29.8466  -48.4494 H         1 UNK         0.0600 
    209 H209       -3.3796  -30.0936  -49.1704 H         1 UNK         0.0600 
    210 H210       -2.9936  -25.7602  -48.6133 H         1 UNK         0.3000 
    211 H211       -4.3018  -25.4777  -51.2872 H         1 UNK         0.0600 
    212 H212       -2.0045  -23.9028  -49.9818 H         1 UNK         0.0600 
    213 H213       -2.6478  -23.6277  -51.5901 H         1 UNK         0.0600 
    214 H214       -1.8049  -25.1233  -51.2338 H         1 UNK         0.0600 
    215 H215       -4.7954  -22.9051  -51.5089 H         1 UNK         0.3000 
    216 H216       -5.9583  -21.7755  -49.0622 H         1 UNK         0.0600 
    217 H217       -8.1498  -21.3899  -50.2460 H         1 UNK         0.0600 
    218 H218       -7.8458  -23.1005  -49.9831 H         1 UNK         0.0600 
    219 H219       -7.6055  -22.3992  -51.5807 H         1 UNK         0.0600 
    220 H220       -6.2040  -19.5687  -49.1696 H         1 UNK         0.3000 
    221 H221       -4.3955  -18.0839  -50.7805 H         1 UNK         0.0600 
    222 H222       -5.3980  -16.1440  -49.5947 H         1 UNK         0.0600 
    223 H223       -5.1367  -17.4520  -48.4502 H         1 UNK         0.0600 
    224 H224       -6.7560  -17.1265  -49.0596 H         1 UNK         0.0600 
    225 H225       -4.7414  -16.6849  -52.4605 H         1 UNK         0.3000 
    226 H226       -5.4537  -15.8377  -54.3435 H         1 UNK         0.0600 
    227 H227       -7.2888  -14.7902  -53.0205 H         1 UNK         0.0600 
    228 H228       -7.7872  -15.1390  -54.6683 H         1 UNK         0.0600 
    229 H229       -8.3332  -16.1709  -53.3576 H         1 UNK         0.0600 
    230 H230       -6.8964  -18.9358  -53.5367 H         1 UNK         0.3000 
    231 H231       -7.4858  -19.7400  -56.2620 H         1 UNK         0.0600 
    232 H232       -7.1335  -21.3879  -53.7006 H         1 UNK         0.0600 
    233 H233       -7.7943  -21.9816  -55.2187 H         1 UNK         0.0600 
    234 H234       -8.6560  -20.7461  -54.3130 H         1 UNK         0.0600 
    235 H235       -4.8329  -20.4742  -53.9149 H         1 UNK         0.3000 
    236 H236       -3.2294  -21.8529  -55.9215 H         1 UNK         0.0600 
    237 H237       -3.2522  -22.5374  -53.5386 H         1 UNK         0.0600 
    238 H238       -1.6301  -22.0821  -54.0397 H         1 UNK         0.0600 
    239 H239       -2.5833  -20.9764  -53.0571 H         1 UNK         0.0600 
    240 H240       -3.5360  -18.5749  -54.8062 H         1 UNK         0.3000 
    241 H241       -1.1238  -17.7034  -56.3291 H         1 UNK         0.0600 
    242 H242       -2.7024  -14.9275  -55.1522 H         1 UNK         0.3800 
    243 H243       -3.6759  -14.6782  -56.5700 H         1 UNK         0.3800 
    244 H244       -0.7913  -15.8887  -54.6350 H         1 UNK         0.0800 
    245 H245       -2.0277  -16.6108  -53.6209 H         1 UNK         0.0800 
    246 H246        0.8477  -15.9067  -52.6125 H         1 UNK         0.0800 
    247 H247        1.4855  -17.3398  -51.8511 H         1 UNK         0.0800 
@<TRIPOS>BOND
     1    1    2 1    
     2    1  127 1    
     3    1  128 1    
     4    1  129 1    
     5    2    3 2    
     6    2    4 am   BACKBONE|DICT|INTERRES
     7    4    5 1    
     8    4  130 1    
     9    5    6 1    
    10    5   65 1    
    11    5  131 1    
    12    6    7 1    
    13    6  132 1    
    14    6  133 1    
    15    7    8 1    
    16    8    9 1    
    17    8  134 1    
    18    8  135 1    
    19    9   10 ar   
    20    9   14 ar   
    21   10   11 ar   
    22   10  136 1    
    23   11   12 ar   
    24   11  126 1    
    25   12   13 ar   
    26   12  137 1    
    27   13   14 ar   
    28   13   15 1    
    29   14  138 1    
    30   15   16 1    
    31   15  139 1    
    32   15  140 1    
    33   16   17 1    
    34   17   18 1    
    35   17  141 1    
    36   17  142 1    
    37   18   19 1    
    38   18   67 1    
    39   18  143 1    
    40   19   20 am   BACKBONE|DICT|INTERRES
    41   19  144 1    
    42   20   21 2    
    43   20   22 1    
    44   22   23 1    
    45   22   24 1    
    46   22  145 1    
    47   23  146 1    
    48   23  147 1    
    49   23  148 1    
    50   24   25 am   BACKBONE|DICT|INTERRES
    51   24  149 1    
    52   25   26 2    
    53   25   27 1    
    54   27   28 1    
    55   27   29 1    
    56   27  150 1    
    57   28  151 1    
    58   28  152 1    
    59   28  153 1    
    60   29   30 am   BACKBONE|DICT|INTERRES
    61   29  154 1    
    62   30   31 2    
    63   30   32 1    
    64   32   33 1    
    65   32   34 1    
    66   32  155 1    
    67   33  156 1    
    68   33  157 1    
    69   33  158 1    
    70   34   35 am   BACKBONE|DICT|INTERRES
    71   34  159 1    
    72   35   36 2    
    73   35   37 1    
    74   37   38 1    
    75   37   39 1    
    76   37  160 1    
    77   38  161 1    
    78   38  162 1    
    79   38  163 1    
    80   39   40 am   BACKBONE|DICT|INTERRES
    81   39  164 1    
    82   40   41 2    
    83   40   42 1    
    84   42   43 1    
    85   42   44 1    
    86   42  165 1    
    87   43  166 1    
    88   43  167 1    
    89   43  168 1    
    90   44   45 am   BACKBONE|DICT|INTERRES
    91   44  169 1    
    92   45   46 2    
    93   45   47 1    
    94   47   48 1    
    95   47   49 1    
    96   47  170 1    
    97   48  171 1    
    98   48  172 1    
    99   48  173 1    
   100   49   50 am   BACKBONE|DICT|INTERRES
   101   49  174 1    
   102   50   51 2    
   103   50   52 1    
   104   52   53 1    
   105   52   54 1    
   106   52  175 1    
   107   53  176 1    
   108   53  177 1    
   109   53  178 1    
   110   54   55 am   BACKBONE|DICT|INTERRES
   111   54  179 1    
   112   55   56 2    
   113   55   57 1    
   114   57   58 1    
   115   57   59 1    
   116   57  180 1    
   117   58  181 1    
   118   58  182 1    
   119   58  183 1    
   120   59   60 am   BACKBONE|DICT|INTERRES
   121   59  184 1    
   122   60   61 2    
   123   60   62 1    
   124   62   63 1    
   125   62   64 1    
   126   62  185 1    
   127   63  186 1    
   128   63  187 1    
   129   63  188 1    
   130   64   65 am   BACKBONE|DICT|INTERRES
   131   64  189 1    
   132   65   66 2    
   133   67   68 2    
   134   67   69 am   BACKBONE|DICT|INTERRES
   135   69   70 1    
   136   69  190 1    
   137   70   71 1    
   138   70   72 1    
   139   70  191 1    
   140   71  192 1    
   141   71  193 1    
   142   71  194 1    
   143   72   73 2    
   144   72   74 am   BACKBONE|DICT|INTERRES
   145   74   75 1    
   146   74  195 1    
   147   75   76 1    
   148   75   77 1    
   149   75  196 1    
   150   76  197 1    
   151   76  198 1    
   152   76  199 1    
   153   77   78 2    
   154   77   79 am   BACKBONE|DICT|INTERRES
   155   79   80 1    
   156   79  200 1    
   157   80   81 1    
   158   80   82 1    
   159   80  201 1    
   160   81  202 1    
   161   81  203 1    
   162   81  204 1    
   163   82   83 2    
   164   82   84 am   BACKBONE|DICT|INTERRES
   165   84   85 1    
   166   84  205 1    
   167   85   86 1    
   168   85   87 1    
   169   85  206 1    
   170   86  207 1    
   171   86  208 1    
   172   86  209 1    
   173   87   88 2    
   174   87   89 am   BACKBONE|DICT|INTERRES
   175   89   90 1    
   176   89  210 1    
   177   90   91 1    
   178   90   92 1    
   179   90  211 1    
   180   91  212 1    
   181   91  213 1    
   182   91  214 1    
   183   92   93 2    
   184   92   94 am   BACKBONE|DICT|INTERRES
   185   94   95 1    
   186   94  215 1    
   187   95   96 1    
   188   95   97 1    
   189   95  216 1    
   190   96  217 1    
   191   96  218 1    
   192   96  219 1    
   193   97   98 2    
   194   97   99 am   BACKBONE|DICT|INTERRES
   195   99  100 1    
   196   99  220 1    
   197  100  101 1    
   198  100  102 1    
   199  100  221 1    
   200  101  222 1    
   201  101  223 1    
   202  101  224 1    
   203  102  103 2    
   204  102  104 am   BACKBONE|DICT|INTERRES
   205  104  105 1    
   206  104  225 1    
   207  105  106 1    
   208  105  107 1    
   209  105  226 1    
   210  106  227 1    
   211  106  228 1    
   212  106  229 1    
   213  107  108 2    
   214  107  109 am   BACKBONE|DICT|INTERRES
   215  109  110 1    
   216  109  230 1    
   217  110  111 1    
   218  110  112 1    
   219  110  231 1    
   220  111  232 1    
   221  111  233 1    
   222  111  234 1    
   223  112  113 2    
   224  112  114 am   BACKBONE|DICT|INTERRES
   225  114  115 1    
   226  114  235 1    
   227  115  116 1    
   228  115  117 1    
   229  115  236 1    
   230  116  237 1    
   231  116  238 1    
   232  116  239 1    
   233  117  118 2    
   234  117  119 am   BACKBONE|DICT|INTERRES
   235  119  120 1    
   236  119  240 1    
   237  120  121 1    
   238  120  124 1    
   239  120  241 1    
   240  121  122 am   BACKBONE|DICT|INTERRES
   241  121  123 2    
   242  122  242 1    
   243  122  243 1    
   244  124  125 1    
   245  124  244 1    
   246  124  245 1    
   247  125  126 1    
   248  126  246 1    
   249  126  247 1    
@<TRIPOS>SUBSTRUCTURE
     1 UNK         1 GROUP             0       ****    0 ROOT    
