@<TRIPOS>MOLECULE
3R540
247   249    1
SMALL
USER_CHARGES


@<TRIPOS>ATOM
      1 CA          6.0431  -11.7257  -45.5582 C.3       0 UNK        -0.1800 
      2 C           5.1646  -12.8624  -46.0600 C.2       0 UNK         0.5000 
      3 O           5.3299  -14.0017  -45.6267 O.2       0 UNK        -0.5000 
      4 N           4.2450  -12.5644  -46.9878 N.am      1 UNK        -0.5000 
      5 CA          3.2470  -13.4589  -47.6008 C.3       1 UNK         0.1400 
      6 C6          2.3105  -14.1368  -46.5611 C.3       23 UNK        -0.0398 
      7 S7          0.5490  -14.0358  -47.0243 S.3       23 UNK        -0.2404 
      8 C8          0.1817  -15.7541  -47.4845 C.3       23 UNK        -0.0205 
      9 C9         -1.2207  -15.8741  -48.0629 C.ar      23 UNK        -0.0193 
     10 C10        -1.4107  -15.8908  -49.4477 C.ar      23 UNK        -0.1150 
     11 C11        -2.6947  -16.0137  -49.9872 C.ar      23 UNK        -0.0193 
     12 C12        -3.7883  -16.1492  -49.1276 C.ar      23 UNK        -0.1150 
     13 C13        -3.6169  -16.1429  -47.7397 C.ar      23 UNK        -0.0193 
     14 C14        -2.3300  -15.9700  -47.2161 C.ar      23 UNK        -0.1150 
     15 C15        -4.8419  -16.2939  -46.8368 C.3       23 UNK        -0.0205 
     16 S16        -4.6128  -17.3801  -45.3825 S.3       23 UNK        -0.2404 
     17 C17        -3.9597  -18.9192  -46.1103 C.3       23 UNK        -0.0398 
     18 CA         -2.4688  -19.1168  -45.7272 C.3       11 UNK         0.1400 
     19 N          -2.2419  -19.4015  -44.3091 N.am      11 UNK        -0.5000 
     20 C          -2.6807  -20.4481  -43.5982 C.2       10 UNK         0.5000 
     21 O          -3.4594  -21.3005  -44.0252 O.2       10 UNK        -0.5000 
     22 CA         -2.1575  -20.5633  -42.1586 C.3       10 UNK         0.1400 
     23 CB         -0.7507  -21.1819  -42.1518 C.3       10 UNK        -0.1800 
     24 N          -2.1181  -19.2598  -41.4910 N.am      10 UNK        -0.5000 
     25 C          -2.7165  -18.9846  -40.3231 C.2       9 UNK         0.5000 
     26 O          -3.3379  -19.8164  -39.6602 O.2       9 UNK        -0.5000 
     27 CA         -2.6115  -17.5403  -39.7902 C.3       9 UNK         0.1400 
     28 CB         -1.5596  -17.4513  -38.6748 C.3       9 UNK        -0.1800 
     29 N          -2.2964  -16.5607  -40.8315 N.am      9 UNK        -0.5000 
     30 C          -3.1655  -16.1552  -41.7691 C.2       8 UNK         0.5000 
     31 O          -4.3436  -16.5118  -41.7932 O.2       8 UNK        -0.5000 
     32 CA         -2.6497  -15.2004  -42.8671 C.3       8 UNK         0.1400 
     33 CB         -3.2379  -13.7934  -42.6810 C.3       8 UNK        -0.1800 
     34 N          -1.1926  -15.0880  -42.9657 N.am      8 UNK        -0.5000 
     35 C          -0.3421  -16.0763  -43.2690 C.2       7 UNK         0.5000 
     36 O          -0.6913  -17.2453  -43.4500 O.2       7 UNK        -0.5000 
     37 CA          1.1524  -15.7125  -43.3730 C.3       7 UNK         0.1400 
     38 CB          1.4917  -14.2627  -42.9580 C.3       7 UNK        -0.1800 
     39 N           1.9928  -16.6614  -42.6453 N.am      7 UNK        -0.5000 
     40 C           1.9333  -16.9599  -41.3379 C.2       6 UNK         0.5000 
     41 O           1.1432  -16.4305  -40.5552 O.2       6 UNK        -0.5000 
     42 CA          2.9034  -18.0389  -40.8106 C.3       6 UNK         0.1400 
     43 CB          2.1282  -19.2628  -40.2989 C.3       6 UNK        -0.1800 
     44 N           3.8640  -18.4880  -41.8206 N.am      6 UNK        -0.5000 
     45 C           4.9844  -17.8373  -42.1619 C.2       5 UNK         0.5000 
     46 O           5.3845  -16.8193  -41.5971 O.2       5 UNK        -0.5000 
     47 CA          5.7727  -18.4089  -43.3568 C.3       5 UNK         0.1400 
     48 CB          6.8961  -19.3353  -42.8669 C.3       5 UNK        -0.1800 
     49 N           4.9327  -19.1376  -44.3156 N.am      5 UNK        -0.5000 
     50 C           4.0112  -18.5669  -45.1019 C.2       4 UNK         0.5000 
     51 O           3.7422  -17.3644  -45.0861 O.2       4 UNK        -0.5000 
     52 CA          3.2414  -19.4859  -46.0531 C.3       4 UNK         0.1400 
     53 CB          1.7858  -19.6654  -45.5930 C.3       4 UNK        -0.1800 
     54 N           3.2905  -18.8802  -47.3756 N.am      4 UNK        -0.5000 
     55 C           3.1410  -19.5226  -48.5383 C.2       3 UNK         0.5000 
     56 O           2.7898  -20.7008  -48.6244 O.2       3 UNK        -0.5000 
     57 CA          3.4173  -18.7199  -49.8267 C.3       3 UNK         0.1400 
     58 CB          2.1156  -18.4419  -50.5903 C.3       3 UNK        -0.1800 
     59 N           4.1011  -17.4463  -49.5921 N.am      3 UNK        -0.5000 
     60 C           5.3962  -17.3057  -49.2896 C.2       2 UNK         0.5000 
     61 O           6.1671  -18.2558  -49.1524 O.2       2 UNK        -0.5000 
     62 CA          5.9244  -15.8718  -49.0919 C.3       2 UNK         0.1400 
     63 CB          6.3023  -15.2328  -50.4412 C.3       2 UNK        -0.1800 
     64 N           5.0528  -14.9834  -48.3100 N.am      2 UNK        -0.5000 
     65 C           3.8422  -14.4834  -48.5959 C.2       1 UNK         0.5000 
     66 O           3.2007  -14.7862  -49.6025 O.2       1 UNK        -0.5000 
     67 C          -1.7193  -20.0823  -46.6682 C.2       11 UNK         0.5000 
     68 O          -1.2293  -21.1267  -46.2367 O.2       11 UNK        -0.5000 
     69 N          -1.5912  -19.6506  -47.9323 N.am      12 UNK        -0.5000 
     70 CA         -0.7550  -20.2069  -48.9986 C.3       12 UNK         0.1400 
     71 CB         -1.1929  -19.5807  -50.3279 C.3       12 UNK        -0.1800 
     72 C          -0.7567  -21.7404  -49.1094 C.2       12 UNK         0.5000 
     73 O          -1.7420  -22.3163  -49.5769 O.2       12 UNK        -0.5000 
     74 N           0.3531  -22.3683  -48.7006 N.am      13 UNK        -0.5000 
     75 CA          0.5298  -23.8212  -48.6731 C.3       13 UNK         0.1400 
     76 CB          1.8311  -24.1581  -47.9310 C.3       13 UNK        -0.1800 
     77 C           0.5243  -24.4433  -50.0794 C.2       13 UNK         0.5000 
     78 O          -0.0583  -25.5100  -50.2753 O.2       13 UNK        -0.5000 
     79 N           1.1101  -23.7225  -51.0457 N.am      14 UNK        -0.5000 
     80 CA          1.1319  -24.0695  -52.4695 C.3       14 UNK         0.1400 
     81 CB          2.0902  -23.1106  -53.1927 C.3       14 UNK        -0.1800 
     82 C          -0.2596  -24.0421  -53.1366 C.2       14 UNK         0.5000 
     83 O          -0.4408  -24.6674  -54.1814 O.2       14 UNK        -0.5000 
     84 N          -1.2111  -23.3322  -52.5172 N.am      15 UNK        -0.5000 
     85 CA         -2.6045  -23.2136  -52.9405 C.3       15 UNK         0.1400 
     86 CB         -2.9597  -21.7200  -52.9994 C.3       15 UNK        -0.1800 
     87 C          -3.5510  -23.9914  -52.0037 C.2       15 UNK         0.5000 
     88 O          -4.7532  -23.7208  -52.0096 O.2       15 UNK        -0.5000 
     89 N          -2.9979  -24.9272  -51.2139 N.am      16 UNK        -0.5000 
     90 CA         -3.6788  -25.8109  -50.2623 C.3       16 UNK         0.1400 
     91 CB         -4.5934  -26.8060  -51.0069 C.3       16 UNK        -0.1800 
     92 C          -4.4051  -25.0319  -49.1476 C.2       16 UNK         0.5000 
     93 O          -5.6054  -25.2104  -48.9455 O.2       16 UNK        -0.5000 
     94 N          -3.6572  -24.1488  -48.4713 N.am      17 UNK        -0.5000 
     95 CA         -4.1151  -23.1920  -47.4547 C.3       17 UNK         0.1400 
     96 CB         -4.7073  -23.9094  -46.2235 C.3       17 UNK        -0.1800 
     97 C          -5.0530  -22.1252  -48.0569 C.2       17 UNK         0.5000 
     98 O          -6.0375  -21.7314  -47.4308 O.2       17 UNK        -0.5000 
     99 N          -4.7264  -21.7040  -49.2878 N.am      18 UNK        -0.5000 
    100 CA        -5.4838  -20.7972  -50.1562 C.3       18 UNK         0.1400 
    101 CB        -5.4988  -19.3640  -49.5919 C.3       18 UNK        -0.1800 
    102 C         -6.8887  -21.3061  -50.5487 C.2       18 UNK         0.5000 
    103 O         -7.7347  -20.5029  -50.9436 O.2       18 UNK        -0.5000 
    104 N         -7.1104  -22.6287  -50.5084 N.am      19 UNK        -0.5000 
    105 CA        -8.3285  -23.2795  -51.0031 C.3       19 UNK         0.1400 
    106 CB        -8.3450  -24.7514  -50.5708 C.3       19 UNK        -0.1800 
    107 C         -8.4814  -23.1638  -52.5323 C.2       19 UNK         0.5000 
    108 O         -9.6065  -23.0892  -53.0264 O.2       19 UNK        -0.5000 
    109 N         -7.3488  -23.0917  -53.2465 N.am      20 UNK        -0.5000 
    110 CA        -7.2720  -22.7968  -54.6799 C.3       20 UNK         0.1400 
    111 CB        -5.9887  -23.4285  -55.2449 C.3       20 UNK        -0.1800 
    112 C         -7.3396  -21.2827  -54.9924 C.2       20 UNK         0.5000 
    113 O         -7.1116  -20.8936  -56.1393 O.2       20 UNK        -0.5000 
    114 N         -7.6116  -20.4486  -53.9741 N.am      21 UNK        -0.5000 
    115 CA        -7.7604  -18.9867  -54.0147 C.3       21 UNK         0.1400 
    116 CB        -8.9897  -18.5912  -54.8588 C.3       21 UNK        -0.1800 
    117 C         -6.4835  -18.2318  -54.4419 C.2       21 UNK         0.5000 
    118 O         -6.5682  -17.0746  -54.8566 O.2       21 UNK        -0.5000 
    119 N         -5.3283  -18.9027  -54.3358 N.am      22 UNK        -0.5000 
    120 CA        -4.0005  -18.4307  -54.7656 C.3       22 UNK         0.1400 
    121 C         -3.8611  -18.2357  -56.3078 C.2       22 UNK         0.5000 
    122 N         -4.7081  -18.8499  -57.1276 N.am      22 UNK        -0.7600 
    123 O         -2.9574  -17.5480  -56.7753 O.2       22 UNK        -0.5000 
    124 C124       -3.4862  -17.2178  -53.9397 C.3       23 UNK        -0.0398 
    125 S125       -3.4132  -17.5879  -52.1548 S.3       23 UNK        -0.2404 
    126 C126       -2.9083  -15.9715  -51.4945 C.3       23 UNK        -0.0205 
    127 H127        5.7902  -10.7772  -46.0327 H         1 UNK         0.0600 
    128 H128        7.0910  -11.9417  -45.7661 H         1 UNK         0.0600 
    129 H129        5.9250  -11.6093  -44.4809 H         1 UNK         0.0600 
    130 H130        4.2014  -11.6104  -47.3194 H         1 UNK         0.3000 
    131 H131        2.6464  -12.7819  -48.2105 H         1 UNK         0.0600 
    132 H132        2.3926  -13.6272  -45.6016 H         1 UNK         0.0800 
    133 H133        2.6014  -15.1697  -46.3614 H         1 UNK         0.0800 
    134 H134        0.2785  -16.3990  -46.6099 H         1 UNK         0.0800 
    135 H135        0.9201  -16.1005  -48.2093 H         1 UNK         0.0800 
    136 H136       -0.5582  -15.7956  -50.1058 H         1 UNK         0.1150 
    137 H137       -4.7789  -16.2543  -49.5479 H         1 UNK         0.1150 
    138 H138       -2.1866  -15.9239  -46.1460 H         1 UNK         0.1150 
    139 H139       -5.1358  -15.3039  -46.4865 H         1 UNK         0.0800 
    140 H140       -5.6870  -16.6788  -47.4099 H         1 UNK         0.0800 
    141 H141       -4.0897  -18.8674  -47.1888 H         1 UNK         0.0800 
    142 H142       -4.5728  -19.7586  -45.7819 H         1 UNK         0.0800 
    143 H143       -1.9525  -18.1707  -45.8674 H         1 UNK         0.0600 
    144 H144       -1.5988  -18.7488  -43.8694 H         1 UNK         0.3000 
    145 H145       -2.8279  -21.2451  -41.6313 H         1 UNK         0.0600 
    146 H146       -0.3873  -21.3223  -41.1338 H         1 UNK         0.0600 
    147 H147       -0.7530  -22.1598  -42.6351 H         1 UNK         0.0600 
    148 H148       -0.0348  -20.5559  -42.6855 H         1 UNK         0.0600 
    149 H149       -1.6511  -18.5067  -41.9808 H         1 UNK         0.3000 
    150 H150       -3.5800  -17.2799  -39.3578 H         1 UNK         0.0600 
    151 H151       -1.8173  -18.1083  -37.8431 H         1 UNK         0.0600 
    152 H152       -1.4857  -16.4385  -38.2783 H         1 UNK         0.0600 
    153 H153       -0.5730  -17.7470  -39.0290 H         1 UNK         0.0600 
    154 H154       -1.3409  -16.2311  -40.8731 H         1 UNK         0.3000 
    155 H155       -3.0063  -15.5894  -43.8204 H         1 UNK         0.0600 
    156 H156       -2.8941  -13.3342  -41.7534 H         1 UNK         0.0600 
    157 H157       -4.3279  -13.8251  -42.6479 H         1 UNK         0.0600 
    158 H158       -2.9605  -13.1369  -43.5061 H         1 UNK         0.0600 
    159 H159       -0.8098  -14.1677  -42.8047 H         1 UNK         0.3000 
    160 H160        1.4113  -15.8305  -44.4239 H         1 UNK         0.0600 
    161 H161        2.5581  -14.0678  -43.0743 H         1 UNK         0.0600 
    162 H162        1.2339  -14.0612  -41.9177 H         1 UNK         0.0600 
    163 H163        0.9671  -13.5364  -43.5799 H         1 UNK         0.0600 
    164 H164        2.6780  -17.1415  -43.2144 H         1 UNK         0.3000 
    165 H165        3.4475  -17.6044  -39.9695 H         1 UNK         0.0600 
    166 H166        2.8028  -20.0141  -39.8881 H         1 UNK         0.0600 
    167 H167        1.4331  -18.9870  -39.5058 H         1 UNK         0.0600 
    168 H168        1.5508  -19.7297  -41.0956 H         1 UNK         0.0600 
    169 H169        3.6239  -19.3243  -42.3320 H         1 UNK         0.3000 
    170 H170        6.2290  -17.5656  -43.8801 H         1 UNK         0.0600 
    171 H171        7.5556  -18.8152  -42.1708 H         1 UNK         0.0600 
    172 H172        6.5004  -20.2113  -42.3516 H         1 UNK         0.0600 
    173 H173        7.5118  -19.6822  -43.6970 H         1 UNK         0.0600 
    174 H174        5.0970  -20.1316  -44.3886 H         1 UNK         0.3000 
    175 H175        3.7328  -20.4608  -46.0856 H         1 UNK         0.0600 
    176 H176        1.2337  -18.7248  -45.6100 H         1 UNK         0.0600 
    177 H177        1.2672  -20.3736  -46.2368 H         1 UNK         0.0600 
    178 H178        1.7376  -20.0584  -44.5769 H         1 UNK         0.0600 
    179 H179        3.5841  -17.9128  -47.3856 H         1 UNK         0.3000 
    180 H180        4.0556  -19.3385  -50.4610 H         1 UNK         0.0600 
    181 H181        1.4114  -17.8649  -49.9902 H         1 UNK         0.0600 
    182 H182        1.6316  -19.3749  -50.8779 H         1 UNK         0.0600 
    183 H183        2.3068  -17.8853  -51.5079 H         1 UNK         0.0600 
    184 H184        3.5552  -16.5946  -49.7008 H         1 UNK         0.3000 
    185 H185        6.8419  -15.9604  -48.5080 H         1 UNK         0.0600 
    186 H186        5.4371  -15.1152  -51.0943 H         1 UNK         0.0600 
    187 H187        7.0290  -15.8483  -50.9729 H         1 UNK         0.0600 
    188 H188        6.7515  -14.2498  -50.2993 H         1 UNK         0.0600 
    189 H189        5.4268  -14.7117  -47.4045 H         1 UNK         0.3000 
    190 H190       -2.0368  -18.7773  -48.1742 H         1 UNK         0.3000 
    191 H191        0.2632  -19.8820  -48.7932 H         1 UNK         0.0600 
    192 H192       -0.6902  -20.0417  -51.1791 H         1 UNK         0.0600 
    193 H193       -0.9676  -18.5162  -50.3586 H         1 UNK         0.0600 
    194 H194       -2.2657  -19.6964  -50.4766 H         1 UNK         0.0600 
    195 H195        1.1460  -21.8150  -48.3895 H         1 UNK         0.3000 
    196 H196       -0.3042  -24.2512  -48.1143 H         1 UNK         0.0600 
    197 H197        1.9847  -25.2367  -47.8791 H         1 UNK         0.0600 
    198 H198        1.8073  -23.7831  -46.9075 H         1 UNK         0.0600 
    199 H199        2.7011  -23.7236  -48.4253 H         1 UNK         0.0600 
    200 H200        1.5589  -22.8564  -50.7845 H         1 UNK         0.3000 
    201 H201        1.5213  -25.0852  -52.5644 H         1 UNK         0.0600 
    202 H202        1.7579  -22.0746  -53.1140 H         1 UNK         0.0600 
    203 H203        2.1599  -23.3533  -54.2539 H         1 UNK         0.0600 
    204 H204        3.0974  -23.1731  -52.7804 H         1 UNK         0.0600 
    205 H205       -0.9849  -22.8868  -51.6378 H         1 UNK         0.3000 
    206 H206       -2.7384  -23.6328  -53.9394 H         1 UNK         0.0600 
    207 H207       -2.2964  -21.1920  -53.6838 H         1 UNK         0.0600 
    208 H208       -3.9807  -21.5595  -53.3436 H         1 UNK         0.0600 
    209 H209       -2.8645  -21.2546  -52.0211 H         1 UNK         0.0600 
    210 H210       -1.9938  -25.0485  -51.2626 H         1 UNK         0.3000 
    211 H211       -2.8985  -26.3921  -49.7684 H         1 UNK         0.0600 
    212 H212       -4.0278  -27.3898  -51.7330 H         1 UNK         0.0600 
    213 H213       -5.3979  -26.3007  -51.5409 H         1 UNK         0.0600 
    214 H214       -5.0531  -27.5101  -50.3124 H         1 UNK         0.0600 
    215 H215       -2.7089  -23.9951  -48.7930 H         1 UNK         0.3000 
    216 H216       -3.2259  -22.6599  -47.1190 H         1 UNK         0.0600 
    217 H217       -4.9065  -23.1985  -45.4210 H         1 UNK         0.0600 
    218 H218       -4.0155  -24.6543  -45.8309 H         1 UNK         0.0600 
    219 H219       -5.6486  -24.4091  -46.4522 H         1 UNK         0.0600 
    220 H220       -3.8732  -22.0809  -49.6846 H         1 UNK         0.3000 
    221 H221       -4.9326  -20.7561  -51.0943 H         1 UNK         0.0600 
    222 H222       -6.0369  -19.3021  -48.6461 H         1 UNK         0.0600 
    223 H223       -4.4837  -19.0014  -49.4370 H         1 UNK         0.0600 
    224 H224       -5.9754  -18.6706  -50.2858 H         1 UNK         0.0600 
    225 H225       -6.3593  -23.2398  -50.2137 H         1 UNK         0.3000 
    226 H226       -9.1860  -22.7818  -50.5455 H         1 UNK         0.0600 
    227 H227       -9.2582  -25.2468  -50.9025 H         1 UNK         0.0600 
    228 H228       -7.5022  -25.3010  -50.9901 H         1 UNK         0.0600 
    229 H229       -8.3010  -24.8439  -49.4855 H         1 UNK         0.0600 
    230 H230       -6.4637  -23.2102  -52.7589 H         1 UNK         0.3000 
    231 H231       -8.1217  -23.2637  -55.1819 H         1 UNK         0.0600 
    232 H232       -5.9386  -24.4931  -55.0154 H         1 UNK         0.0600 
    233 H233       -5.0945  -22.9574  -54.8401 H         1 UNK         0.0600 
    234 H234       -5.9469  -23.3299  -56.3302 H         1 UNK         0.0600 
    235 H235       -7.7639  -20.8548  -53.0589 H         1 UNK         0.3000 
    236 H236       -7.9565  -18.6757  -52.9878 H         1 UNK         0.0600 
    237 H237       -9.8808  -19.1272  -54.5319 H         1 UNK         0.0600 
    238 H238       -9.2033  -17.5257  -54.7669 H         1 UNK         0.0600 
    239 H239       -8.8394  -18.8034  -55.9177 H         1 UNK         0.0600 
    240 H240       -5.3696  -19.8485  -53.9913 H         1 UNK         0.3000 
    241 H241       -3.3226  -19.2560  -54.5537 H         1 UNK         0.0600 
    242 H242       -5.4554  -19.4278  -56.7656 H         1 UNK         0.3800 
    243 H243       -4.6080  -18.7297  -58.1232 H         1 UNK         0.3800 
    244 H244       -2.4810  -16.9367  -54.2577 H         1 UNK         0.0800 
    245 H245       -4.1163  -16.3425  -54.1017 H         1 UNK         0.0800 
    246 H246       -1.9976  -15.6468  -52.0004 H         1 UNK         0.0800 
    247 H247       -3.6745  -15.2310  -51.7288 H         1 UNK         0.0800 
@<TRIPOS>BOND
     1    1    2 1    
     2    1  127 1    
     3    1  128 1    
     4    1  129 1    
     5    2    3 2    
     6    2    4 am   BACKBONE|DICT|INTERRES
     7    4    5 1    
     8    4  130 1    
     9    5    6 1    
    10    5   65 1    
    11    5  131 1    
    12    6    7 1    
    13    6  132 1    
    14    6  133 1    
    15    7    8 1    
    16    8    9 1    
    17    8  134 1    
    18    8  135 1    
    19    9   10 ar   
    20    9   14 ar   
    21   10   11 ar   
    22   10  136 1    
    23   11   12 ar   
    24   11  126 1    
    25   12   13 ar   
    26   12  137 1    
    27   13   14 ar   
    28   13   15 1    
    29   14  138 1    
    30   15   16 1    
    31   15  139 1    
    32   15  140 1    
    33   16   17 1    
    34   17   18 1    
    35   17  141 1    
    36   17  142 1    
    37   18   19 1    
    38   18   67 1    
    39   18  143 1    
    40   19   20 am   BACKBONE|DICT|INTERRES
    41   19  144 1    
    42   20   21 2    
    43   20   22 1    
    44   22   23 1    
    45   22   24 1    
    46   22  145 1    
    47   23  146 1    
    48   23  147 1    
    49   23  148 1    
    50   24   25 am   BACKBONE|DICT|INTERRES
    51   24  149 1    
    52   25   26 2    
    53   25   27 1    
    54   27   28 1    
    55   27   29 1    
    56   27  150 1    
    57   28  151 1    
    58   28  152 1    
    59   28  153 1    
    60   29   30 am   BACKBONE|DICT|INTERRES
    61   29  154 1    
    62   30   31 2    
    63   30   32 1    
    64   32   33 1    
    65   32   34 1    
    66   32  155 1    
    67   33  156 1    
    68   33  157 1    
    69   33  158 1    
    70   34   35 am   BACKBONE|DICT|INTERRES
    71   34  159 1    
    72   35   36 2    
    73   35   37 1    
    74   37   38 1    
    75   37   39 1    
    76   37  160 1    
    77   38  161 1    
    78   38  162 1    
    79   38  163 1    
    80   39   40 am   BACKBONE|DICT|INTERRES
    81   39  164 1    
    82   40   41 2    
    83   40   42 1    
    84   42   43 1    
    85   42   44 1    
    86   42  165 1    
    87   43  166 1    
    88   43  167 1    
    89   43  168 1    
    90   44   45 am   BACKBONE|DICT|INTERRES
    91   44  169 1    
    92   45   46 2    
    93   45   47 1    
    94   47   48 1    
    95   47   49 1    
    96   47  170 1    
    97   48  171 1    
    98   48  172 1    
    99   48  173 1    
   100   49   50 am   BACKBONE|DICT|INTERRES
   101   49  174 1    
   102   50   51 2    
   103   50   52 1    
   104   52   53 1    
   105   52   54 1    
   106   52  175 1    
   107   53  176 1    
   108   53  177 1    
   109   53  178 1    
   110   54   55 am   BACKBONE|DICT|INTERRES
   111   54  179 1    
   112   55   56 2    
   113   55   57 1    
   114   57   58 1    
   115   57   59 1    
   116   57  180 1    
   117   58  181 1    
   118   58  182 1    
   119   58  183 1    
   120   59   60 am   BACKBONE|DICT|INTERRES
   121   59  184 1    
   122   60   61 2    
   123   60   62 1    
   124   62   63 1    
   125   62   64 1    
   126   62  185 1    
   127   63  186 1    
   128   63  187 1    
   129   63  188 1    
   130   64   65 am   BACKBONE|DICT|INTERRES
   131   64  189 1    
   132   65   66 2    
   133   67   68 2    
   134   67   69 am   BACKBONE|DICT|INTERRES
   135   69   70 1    
   136   69  190 1    
   137   70   71 1    
   138   70   72 1    
   139   70  191 1    
   140   71  192 1    
   141   71  193 1    
   142   71  194 1    
   143   72   73 2    
   144   72   74 am   BACKBONE|DICT|INTERRES
   145   74   75 1    
   146   74  195 1    
   147   75   76 1    
   148   75   77 1    
   149   75  196 1    
   150   76  197 1    
   151   76  198 1    
   152   76  199 1    
   153   77   78 2    
   154   77   79 am   BACKBONE|DICT|INTERRES
   155   79   80 1    
   156   79  200 1    
   157   80   81 1    
   158   80   82 1    
   159   80  201 1    
   160   81  202 1    
   161   81  203 1    
   162   81  204 1    
   163   82   83 2    
   164   82   84 am   BACKBONE|DICT|INTERRES
   165   84   85 1    
   166   84  205 1    
   167   85   86 1    
   168   85   87 1    
   169   85  206 1    
   170   86  207 1    
   171   86  208 1    
   172   86  209 1    
   173   87   88 2    
   174   87   89 am   BACKBONE|DICT|INTERRES
   175   89   90 1    
   176   89  210 1    
   177   90   91 1    
   178   90   92 1    
   179   90  211 1    
   180   91  212 1    
   181   91  213 1    
   182   91  214 1    
   183   92   93 2    
   184   92   94 am   BACKBONE|DICT|INTERRES
   185   94   95 1    
   186   94  215 1    
   187   95   96 1    
   188   95   97 1    
   189   95  216 1    
   190   96  217 1    
   191   96  218 1    
   192   96  219 1    
   193   97   98 2    
   194   97   99 am   BACKBONE|DICT|INTERRES
   195   99  100 1    
   196   99  220 1    
   197  100  101 1    
   198  100  102 1    
   199  100  221 1    
   200  101  222 1    
   201  101  223 1    
   202  101  224 1    
   203  102  103 2    
   204  102  104 am   BACKBONE|DICT|INTERRES
   205  104  105 1    
   206  104  225 1    
   207  105  106 1    
   208  105  107 1    
   209  105  226 1    
   210  106  227 1    
   211  106  228 1    
   212  106  229 1    
   213  107  108 2    
   214  107  109 am   BACKBONE|DICT|INTERRES
   215  109  110 1    
   216  109  230 1    
   217  110  111 1    
   218  110  112 1    
   219  110  231 1    
   220  111  232 1    
   221  111  233 1    
   222  111  234 1    
   223  112  113 2    
   224  112  114 am   BACKBONE|DICT|INTERRES
   225  114  115 1    
   226  114  235 1    
   227  115  116 1    
   228  115  117 1    
   229  115  236 1    
   230  116  237 1    
   231  116  238 1    
   232  116  239 1    
   233  117  118 2    
   234  117  119 am   BACKBONE|DICT|INTERRES
   235  119  120 1    
   236  119  240 1    
   237  120  121 1    
   238  120  124 1    
   239  120  241 1    
   240  121  122 am   BACKBONE|DICT|INTERRES
   241  121  123 2    
   242  122  242 1    
   243  122  243 1    
   244  124  125 1    
   245  124  244 1    
   246  124  245 1    
   247  125  126 1    
   248  126  246 1    
   249  126  247 1    
@<TRIPOS>SUBSTRUCTURE
     1 UNK         1 GROUP             0       ****    0 ROOT    
