@<TRIPOS>MOLECULE
3R540
247   249    1
SMALL
USER_CHARGES


@<TRIPOS>ATOM
      1 CA          6.1094  -13.9284  -49.9853 C.3       0 UNK        -0.1800 
      2 C           5.0211  -14.8885  -49.5271 C.2       0 UNK         0.5000 
      3 O           5.1623  -16.1012  -49.6910 O.2       0 UNK        -0.5000 
      4 N           3.9396  -14.3565  -48.9458 N.am      1 UNK        -0.5000 
      5 CA          2.7790  -15.0997  -48.4402 C.3       1 UNK         0.1400 
      6 C6          1.5183  -14.2003  -48.3593 C.3       23 UNK        -0.0398 
      7 S7          0.9980  -13.4991  -49.9631 S.3       23 UNK        -0.2404 
      8 C8         -0.7078  -14.1305  -50.1092 C.3       23 UNK        -0.0205 
      9 C9         -0.7751  -15.4532  -50.8610 C.ar      23 UNK        -0.0193 
     10 C10        -1.4363  -15.5221  -52.0922 C.ar      23 UNK        -0.1150 
     11 C11        -1.5206  -16.7302  -52.7901 C.ar      23 UNK        -0.0193 
     12 C12        -0.9199  -17.8717  -52.2525 C.ar      23 UNK        -0.1150 
     13 C13        -0.2379  -17.8131  -51.0353 C.ar      23 UNK        -0.0193 
     14 C14        -0.1914  -16.6087  -50.3305 C.ar      23 UNK        -0.1150 
     15 C15         0.4648  -19.0512  -50.5065 C.3       23 UNK        -0.0205 
     16 S16        -0.7219  -20.2249  -49.7988 S.3       23 UNK        -0.2404 
     17 C17        -0.8398  -19.6802  -48.0558 C.3       23 UNK        -0.0398 
     18 CA         -0.4801  -20.8204  -47.0727 C.3       11 UNK         0.1400 
     19 N          -0.4038  -20.3667  -45.6843 N.am      11 UNK        -0.5000 
     20 C           0.0947  -21.1040  -44.6802 C.2       10 UNK         0.5000 
     21 O           0.6469  -22.1927  -44.8369 O.2       10 UNK        -0.5000 
     22 CA         -0.1084  -20.5664  -43.2540 C.3       10 UNK         0.1400 
     23 CB          0.9880  -19.5635  -42.8773 C.3       10 UNK        -0.1800 
     24 N          -1.4193  -19.9470  -43.0693 N.am      10 UNK        -0.5000 
     25 C          -2.5876  -20.5969  -43.1588 C.2       9 UNK         0.5000 
     26 O          -2.6858  -21.8072  -43.3573 O.2       9 UNK        -0.5000 
     27 CA         -3.8590  -19.7395  -43.0566 C.3       9 UNK         0.1400 
     28 CB         -4.1959  -19.4338  -41.5902 C.3       9 UNK        -0.1800 
     29 N          -3.7386  -18.4893  -43.8072 N.am      9 UNK        -0.5000 
     30 C          -3.6929  -18.4127  -45.1446 C.2       8 UNK         0.5000 
     31 O          -3.7522  -19.3896  -45.8902 O.2       8 UNK        -0.5000 
     32 CA         -3.5130  -17.0108  -45.7507 C.3       8 UNK         0.1400 
     33 CB         -4.8610  -16.2814  -45.8451 C.3       8 UNK        -0.1800 
     34 N          -2.5625  -16.1887  -45.0010 N.am      8 UNK        -0.5000 
     35 C          -1.2474  -16.4362  -44.9365 C.2       7 UNK         0.5000 
     36 O          -0.7052  -17.3993  -45.4809 O.2       7 UNK        -0.5000 
     37 CA         -0.4091  -15.4510  -44.1022 C.3       7 UNK         0.1400 
     38 CB         -0.2689  -14.1055  -44.8304 C.3       7 UNK        -0.1800 
     39 N          -0.9282  -15.1813  -42.7611 N.am      7 UNK        -0.5000 
     40 C          -1.2737  -16.0727  -41.8254 C.2       6 UNK         0.5000 
     41 O          -1.3307  -17.2875  -42.0180 O.2       6 UNK        -0.5000 
     42 CA         -1.5506  -15.4873  -40.4250 C.3       6 UNK         0.1400 
     43 CB         -1.9898  -16.5558  -39.4086 C.3       6 UNK        -0.1800 
     44 N          -0.3555  -14.8152  -39.9119 N.am      6 UNK        -0.5000 
     45 C           0.0418  -13.5731  -40.2249 C.2       5 UNK         0.5000 
     46 O          -0.6138  -12.8083  -40.9335 O.2       5 UNK        -0.5000 
     47 CA          1.4274  -13.1400  -39.7061 C.3       5 UNK         0.1400 
     48 CB          1.3109  -12.5106  -38.3097 C.3       5 UNK        -0.1800 
     49 N           2.3731  -14.2592  -39.6584 N.am      5 UNK        -0.5000 
     50 C           2.8904  -14.8548  -40.7417 C.2       4 UNK         0.5000 
     51 O           2.7047  -14.4634  -41.8960 O.2       4 UNK        -0.5000 
     52 CA          3.6794  -16.1498  -40.4825 C.3       4 UNK         0.1400 
     53 CB          2.7049  -17.3335  -40.3931 C.3       4 UNK        -0.1800 
     54 N           4.6507  -16.4314  -41.5380 N.am      4 UNK        -0.5000 
     55 C           5.8274  -15.8093  -41.6851 C.2       3 UNK         0.5000 
     56 O           6.2240  -14.9159  -40.9352 O.2       3 UNK        -0.5000 
     57 CA          6.7327  -16.2845  -42.8395 C.3       3 UNK         0.1400 
     58 CB          7.8438  -17.2000  -42.3007 C.3       3 UNK        -0.1800 
     59 N           5.9965  -17.0053  -43.8831 N.am      3 UNK        -0.5000 
     60 C           5.3934  -16.4156  -44.9231 C.2       2 UNK         0.5000 
     61 O           5.4487  -15.2012  -45.1327 O.2       2 UNK        -0.5000 
     62 CA          4.6504  -17.3591  -45.8982 C.3       2 UNK         0.1400 
     63 CB          3.5715  -18.2028  -45.1807 C.3       2 UNK        -0.1800 
     64 N           4.0841  -16.6630  -47.0610 N.am      2 UNK        -0.5000 
     65 C           3.0900  -15.7636  -47.0764 C.2       1 UNK         0.5000 
     66 O           2.4462  -15.4413  -46.0780 O.2       1 UNK        -0.5000 
     67 C          -1.4233  -22.0362  -47.2058 C.2       11 UNK         0.5000 
     68 O          -0.9901  -23.0650  -47.7201 O.2       11 UNK        -0.5000 
     69 N          -2.6637  -21.9198  -46.7057 N.am      12 UNK        -0.5000 
     70 CA         -3.6964  -22.9615  -46.7703 C.3       12 UNK         0.1400 
     71 CB         -5.0009  -22.4283  -46.1585 C.3       12 UNK        -0.1800 
     72 C          -3.2966  -24.2921  -46.1031 C.2       12 UNK         0.5000 
     73 O          -3.6901  -25.3569  -46.5803 O.2       12 UNK        -0.5000 
     74 N          -2.5099  -24.2101  -45.0231 N.am      13 UNK        -0.5000 
     75 CA         -1.9245  -25.3577  -44.3332 C.3       13 UNK         0.1400 
     76 CB         -1.3979  -24.8976  -42.9651 C.3       13 UNK        -0.1800 
     77 C          -0.8011  -26.0455  -45.1354 C.2       13 UNK         0.5000 
     78 O          -0.5667  -27.2380  -44.9338 O.2       13 UNK        -0.5000 
     79 N          -0.1174  -25.2932  -46.0074 N.am      14 UNK        -0.5000 
     80 CA          1.0157  -25.7636  -46.8000 C.3       14 UNK         0.1400 
     81 CB          2.0378  -24.6248  -46.9460 C.3       14 UNK        -0.1800 
     82 C           0.5923  -26.2863  -48.1826 C.2       14 UNK         0.5000 
     83 O           1.1374  -27.2970  -48.6297 O.2       14 UNK        -0.5000 
     84 N          -0.3453  -25.5984  -48.8464 N.am      15 UNK        -0.5000 
     85 CA         -0.7626  -25.8821  -50.2173 C.3       15 UNK         0.1400 
     86 CB          0.2322  -25.2285  -51.1965 C.3       15 UNK        -0.1800 
     87 C          -2.1868  -25.3739  -50.4823 C.2       15 UNK         0.5000 
     88 O          -2.6997  -24.5260  -49.7524 O.2       15 UNK        -0.5000 
     89 N          -2.7857  -25.8677  -51.5729 N.am      16 UNK        -0.5000 
     90 CA         -4.1170  -25.4798  -52.0501 C.3       16 UNK         0.1400 
     91 CB         -4.6312  -26.5642  -53.0103 C.3       16 UNK        -0.1800 
     92 C          -4.1643  -24.0933  -52.7271 C.2       16 UNK         0.5000 
     93 O          -5.2526  -23.6405  -53.0821 O.2       16 UNK        -0.5000 
     94 N          -3.0050  -23.4402  -52.8998 N.am      17 UNK        -0.5000 
     95 CA         -2.8354  -22.1430  -53.5617 C.3       17 UNK         0.1400 
     96 CB         -1.3463  -21.7680  -53.5661 C.3       17 UNK        -0.1800 
     97 C          -3.6761  -21.0027  -52.9566 C.2       17 UNK         0.5000 
     98 O          -4.1221  -20.1304  -53.7014 O.2       17 UNK        -0.5000 
     99 N          -3.9099  -21.0511  -51.6372 N.am      18 UNK        -0.5000 
    100 CA        -4.7764  -20.1191  -50.9145 C.3       18 UNK         0.1400 
    101 CB        -4.6009  -20.3251  -49.4032 C.3       18 UNK        -0.1800 
    102 C         -6.2591  -20.2806  -51.2943 C.2       18 UNK         0.5000 
    103 O         -6.9459  -19.2819  -51.5074 O.2       18 UNK        -0.5000 
    104 N         -6.7177  -21.5368  -51.3890 N.am      19 UNK        -0.5000 
    105 CA        -8.0882  -21.9008  -51.7544 C.3       19 UNK         0.1400 
    106 CB        -8.3478  -23.3643  -51.3648 C.3       19 UNK        -0.1800 
    107 C         -8.3663  -21.6729  -53.2499 C.2       19 UNK         0.5000 
    108 O         -9.4563  -21.2277  -53.6098 O.2       19 UNK        -0.5000 
    109 N         -7.3564  -21.9444  -54.0867 N.am      20 UNK        -0.5000 
    110 CA        -7.3531  -21.6673  -55.5237 C.3       20 UNK         0.1400 
    111 CB        -6.2238  -22.4820  -56.1737 C.3       20 UNK        -0.1800 
    112 C         -7.1886  -20.1698  -55.8571 C.2       20 UNK         0.5000 
    113 O         -7.3700  -19.7908  -57.0153 O.2       20 UNK        -0.5000 
    114 N         -6.8063  -19.3580  -54.8584 N.am      21 UNK        -0.5000 
    115 CA        -6.5087  -17.9228  -54.9259 C.3       21 UNK         0.1400 
    116 CB        -7.8066  -17.1170  -55.1354 C.3       21 UNK        -0.1800 
    117 C         -5.4154  -17.5884  -55.9637 C.2       21 UNK         0.5000 
    118 O         -5.4959  -16.5619  -56.6407 O.2       21 UNK        -0.5000 
    119 N         -4.4298  -18.4894  -56.0838 N.am      22 UNK        -0.5000 
    120 CA        -3.3557  -18.4894  -57.0917 C.3       22 UNK         0.1400 
    121 C         -3.8471  -18.6455  -58.5677 C.2       22 UNK         0.5000 
    122 N         -5.0857  -19.0512  -58.8264 N.am      22 UNK        -0.7600 
    123 O         -3.0814  -18.4359  -59.5049 O.2       22 UNK        -0.5000 
    124 C124       -2.3568  -17.3104  -56.8994 C.3       23 UNK        -0.0398 
    125 S125       -1.2783  -17.5321  -55.4441 S.3       23 UNK        -0.2404 
    126 C126       -2.2811  -16.8062  -54.1072 C.3       23 UNK        -0.0205 
    127 H127        5.8463  -12.8901  -49.7815 H         1 UNK         0.0600 
    128 H128        6.2746  -14.0331  -51.0576 H         1 UNK         0.0600 
    129 H129        7.0449  -14.1495  -49.4715 H         1 UNK         0.0600 
    130 H130        3.8917  -13.3547  -48.8270 H         1 UNK         0.3000 
    131 H131        2.5630  -15.9087  -49.1408 H         1 UNK         0.0600 
    132 H132        1.6843  -13.3706  -47.6698 H         1 UNK         0.0800 
    133 H133        0.6889  -14.7735  -47.9460 H         1 UNK         0.0800 
    134 H134       -1.2978  -13.3741  -50.6289 H         1 UNK         0.0800 
    135 H135       -1.1700  -14.2386  -49.1272 H         1 UNK         0.0800 
    136 H136       -1.8968  -14.6347  -52.5035 H         1 UNK         0.1150 
    137 H137       -0.9765  -18.8087  -52.7872 H         1 UNK         0.1150 
    138 H138        0.3128  -16.5718  -49.3776 H         1 UNK         0.1150 
    139 H139        0.9869  -19.5413  -51.3297 H         1 UNK         0.0800 
    140 H140        1.2323  -18.7923  -49.7756 H         1 UNK         0.0800 
    141 H141       -1.8431  -19.2997  -47.8645 H         1 UNK         0.0800 
    142 H142       -0.1709  -18.8343  -47.8937 H         1 UNK         0.0800 
    143 H143        0.5219  -21.1650  -47.3392 H         1 UNK         0.0600 
    144 H144       -0.7888  -19.4510  -45.4779 H         1 UNK         0.3000 
    145 H145       -0.0410  -21.4151  -42.5702 H         1 UNK         0.0600 
    146 H146        0.9032  -19.2892  -41.8265 H         1 UNK         0.0600 
    147 H147        0.9215  -18.6511  -43.4709 H         1 UNK         0.0600 
    148 H148        1.9813  -19.9882  -43.0264 H         1 UNK         0.0600 
    149 H149       -1.4273  -18.9520  -42.8559 H         1 UNK         0.3000 
    150 H150       -4.6860  -20.3118  -43.4817 H         1 UNK         0.0600 
    151 H151       -4.3512  -20.3554  -41.0278 H         1 UNK         0.0600 
    152 H152       -5.1089  -18.8441  -41.5075 H         1 UNK         0.0600 
    153 H153       -3.3930  -18.8842  -41.0998 H         1 UNK         0.0600 
    154 H154       -3.6165  -17.6447  -43.2687 H         1 UNK         0.3000 
    155 H155       -3.1253  -17.1370  -46.7641 H         1 UNK         0.0600 
    156 H156       -5.5824  -16.8687  -46.4151 H         1 UNK         0.0600 
    157 H157       -4.7547  -15.3210  -46.3499 H         1 UNK         0.0600 
    158 H158       -5.2917  -16.0979  -44.8600 H         1 UNK         0.0600 
    159 H159       -2.9302  -15.3845  -44.5141 H         1 UNK         0.3000 
    160 H160        0.5858  -15.8862  -43.9867 H         1 UNK         0.0600 
    161 H161       -1.2069  -13.5492  -44.8415 H         1 UNK         0.0600 
    162 H162        0.0348  -14.2469  -45.8646 H         1 UNK         0.0600 
    163 H163        0.4876  -13.4810  -44.3545 H         1 UNK         0.0600 
    164 H164       -0.8940  -14.2120  -42.4664 H         1 UNK         0.3000 
    165 H165       -2.3614  -14.7621  -40.5211 H         1 UNK         0.0600 
    166 H166       -2.1646  -16.1167  -38.4263 H         1 UNK         0.0600 
    167 H167       -2.9219  -17.0276  -39.7193 H         1 UNK         0.0600 
    168 H168       -1.2413  -17.3415  -39.2962 H         1 UNK         0.0600 
    169 H169        0.2626  -15.3807  -39.3502 H         1 UNK         0.3000 
    170 H170        1.8195  -12.3845  -40.3905 H         1 UNK         0.0600 
    171 H171        0.9353  -13.2234  -37.5746 H         1 UNK         0.0600 
    172 H172        2.2767  -12.1448  -37.9605 H         1 UNK         0.0600 
    173 H173        0.6276  -11.6604  -38.3215 H         1 UNK         0.0600 
    174 H174        2.5804  -14.6348  -38.7440 H         1 UNK         0.3000 
    175 H175        4.2124  -16.0586  -39.5336 H         1 UNK         0.0600 
    176 H176        2.1024  -17.4102  -41.2981 H         1 UNK         0.0600 
    177 H177        3.2321  -18.2776  -40.2544 H         1 UNK         0.0600 
    178 H178        2.0189  -17.2188  -39.5531 H         1 UNK         0.0600 
    179 H179        4.3824  -17.1155  -42.2277 H         1 UNK         0.3000 
    180 H180        7.2075  -15.4003  -43.2702 H         1 UNK         0.0600 
    181 H181        8.5280  -17.4991  -43.0950 H         1 UNK         0.0600 
    182 H182        7.4371  -18.1053  -41.8482 H         1 UNK         0.0600 
    183 H183        8.4358  -16.6903  -41.5393 H         1 UNK         0.0600 
    184 H184        5.9505  -18.0097  -43.7888 H         1 UNK         0.3000 
    185 H185        5.3983  -18.0434  -46.3013 H         1 UNK         0.0600 
    186 H186        2.8697  -17.5792  -44.6261 H         1 UNK         0.0600 
    187 H187        2.9968  -18.7986  -45.8902 H         1 UNK         0.0600 
    188 H188        4.0183  -18.8980  -44.4698 H         1 UNK         0.0600 
    189 H189        4.5850  -16.7918  -47.9352 H         1 UNK         0.3000 
    190 H190       -2.9531  -21.0314  -46.3035 H         1 UNK         0.3000 
    191 H191       -3.8792  -23.1699  -47.8252 H         1 UNK         0.0600 
    192 H192       -5.3427  -21.5287  -46.6697 H         1 UNK         0.0600 
    193 H193       -4.8772  -22.1860  -45.1030 H         1 UNK         0.0600 
    194 H194       -5.7990  -23.1677  -46.2348 H         1 UNK         0.0600 
    195 H195       -2.3067  -23.2921  -44.6393 H         1 UNK         0.3000 
    196 H196       -2.7117  -26.0956  -44.1653 H         1 UNK         0.0600 
    197 H197       -2.1985  -24.4785  -42.3552 H         1 UNK         0.0600 
    198 H198       -0.6239  -24.1361  -43.0695 H         1 UNK         0.0600 
    199 H199       -0.9677  -25.7316  -42.4091 H         1 UNK         0.0600 
    200 H200       -0.4048  -24.3338  -46.1625 H         1 UNK         0.3000 
    201 H201        1.5123  -26.5818  -46.2739 H         1 UNK         0.0600 
    202 H202        2.3896  -24.2854  -45.9715 H         1 UNK         0.0600 
    203 H203        1.6154  -23.7637  -47.4648 H         1 UNK         0.0600 
    204 H204        2.9106  -24.9532  -47.5116 H         1 UNK         0.0600 
    205 H205       -0.7626  -24.7674  -48.4269 H         1 UNK         0.3000 
    206 H206       -0.7675  -26.9629  -50.3738 H         1 UNK         0.0600 
    207 H207        0.2692  -24.1462  -51.0630 H         1 UNK         0.0600 
    208 H208        1.2413  -25.6156  -51.0544 H         1 UNK         0.0600 
    209 H209       -0.0411  -25.4239  -52.2339 H         1 UNK         0.0600 
    210 H210       -2.2956  -26.5508  -52.1330 H         1 UNK         0.3000 
    211 H211       -4.7925  -25.4386  -51.1931 H         1 UNK         0.0600 
    212 H212       -3.9982  -26.6519  -53.8942 H         1 UNK         0.0600 
    213 H213       -5.6425  -26.3391  -53.3523 H         1 UNK         0.0600 
    214 H214       -4.6664  -27.5387  -52.5229 H         1 UNK         0.0600 
    215 H215       -2.1644  -23.8871  -52.5678 H         1 UNK         0.3000 
    216 H216       -3.1549  -22.2659  -54.5979 H         1 UNK         0.0600 
    217 H217       -1.1827  -20.8293  -54.0972 H         1 UNK         0.0600 
    218 H218       -0.7479  -22.5294  -54.0664 H         1 UNK         0.0600 
    219 H219       -0.9583  -21.6471  -52.5540 H         1 UNK         0.0600 
    220 H220       -3.4907  -21.7982  -51.1025 H         1 UNK         0.3000 
    221 H221       -4.4672  -19.1015  -51.1637 H         1 UNK         0.0600 
    222 H222       -4.8898  -21.3311  -49.0999 H         1 UNK         0.0600 
    223 H223       -3.5686  -20.1717  -49.1007 H         1 UNK         0.0600 
    224 H224       -5.2109  -19.6215  -48.8352 H         1 UNK         0.0600 
    225 H225       -6.0671  -22.2996  -51.2692 H         1 UNK         0.3000 
    226 H226       -8.7753  -21.2703  -51.1859 H         1 UNK         0.0600 
    227 H227       -8.2015  -23.5195  -50.2957 H         1 UNK         0.0600 
    228 H228       -9.3736  -23.6526  -51.5975 H         1 UNK         0.0600 
    229 H229       -7.6867  -24.0493  -51.8968 H         1 UNK         0.0600 
    230 H230       -6.5199  -22.3803  -53.7058 H         1 UNK         0.3000 
    231 H231       -8.3048  -21.9977  -55.9447 H         1 UNK         0.0600 
    232 H232       -6.2202  -22.3544  -57.2569 H         1 UNK         0.0600 
    233 H233       -6.3377  -23.5473  -55.9717 H         1 UNK         0.0600 
    234 H234       -5.2457  -22.1741  -55.8037 H         1 UNK         0.0600 
    235 H235       -6.6397  -19.7850  -53.9577 H         1 UNK         0.3000 
    236 H236       -6.0989  -17.6495  -53.9524 H         1 UNK         0.0600 
    237 H237       -8.2473  -17.3084  -56.1143 H         1 UNK         0.0600 
    238 H238       -8.5499  -17.3667  -54.3781 H         1 UNK         0.0600 
    239 H239       -7.6188  -16.0452  -55.0634 H         1 UNK         0.0600 
    240 H240       -4.4183  -19.2615  -55.4236 H         1 UNK         0.3000 
    241 H241       -2.8025  -19.4120  -56.9131 H         1 UNK         0.0600 
    242 H242       -5.3756  -19.1578  -59.7854 H         1 UNK         0.3800 
    243 H243       -5.7527  -19.2303  -58.0836 H         1 UNK         0.3800 
    244 H244       -2.8722  -16.3514  -56.8433 H         1 UNK         0.0800 
    245 H245       -1.6827  -17.2292  -57.7531 H         1 UNK         0.0800 
    246 H246       -2.6249  -15.8173  -54.4139 H         1 UNK         0.0800 
    247 H247       -3.1703  -17.4150  -53.9464 H         1 UNK         0.0800 
@<TRIPOS>BOND
     1    1    2 1    
     2    1  127 1    
     3    1  128 1    
     4    1  129 1    
     5    2    3 2    
     6    2    4 am   BACKBONE|DICT|INTERRES
     7    4    5 1    
     8    4  130 1    
     9    5    6 1    
    10    5   65 1    
    11    5  131 1    
    12    6    7 1    
    13    6  132 1    
    14    6  133 1    
    15    7    8 1    
    16    8    9 1    
    17    8  134 1    
    18    8  135 1    
    19    9   10 ar   
    20    9   14 ar   
    21   10   11 ar   
    22   10  136 1    
    23   11   12 ar   
    24   11  126 1    
    25   12   13 ar   
    26   12  137 1    
    27   13   14 ar   
    28   13   15 1    
    29   14  138 1    
    30   15   16 1    
    31   15  139 1    
    32   15  140 1    
    33   16   17 1    
    34   17   18 1    
    35   17  141 1    
    36   17  142 1    
    37   18   19 1    
    38   18   67 1    
    39   18  143 1    
    40   19   20 am   BACKBONE|DICT|INTERRES
    41   19  144 1    
    42   20   21 2    
    43   20   22 1    
    44   22   23 1    
    45   22   24 1    
    46   22  145 1    
    47   23  146 1    
    48   23  147 1    
    49   23  148 1    
    50   24   25 am   BACKBONE|DICT|INTERRES
    51   24  149 1    
    52   25   26 2    
    53   25   27 1    
    54   27   28 1    
    55   27   29 1    
    56   27  150 1    
    57   28  151 1    
    58   28  152 1    
    59   28  153 1    
    60   29   30 am   BACKBONE|DICT|INTERRES
    61   29  154 1    
    62   30   31 2    
    63   30   32 1    
    64   32   33 1    
    65   32   34 1    
    66   32  155 1    
    67   33  156 1    
    68   33  157 1    
    69   33  158 1    
    70   34   35 am   BACKBONE|DICT|INTERRES
    71   34  159 1    
    72   35   36 2    
    73   35   37 1    
    74   37   38 1    
    75   37   39 1    
    76   37  160 1    
    77   38  161 1    
    78   38  162 1    
    79   38  163 1    
    80   39   40 am   BACKBONE|DICT|INTERRES
    81   39  164 1    
    82   40   41 2    
    83   40   42 1    
    84   42   43 1    
    85   42   44 1    
    86   42  165 1    
    87   43  166 1    
    88   43  167 1    
    89   43  168 1    
    90   44   45 am   BACKBONE|DICT|INTERRES
    91   44  169 1    
    92   45   46 2    
    93   45   47 1    
    94   47   48 1    
    95   47   49 1    
    96   47  170 1    
    97   48  171 1    
    98   48  172 1    
    99   48  173 1    
   100   49   50 am   BACKBONE|DICT|INTERRES
   101   49  174 1    
   102   50   51 2    
   103   50   52 1    
   104   52   53 1    
   105   52   54 1    
   106   52  175 1    
   107   53  176 1    
   108   53  177 1    
   109   53  178 1    
   110   54   55 am   BACKBONE|DICT|INTERRES
   111   54  179 1    
   112   55   56 2    
   113   55   57 1    
   114   57   58 1    
   115   57   59 1    
   116   57  180 1    
   117   58  181 1    
   118   58  182 1    
   119   58  183 1    
   120   59   60 am   BACKBONE|DICT|INTERRES
   121   59  184 1    
   122   60   61 2    
   123   60   62 1    
   124   62   63 1    
   125   62   64 1    
   126   62  185 1    
   127   63  186 1    
   128   63  187 1    
   129   63  188 1    
   130   64   65 am   BACKBONE|DICT|INTERRES
   131   64  189 1    
   132   65   66 2    
   133   67   68 2    
   134   67   69 am   BACKBONE|DICT|INTERRES
   135   69   70 1    
   136   69  190 1    
   137   70   71 1    
   138   70   72 1    
   139   70  191 1    
   140   71  192 1    
   141   71  193 1    
   142   71  194 1    
   143   72   73 2    
   144   72   74 am   BACKBONE|DICT|INTERRES
   145   74   75 1    
   146   74  195 1    
   147   75   76 1    
   148   75   77 1    
   149   75  196 1    
   150   76  197 1    
   151   76  198 1    
   152   76  199 1    
   153   77   78 2    
   154   77   79 am   BACKBONE|DICT|INTERRES
   155   79   80 1    
   156   79  200 1    
   157   80   81 1    
   158   80   82 1    
   159   80  201 1    
   160   81  202 1    
   161   81  203 1    
   162   81  204 1    
   163   82   83 2    
   164   82   84 am   BACKBONE|DICT|INTERRES
   165   84   85 1    
   166   84  205 1    
   167   85   86 1    
   168   85   87 1    
   169   85  206 1    
   170   86  207 1    
   171   86  208 1    
   172   86  209 1    
   173   87   88 2    
   174   87   89 am   BACKBONE|DICT|INTERRES
   175   89   90 1    
   176   89  210 1    
   177   90   91 1    
   178   90   92 1    
   179   90  211 1    
   180   91  212 1    
   181   91  213 1    
   182   91  214 1    
   183   92   93 2    
   184   92   94 am   BACKBONE|DICT|INTERRES
   185   94   95 1    
   186   94  215 1    
   187   95   96 1    
   188   95   97 1    
   189   95  216 1    
   190   96  217 1    
   191   96  218 1    
   192   96  219 1    
   193   97   98 2    
   194   97   99 am   BACKBONE|DICT|INTERRES
   195   99  100 1    
   196   99  220 1    
   197  100  101 1    
   198  100  102 1    
   199  100  221 1    
   200  101  222 1    
   201  101  223 1    
   202  101  224 1    
   203  102  103 2    
   204  102  104 am   BACKBONE|DICT|INTERRES
   205  104  105 1    
   206  104  225 1    
   207  105  106 1    
   208  105  107 1    
   209  105  226 1    
   210  106  227 1    
   211  106  228 1    
   212  106  229 1    
   213  107  108 2    
   214  107  109 am   BACKBONE|DICT|INTERRES
   215  109  110 1    
   216  109  230 1    
   217  110  111 1    
   218  110  112 1    
   219  110  231 1    
   220  111  232 1    
   221  111  233 1    
   222  111  234 1    
   223  112  113 2    
   224  112  114 am   BACKBONE|DICT|INTERRES
   225  114  115 1    
   226  114  235 1    
   227  115  116 1    
   228  115  117 1    
   229  115  236 1    
   230  116  237 1    
   231  116  238 1    
   232  116  239 1    
   233  117  118 2    
   234  117  119 am   BACKBONE|DICT|INTERRES
   235  119  120 1    
   236  119  240 1    
   237  120  121 1    
   238  120  124 1    
   239  120  241 1    
   240  121  122 am   BACKBONE|DICT|INTERRES
   241  121  123 2    
   242  122  242 1    
   243  122  243 1    
   244  124  125 1    
   245  124  244 1    
   246  124  245 1    
   247  125  126 1    
   248  126  246 1    
   249  126  247 1    
@<TRIPOS>SUBSTRUCTURE
     1 UNK         1 GROUP             0       ****    0 ROOT    
