@<TRIPOS>MOLECULE
3R540
247   249    1
SMALL
USER_CHARGES


@<TRIPOS>ATOM
      1 CA         -4.2591  -12.0244  -48.2506 C.3       0 UNK        -0.1800 
      2 C          -3.0049  -11.6445  -47.4768 C.2       0 UNK         0.5000 
      3 O          -3.0482  -10.7458  -46.6370 O.2       0 UNK        -0.5000 
      4 N          -1.8903  -12.3343  -47.7472 N.am      1 UNK        -0.5000 
      5 CA         -0.5804  -12.1022  -47.1220 C.3       1 UNK         0.1400 
      6 C6          0.6015  -12.5218  -48.0362 C.3       23 UNK        -0.0398 
      7 S7          0.5196  -11.7550  -49.6953 S.3       23 UNK        -0.2404 
      8 C8          1.2784  -13.0293  -50.7687 C.3       23 UNK        -0.0205 
      9 C9          0.6353  -14.4146  -50.6970 C.ar      23 UNK        -0.0193 
     10 C10         1.4304  -15.5470  -50.9005 C.ar      23 UNK        -0.1150 
     11 C11         0.8851  -16.8307  -50.8033 C.ar      23 UNK        -0.0193 
     12 C12        -0.4649  -16.9837  -50.4801 C.ar      23 UNK        -0.1150 
     13 C13        -1.2717  -15.8612  -50.2791 C.ar      23 UNK        -0.0193 
     14 C14        -0.7263  -14.5838  -50.4231 C.ar      23 UNK        -0.1150 
     15 C15        -2.7253  -16.0183  -49.8710 C.3       23 UNK        -0.0205 
     16 S16        -2.9677  -15.5951  -48.1148 S.3       23 UNK        -0.2404 
     17 C17        -2.0895  -16.9508  -47.2595 C.3       23 UNK        -0.0398 
     18 CA         -2.9250  -18.2482  -47.1568 C.3       11 UNK         0.1400 
     19 N          -2.0929  -19.3971  -46.7787 N.am      11 UNK        -0.5000 
     20 C          -2.4676  -20.6839  -46.8416 C.2       10 UNK         0.5000 
     21 O          -3.6104  -21.0310  -47.1461 O.2       10 UNK        -0.5000 
     22 CA         -1.4034  -21.7521  -46.5092 C.3       10 UNK         0.1400 
     23 CB         -1.6047  -23.0602  -47.3015 C.3       10 UNK        -0.1800 
     24 N          -0.0199  -21.2792  -46.6341 N.am      10 UNK        -0.5000 
     25 C           0.5968  -20.8031  -47.7294 C.2       9 UNK         0.5000 
     26 O           0.0602  -20.6935  -48.8319 O.2       9 UNK        -0.5000 
     27 CA          2.0558  -20.3384  -47.5510 C.3       9 UNK         0.1400 
     28 CB          2.0983  -18.8173  -47.3280 C.3       9 UNK        -0.1800 
     29 N           2.7289  -21.0017  -46.4312 N.am      9 UNK        -0.5000 
     30 C           3.1001  -22.2920  -46.4306 C.2       8 UNK         0.5000 
     31 O           3.0012  -23.0247  -47.4151 O.2       8 UNK        -0.5000 
     32 CA          3.6542  -22.8795  -45.1144 C.3       8 UNK         0.1400 
     33 CB          5.1890  -22.9349  -45.1582 C.3       8 UNK        -0.1800 
     34 N           3.2456  -22.1544  -43.9091 N.am      8 UNK        -0.5000 
     35 C           1.9871  -21.9910  -43.4758 C.2       7 UNK         0.5000 
     36 O           1.0033  -22.4794  -44.0315 O.2       7 UNK        -0.5000 
     37 CA          1.7874  -21.0740  -42.2511 C.3       7 UNK         0.1400 
     38 CB          1.6908  -21.9096  -40.9660 C.3       7 UNK        -0.1800 
     39 N           2.8281  -20.0507  -42.0828 N.am      7 UNK        -0.5000 
     40 C           3.1473  -19.1185  -42.9911 C.2       6 UNK         0.5000 
     41 O           2.6284  -19.0516  -44.1081 O.2       6 UNK        -0.5000 
     42 CA          4.2816  -18.1497  -42.6100 C.3       6 UNK         0.1400 
     43 CB          5.6470  -18.8259  -42.8136 C.3       6 UNK        -0.1800 
     44 N           4.2393  -16.9324  -43.4191 N.am      6 UNK        -0.5000 
     45 C           3.3268  -15.9630  -43.2873 C.2       5 UNK         0.5000 
     46 O           2.4723  -15.9382  -42.3978 O.2       5 UNK        -0.5000 
     47 CA          3.3632  -14.8608  -44.3617 C.3       5 UNK         0.1400 
     48 CB          2.5114  -15.2692  -45.5754 C.3       5 UNK        -0.1800 
     49 N           2.8864  -13.5727  -43.8617 N.am      5 UNK        -0.5000 
     50 C           3.5220  -12.8098  -42.9628 C.2       4 UNK         0.5000 
     51 O           4.6059  -13.1099  -42.4596 O.2       4 UNK        -0.5000 
     52 CA          2.8542  -11.4812  -42.5690 C.3       4 UNK         0.1400 
     53 CB          3.2430  -10.3756  -43.5638 C.3       4 UNK        -0.1800 
     54 N           1.3942  -11.5853  -42.5273 N.am      4 UNK        -0.5000 
     55 C           0.6384  -11.3732  -41.4409 C.2       3 UNK         0.5000 
     56 O           1.0970  -11.0861  -40.3341 O.2       3 UNK        -0.5000 
     57 CA         -0.8929  -11.4767  -41.6075 C.3       3 UNK         0.1400 
     58 CB         -1.5063  -10.0789  -41.7835 C.3       3 UNK        -0.1800 
     59 N          -1.3056  -12.3146  -42.7335 N.am      3 UNK        -0.5000 
     60 C          -1.1899  -13.6481  -42.7750 C.2       2 UNK         0.5000 
     61 O          -0.8011  -14.3255  -41.8238 O.2       2 UNK        -0.5000 
     62 CA         -1.5676  -14.3498  -44.0969 C.3       2 UNK         0.1400 
     63 CB         -2.9883  -14.9294  -43.9854 C.3       2 UNK        -0.1800 
     64 N          -1.4957  -13.5232  -45.3105 N.am      2 UNK        -0.5000 
     65 C          -0.4598  -12.7846  -45.7412 C.2       1 UNK         0.5000 
     66 O           0.5734  -12.6285  -45.0921 O.2       1 UNK        -0.5000 
     67 C          -4.1766  -18.0912  -46.2645 C.2       11 UNK         0.5000 
     68 O          -5.2194  -17.6584  -46.7547 O.2       11 UNK        -0.5000 
     69 N          -4.0894  -18.5435  -45.0051 N.am      12 UNK        -0.5000 
     70 CA         -5.2170  -18.6495  -44.0725 C.3       12 UNK         0.1400 
     71 CB         -4.6820  -19.0831  -42.6993 C.3       12 UNK        -0.1800 
     72 C          -6.3345  -19.6076  -44.5472 C.2       12 UNK         0.5000 
     73 O          -7.4723  -19.4771  -44.0953 O.2       12 UNK        -0.5000 
     74 N          -5.9962  -20.5281  -45.4602 N.am      13 UNK        -0.5000 
     75 CA         -6.9060  -21.4520  -46.1327 C.3       13 UNK         0.1400 
     76 CB         -6.4183  -22.8883  -45.8687 C.3       13 UNK        -0.1800 
     77 C          -6.9936  -21.1503  -47.6443 C.2       13 UNK         0.5000 
     78 O          -7.3690  -22.0372  -48.4100 O.2       13 UNK        -0.5000 
     79 N          -6.6256  -19.9279  -48.0637 N.am      14 UNK        -0.5000 
     80 CA         -6.5999  -19.4378  -49.4491 C.3       14 UNK         0.1400 
     81 CB         -8.0307  -19.3303  -50.0170 C.3       14 UNK        -0.1800 
     82 C          -5.6533  -20.2560  -50.3534 C.2       14 UNK         0.5000 
     83 O          -6.0441  -20.6878  -51.4390 O.2       14 UNK        -0.5000 
     84 N          -4.4320  -20.4940  -49.8535 N.am      15 UNK        -0.5000 
     85 CA         -3.3849  -21.3430  -50.4359 C.3       15 UNK         0.1400 
     86 CB         -2.8648  -20.7670  -51.7685 C.3       15 UNK        -0.1800 
     87 C          -3.8358  -22.8153  -50.5239 C.2       15 UNK         0.5000 
     88 O          -3.5777  -23.4871  -51.5254 O.2       15 UNK        -0.5000 
     89 N          -4.5369  -23.2605  -49.4684 N.am      16 UNK        -0.5000 
     90 CA         -5.2347  -24.5429  -49.3251 C.3       16 UNK         0.1400 
     91 CB         -4.2255  -25.7027  -49.2165 C.3       16 UNK        -0.1800 
     92 C          -6.2734  -24.7507  -50.4452 C.2       16 UNK         0.5000 
     93 O          -6.2201  -25.7496  -51.1604 O.2       16 UNK        -0.5000 
     94 N          -7.1581  -23.7587  -50.6215 N.am      17 UNK        -0.5000 
     95 CA         -8.1310  -23.6260  -51.7145 C.3       17 UNK         0.1400 
     96 CB         -9.2705  -24.6521  -51.5494 C.3       17 UNK        -0.1800 
     97 C          -7.4600  -23.6832  -53.1061 C.2       17 UNK         0.5000 
     98 O          -7.9574  -24.3491  -54.0158 O.2       17 UNK        -0.5000 
     99 N          -6.3058  -23.0105  -53.2109 N.am      18 UNK        -0.5000 
    100 CA        -5.3675  -22.9709  -54.3355 C.3       18 UNK         0.1400 
    101 CB        -6.0234  -22.3249  -55.5730 C.3       18 UNK        -0.1800 
    102 C         -4.6796  -24.3148  -54.6708 C.2       18 UNK         0.5000 
    103 O         -4.0058  -24.3899  -55.6994 O.2       18 UNK        -0.5000 
    104 N         -4.8222  -25.3461  -53.8235 N.am      19 UNK        -0.5000 
    105 CA        -4.2108  -26.6599  -54.0375 C.3       19 UNK         0.1400 
    106 CB        -4.9961  -27.7399  -53.2787 C.3       19 UNK        -0.1800 
    107 C         -2.7256  -26.6994  -53.6386 C.2       19 UNK         0.5000 
    108 O         -1.9667  -27.4511  -54.2526 O.2       19 UNK        -0.5000 
    109 N         -2.3272  -25.9051  -52.6326 N.am      20 UNK        -0.5000 
    110 CA        -0.9285  -25.7838  -52.2129 C.3       20 UNK         0.1400 
    111 CB        -0.8375  -25.3409  -50.7436 C.3       20 UNK        -0.1800 
    112 C         -0.1597  -24.8114  -53.1188 C.2       20 UNK         0.5000 
    113 O          1.0152  -25.0510  -53.3980 O.2       20 UNK        -0.5000 
    114 N         -0.8393  -23.7387  -53.5581 N.am      21 UNK        -0.5000 
    115 CA        -0.3699  -22.7196  -54.5080 C.3       21 UNK         0.1400 
    116 CB        -0.3587  -23.3045  -55.9349 C.3       21 UNK        -0.1800 
    117 C          0.9822  -22.0812  -54.1139 C.2       21 UNK         0.5000 
    118 O          1.8418  -21.8696  -54.9711 O.2       21 UNK        -0.5000 
    119 N          1.1454  -21.8229  -52.8093 N.am      22 UNK        -0.5000 
    120 CA         2.3710  -21.3294  -52.1542 C.3       22 UNK         0.1400 
    121 C          3.5241  -22.3747  -52.0418 C.2       22 UNK         0.5000 
    122 N          3.3319  -23.6407  -52.3918 N.am      22 UNK        -0.7600 
    123 O          4.6173  -22.0387  -51.5946 O.2       22 UNK        -0.5000 
    124 C124        2.8859  -19.9678  -52.7080 C.3       23 UNK        -0.0398 
    125 S125        1.6206  -18.6545  -52.7346 S.3       23 UNK        -0.2404 
    126 C126        1.7578  -18.0524  -51.0283 C.3       23 UNK        -0.0205 
    127 H127       -4.6973  -11.1406  -48.7140 H         1 UNK         0.0600 
    128 H128       -4.9972  -12.4608  -47.5776 H         1 UNK         0.0600 
    129 H129       -4.0456  -12.7481  -49.0377 H         1 UNK         0.0600 
    130 H130       -1.9221  -13.0797  -48.4276 H         1 UNK         0.3000 
    131 H131       -0.4776  -11.0303  -46.9400 H         1 UNK         0.0600 
    132 H132        1.5524  -12.2293  -47.5869 H         1 UNK         0.0800 
    133 H133        0.6367  -13.6078  -48.1289 H         1 UNK         0.0800 
    134 H134        1.2365  -12.6829  -51.8019 H         1 UNK         0.0800 
    135 H135        2.3360  -13.0984  -50.5092 H         1 UNK         0.0800 
    136 H136        2.4801  -15.4305  -51.1318 H         1 UNK         0.1150 
    137 H137       -0.8813  -17.9766  -50.3786 H         1 UNK         0.1150 
    138 H138       -1.3619  -13.7221  -50.2843 H         1 UNK         0.1150 
    139 H139       -3.3439  -15.3591  -50.4815 H         1 UNK         0.0800 
    140 H140       -3.0791  -17.0320  -50.0638 H         1 UNK         0.0800 
    141 H141       -1.7874  -16.6077  -46.2699 H         1 UNK         0.0800 
    142 H142       -1.1575  -17.1464  -47.7894 H         1 UNK         0.0800 
    143 H143       -3.2948  -18.4693  -48.1591 H         1 UNK         0.0600 
    144 H144       -1.1398  -19.1996  -46.5129 H         1 UNK         0.3000 
    145 H145       -1.5467  -21.9871  -45.4537 H         1 UNK         0.0600 
    146 H146       -0.8957  -23.8227  -46.9791 H         1 UNK         0.0600 
    147 H147       -2.6045  -23.4676  -47.1477 H         1 UNK         0.0600 
    148 H148       -1.4678  -22.9164  -48.3724 H         1 UNK         0.0600 
    149 H149        0.5315  -21.3704  -45.7886 H         1 UNK         0.3000 
    150 H150        2.5964  -20.5692  -48.4712 H         1 UNK         0.0600 
    151 H151        1.6285  -18.2769  -48.1484 H         1 UNK         0.0600 
    152 H152        3.1246  -18.4590  -47.2473 H         1 UNK         0.0600 
    153 H153        1.5696  -18.5283  -46.4197 H         1 UNK         0.0600 
    154 H154        2.8343  -20.4542  -45.5828 H         1 UNK         0.3000 
    155 H155        3.2751  -23.9000  -45.0304 H         1 UNK         0.0600 
    156 H156        5.5360  -23.4931  -46.0288 H         1 UNK         0.0600 
    157 H157        5.5921  -23.4310  -44.2751 H         1 UNK         0.0600 
    158 H158        5.6254  -21.9367  -45.2127 H         1 UNK         0.0600 
    159 H159        3.9826  -21.7051  -43.3868 H         1 UNK         0.3000 
    160 H160        0.8380  -20.5532  -42.3916 H         1 UNK         0.0600 
    161 H161        2.6260  -22.4287  -40.7526 H         1 UNK         0.0600 
    162 H162        0.9076  -22.6646  -41.0481 H         1 UNK         0.0600 
    163 H163        1.4481  -21.2854  -40.1059 H         1 UNK         0.0600 
    164 H164        3.3141  -20.0531  -41.1974 H         1 UNK         0.3000 
    165 H165        4.1726  -17.8772  -41.5581 H         1 UNK         0.0600 
    166 H166        6.4630  -18.1561  -42.5414 H         1 UNK         0.0600 
    167 H167        5.7426  -19.7175  -42.1925 H         1 UNK         0.0600 
    168 H168        5.7954  -19.1312  -43.8505 H         1 UNK         0.0600 
    169 H169        4.8765  -16.8982  -44.2010 H         1 UNK         0.3000 
    170 H170        4.3959  -14.7297  -44.6919 H         1 UNK         0.0600 
    171 H171        2.8677  -16.2054  -46.0060 H         1 UNK         0.0600 
    172 H172        1.4653  -15.4123  -45.3023 H         1 UNK         0.0600 
    173 H173        2.5534  -14.5146  -46.3609 H         1 UNK         0.0600 
    174 H174        2.0032  -13.2478  -44.2462 H         1 UNK         0.3000 
    175 H175        3.2480  -11.2045  -41.5890 H         1 UNK         0.0600 
    176 H176        2.8383   -9.4112  -43.2566 H         1 UNK         0.0600 
    177 H177        4.3266  -10.2685  -43.6272 H         1 UNK         0.0600 
    178 H178        2.8731  -10.5895  -44.5676 H         1 UNK         0.0600 
    179 H179        0.9382  -11.8530  -43.3941 H         1 UNK         0.3000 
    180 H180       -1.2949  -11.9123  -40.6903 H         1 UNK         0.0600 
    181 H181       -1.1527   -9.5966  -42.6958 H         1 UNK         0.0600 
    182 H182       -1.2461   -9.4293  -40.9467 H         1 UNK         0.0600 
    183 H183       -2.5944  -10.1278  -41.8287 H         1 UNK         0.0600 
    184 H184       -1.6416  -11.8383  -43.5578 H         1 UNK         0.3000 
    185 H185       -0.8670  -15.1759  -44.2320 H         1 UNK         0.0600 
    186 H186       -3.0600  -15.6357  -43.1570 H         1 UNK         0.0600 
    187 H187       -3.7257  -14.1447  -43.8116 H         1 UNK         0.0600 
    188 H188       -3.2830  -15.4612  -44.8884 H         1 UNK         0.0600 
    189 H189       -2.3007  -13.5671  -45.9182 H         1 UNK         0.3000 
    190 H190       -3.2041  -18.9061  -44.6836 H         1 UNK         0.3000 
    191 H191       -5.6604  -17.6567  -43.9710 H         1 UNK         0.0600 
    192 H192       -4.2056  -20.0632  -42.7446 H         1 UNK         0.0600 
    193 H193       -3.9512  -18.3700  -42.3171 H         1 UNK         0.0600 
    194 H194       -5.4881  -19.1434  -41.9668 H         1 UNK         0.0600 
    195 H195       -5.0393  -20.5569  -45.7943 H         1 UNK         0.3000 
    196 H196       -7.9174  -21.3551  -45.7341 H         1 UNK         0.0600 
    197 H197       -6.3680  -23.0942  -44.7995 H         1 UNK         0.0600 
    198 H198       -5.4260  -23.0592  -46.2877 H         1 UNK         0.0600 
    199 H199       -7.0952  -23.6236  -46.3053 H         1 UNK         0.0600 
    200 H200       -6.3207  -19.2550  -47.3684 H         1 UNK         0.3000 
    201 H201       -6.1863  -18.4290  -49.4104 H         1 UNK         0.0600 
    202 H202       -8.0250  -18.8599  -51.0009 H         1 UNK         0.0600 
    203 H203       -8.6655  -18.7234  -49.3716 H         1 UNK         0.0600 
    204 H204       -8.5014  -20.3078  -50.1268 H         1 UNK         0.0600 
    205 H205       -4.2558  -20.2075  -48.8986 H         1 UNK         0.3000 
    206 H206       -2.5475  -21.3246  -49.7398 H         1 UNK         0.0600 
    207 H207       -2.5092  -19.7448  -51.6388 H         1 UNK         0.0600 
    208 H208       -3.6327  -20.7565  -52.5405 H         1 UNK         0.0600 
    209 H209       -2.0263  -21.3524  -52.1446 H         1 UNK         0.0600 
    210 H210       -4.6843  -22.6050  -48.7131 H         1 UNK         0.3000 
    211 H211       -5.7903  -24.4971  -48.3881 H         1 UNK         0.0600 
    212 H212       -3.4848  -25.5143  -48.4397 H         1 UNK         0.0600 
    213 H213       -4.7325  -26.6349  -48.9658 H         1 UNK         0.0600 
    214 H214       -3.6970  -25.8654  -50.1544 H         1 UNK         0.0600 
    215 H215       -7.1511  -22.9963  -49.9458 H         1 UNK         0.3000 
    216 H216       -8.5631  -22.6286  -51.6220 H         1 UNK         0.0600 
    217 H217      -10.0546  -24.4878  -52.2892 H         1 UNK         0.0600 
    218 H218       -8.9144  -25.6756  -51.6711 H         1 UNK         0.0600 
    219 H219       -9.7316  -24.5722  -50.5651 H         1 UNK         0.0600 
    220 H220       -6.0277  -22.4521  -52.4095 H         1 UNK         0.3000 
    221 H221       -4.5623  -22.3097  -54.0168 H         1 UNK         0.0600 
    222 H222       -6.7971  -22.9624  -56.0013 H         1 UNK         0.0600 
    223 H223       -6.4775  -21.3661  -55.3225 H         1 UNK         0.0600 
    224 H224       -5.2869  -22.1375  -56.3552 H         1 UNK         0.0600 
    225 H225       -5.3717  -25.2314  -52.9786 H         1 UNK         0.3000 
    226 H226       -4.2755  -26.8993  -55.1012 H         1 UNK         0.0600 
    227 H227       -6.0647  -27.6750  -53.4844 H         1 UNK         0.0600 
    228 H228       -4.6660  -28.7361  -53.5752 H         1 UNK         0.0600 
    229 H229       -4.8530  -27.6623  -52.2008 H         1 UNK         0.0600 
    230 H230       -2.9941  -25.2705  -52.2038 H         1 UNK         0.3000 
    231 H231       -0.4465  -26.7609  -52.2893 H         1 UNK         0.0600 
    232 H232        0.2034  -25.2725  -50.4246 H         1 UNK         0.0600 
    233 H233       -1.3267  -26.0568  -50.0841 H         1 UNK         0.0600 
    234 H234       -1.2880  -24.3634  -50.5790 H         1 UNK         0.0600 
    235 H235       -1.7941  -23.6388  -53.2408 H         1 UNK         0.3000 
    236 H236       -1.1048  -21.9137  -54.4879 H         1 UNK         0.0600 
    237 H237       -1.3316  -23.7195  -56.1979 H         1 UNK         0.0600 
    238 H238       -0.1251  -22.5368  -56.6734 H         1 UNK         0.0600 
    239 H239        0.3820  -24.0981  -56.0386 H         1 UNK         0.0600 
    240 H240        0.3871  -22.0518  -52.1846 H         1 UNK         0.3000 
    241 H241        2.0739  -21.1560  -51.1195 H         1 UNK         0.0600 
    242 H242        4.0935  -24.2930  -52.2965 H         1 UNK         0.3800 
    243 H243        2.4490  -23.9654  -52.7757 H         1 UNK         0.3800 
    244 H244        3.7339  -19.6110  -52.1213 H         1 UNK         0.0800 
    245 H245        3.2673  -20.0883  -53.7224 H         1 UNK         0.0800 
    246 H246        1.4566  -18.8539  -50.3543 H         1 UNK         0.0800 
    247 H247        2.7981  -17.8193  -50.7960 H         1 UNK         0.0800 
@<TRIPOS>BOND
     1    1    2 1    
     2    1  127 1    
     3    1  128 1    
     4    1  129 1    
     5    2    3 2    
     6    2    4 am   BACKBONE|DICT|INTERRES
     7    4    5 1    
     8    4  130 1    
     9    5    6 1    
    10    5   65 1    
    11    5  131 1    
    12    6    7 1    
    13    6  132 1    
    14    6  133 1    
    15    7    8 1    
    16    8    9 1    
    17    8  134 1    
    18    8  135 1    
    19    9   10 ar   
    20    9   14 ar   
    21   10   11 ar   
    22   10  136 1    
    23   11   12 ar   
    24   11  126 1    
    25   12   13 ar   
    26   12  137 1    
    27   13   14 ar   
    28   13   15 1    
    29   14  138 1    
    30   15   16 1    
    31   15  139 1    
    32   15  140 1    
    33   16   17 1    
    34   17   18 1    
    35   17  141 1    
    36   17  142 1    
    37   18   19 1    
    38   18   67 1    
    39   18  143 1    
    40   19   20 am   BACKBONE|DICT|INTERRES
    41   19  144 1    
    42   20   21 2    
    43   20   22 1    
    44   22   23 1    
    45   22   24 1    
    46   22  145 1    
    47   23  146 1    
    48   23  147 1    
    49   23  148 1    
    50   24   25 am   BACKBONE|DICT|INTERRES
    51   24  149 1    
    52   25   26 2    
    53   25   27 1    
    54   27   28 1    
    55   27   29 1    
    56   27  150 1    
    57   28  151 1    
    58   28  152 1    
    59   28  153 1    
    60   29   30 am   BACKBONE|DICT|INTERRES
    61   29  154 1    
    62   30   31 2    
    63   30   32 1    
    64   32   33 1    
    65   32   34 1    
    66   32  155 1    
    67   33  156 1    
    68   33  157 1    
    69   33  158 1    
    70   34   35 am   BACKBONE|DICT|INTERRES
    71   34  159 1    
    72   35   36 2    
    73   35   37 1    
    74   37   38 1    
    75   37   39 1    
    76   37  160 1    
    77   38  161 1    
    78   38  162 1    
    79   38  163 1    
    80   39   40 am   BACKBONE|DICT|INTERRES
    81   39  164 1    
    82   40   41 2    
    83   40   42 1    
    84   42   43 1    
    85   42   44 1    
    86   42  165 1    
    87   43  166 1    
    88   43  167 1    
    89   43  168 1    
    90   44   45 am   BACKBONE|DICT|INTERRES
    91   44  169 1    
    92   45   46 2    
    93   45   47 1    
    94   47   48 1    
    95   47   49 1    
    96   47  170 1    
    97   48  171 1    
    98   48  172 1    
    99   48  173 1    
   100   49   50 am   BACKBONE|DICT|INTERRES
   101   49  174 1    
   102   50   51 2    
   103   50   52 1    
   104   52   53 1    
   105   52   54 1    
   106   52  175 1    
   107   53  176 1    
   108   53  177 1    
   109   53  178 1    
   110   54   55 am   BACKBONE|DICT|INTERRES
   111   54  179 1    
   112   55   56 2    
   113   55   57 1    
   114   57   58 1    
   115   57   59 1    
   116   57  180 1    
   117   58  181 1    
   118   58  182 1    
   119   58  183 1    
   120   59   60 am   BACKBONE|DICT|INTERRES
   121   59  184 1    
   122   60   61 2    
   123   60   62 1    
   124   62   63 1    
   125   62   64 1    
   126   62  185 1    
   127   63  186 1    
   128   63  187 1    
   129   63  188 1    
   130   64   65 am   BACKBONE|DICT|INTERRES
   131   64  189 1    
   132   65   66 2    
   133   67   68 2    
   134   67   69 am   BACKBONE|DICT|INTERRES
   135   69   70 1    
   136   69  190 1    
   137   70   71 1    
   138   70   72 1    
   139   70  191 1    
   140   71  192 1    
   141   71  193 1    
   142   71  194 1    
   143   72   73 2    
   144   72   74 am   BACKBONE|DICT|INTERRES
   145   74   75 1    
   146   74  195 1    
   147   75   76 1    
   148   75   77 1    
   149   75  196 1    
   150   76  197 1    
   151   76  198 1    
   152   76  199 1    
   153   77   78 2    
   154   77   79 am   BACKBONE|DICT|INTERRES
   155   79   80 1    
   156   79  200 1    
   157   80   81 1    
   158   80   82 1    
   159   80  201 1    
   160   81  202 1    
   161   81  203 1    
   162   81  204 1    
   163   82   83 2    
   164   82   84 am   BACKBONE|DICT|INTERRES
   165   84   85 1    
   166   84  205 1    
   167   85   86 1    
   168   85   87 1    
   169   85  206 1    
   170   86  207 1    
   171   86  208 1    
   172   86  209 1    
   173   87   88 2    
   174   87   89 am   BACKBONE|DICT|INTERRES
   175   89   90 1    
   176   89  210 1    
   177   90   91 1    
   178   90   92 1    
   179   90  211 1    
   180   91  212 1    
   181   91  213 1    
   182   91  214 1    
   183   92   93 2    
   184   92   94 am   BACKBONE|DICT|INTERRES
   185   94   95 1    
   186   94  215 1    
   187   95   96 1    
   188   95   97 1    
   189   95  216 1    
   190   96  217 1    
   191   96  218 1    
   192   96  219 1    
   193   97   98 2    
   194   97   99 am   BACKBONE|DICT|INTERRES
   195   99  100 1    
   196   99  220 1    
   197  100  101 1    
   198  100  102 1    
   199  100  221 1    
   200  101  222 1    
   201  101  223 1    
   202  101  224 1    
   203  102  103 2    
   204  102  104 am   BACKBONE|DICT|INTERRES
   205  104  105 1    
   206  104  225 1    
   207  105  106 1    
   208  105  107 1    
   209  105  226 1    
   210  106  227 1    
   211  106  228 1    
   212  106  229 1    
   213  107  108 2    
   214  107  109 am   BACKBONE|DICT|INTERRES
   215  109  110 1    
   216  109  230 1    
   217  110  111 1    
   218  110  112 1    
   219  110  231 1    
   220  111  232 1    
   221  111  233 1    
   222  111  234 1    
   223  112  113 2    
   224  112  114 am   BACKBONE|DICT|INTERRES
   225  114  115 1    
   226  114  235 1    
   227  115  116 1    
   228  115  117 1    
   229  115  236 1    
   230  116  237 1    
   231  116  238 1    
   232  116  239 1    
   233  117  118 2    
   234  117  119 am   BACKBONE|DICT|INTERRES
   235  119  120 1    
   236  119  240 1    
   237  120  121 1    
   238  120  124 1    
   239  120  241 1    
   240  121  122 am   BACKBONE|DICT|INTERRES
   241  121  123 2    
   242  122  242 1    
   243  122  243 1    
   244  124  125 1    
   245  124  244 1    
   246  124  245 1    
   247  125  126 1    
   248  126  246 1    
   249  126  247 1    
@<TRIPOS>SUBSTRUCTURE
     1 UNK         1 GROUP             0       ****    0 ROOT    
