@<TRIPOS>MOLECULE
3R540
247   249    1
SMALL
USER_CHARGES


@<TRIPOS>ATOM
      1 CA         -2.4493  -12.6710  -45.6035 C.3       0 UNK        -0.1800 
      2 C          -2.1165  -12.4396  -47.0692 C.2       0 UNK         0.5000 
      3 O          -2.2466  -11.3194  -47.5618 O.2       0 UNK        -0.5000 
      4 N          -1.6526  -13.4939  -47.7529 N.am      1 UNK        -0.5000 
      5 CA         -1.2306  -13.5094  -49.1628 C.3       1 UNK         0.1400 
      6 C6         -0.8737  -14.9457  -49.6234 C.3       23 UNK        -0.0398 
      7 S7          0.4639  -15.7152  -48.6380 S.3       23 UNK        -0.2404 
      8 C8          1.8281  -15.7784  -49.8398 C.3       23 UNK        -0.0205 
      9 C9          1.9326  -17.1584  -50.4671 C.ar      23 UNK        -0.0193 
     10 C10         1.3116  -17.4466  -51.6865 C.ar      23 UNK        -0.1150 
     11 C11         1.4021  -18.7273  -52.2436 C.ar      23 UNK        -0.0193 
     12 C12         2.1221  -19.7186  -51.5685 C.ar      23 UNK        -0.1150 
     13 C13         2.7369  -19.4452  -50.3438 C.ar      23 UNK        -0.0193 
     14 C14         2.6504  -18.1582  -49.8076 C.ar      23 UNK        -0.1150 
     15 C15         3.4801  -20.5447  -49.5953 C.3       23 UNK        -0.0205 
     16 S16         2.8668  -20.7668  -47.8922 S.3       23 UNK        -0.2404 
     17 C17         1.0960  -21.1149  -48.1712 C.3       23 UNK        -0.0398 
     18 CA          0.6232  -22.3478  -47.3714 C.3       11 UNK         0.1400 
     19 N           0.6099  -22.1080  -45.9258 N.am      11 UNK        -0.5000 
     20 C           0.4610  -23.0650  -45.0006 C.2       10 UNK         0.5000 
     21 O           0.3283  -24.2588  -45.2694 O.2       10 UNK        -0.5000 
     22 CA          0.4052  -22.6109  -43.5312 C.3       10 UNK         0.1400 
     23 CB          1.8057  -22.2633  -43.0046 C.3       10 UNK        -0.1800 
     24 N          -0.4981  -21.4780  -43.3289 N.am      10 UNK        -0.5000 
     25 C          -1.8222  -21.5244  -43.5353 C.2       9 UNK         0.5000 
     26 O          -2.4250  -22.5391  -43.8871 O.2       9 UNK        -0.5000 
     27 CA         -2.6003  -20.2080  -43.3571 C.3       9 UNK         0.1400 
     28 CB         -2.8729  -19.9332  -41.8708 C.3       9 UNK        -0.1800 
     29 N          -1.9201  -19.0578  -43.9538 N.am      9 UNK        -0.5000 
     30 C          -1.6431  -18.9338  -45.2595 C.2       8 UNK         0.5000 
     31 O          -1.9595  -19.7666  -46.1054 O.2       8 UNK        -0.5000 
     32 CA         -0.8232  -17.7053  -45.6881 C.3       8 UNK         0.1400 
     33 CB         -1.7003  -16.4464  -45.7366 C.3       8 UNK        -0.1800 
     34 N           0.3283  -17.4694  -44.8194 N.am      8 UNK        -0.5000 
     35 C           1.3220  -18.3475  -44.6211 C.2       7 UNK         0.5000 
     36 O           1.3885  -19.4465  -45.1683 O.2       7 UNK        -0.5000 
     37 CA          2.3857  -17.9566  -43.5847 C.3       7 UNK         0.1400 
     38 CB          3.4036  -16.9764  -44.1861 C.3       7 UNK        -0.1800 
     39 N           1.7755  -17.3763  -42.3888 N.am      7 UNK        -0.5000 
     40 C           1.0298  -18.0682  -41.5146 C.2       6 UNK         0.5000 
     41 O           0.8220  -19.2793  -41.5974 O.2       6 UNK        -0.5000 
     42 CA          0.3717  -17.2584  -40.3827 C.3       6 UNK         0.1400 
     43 CB          1.3664  -17.0156  -39.2378 C.3       6 UNK        -0.1800 
     44 N          -0.1592  -15.9751  -40.8473 N.am      6 UNK        -0.5000 
     45 C          -1.1878  -15.8485  -41.6976 C.2       5 UNK         0.5000 
     46 O          -1.8161  -16.8023  -42.1540 O.2       5 UNK        -0.5000 
     47 CA         -1.5526  -14.4214  -42.1456 C.3       5 UNK         0.1400 
     48 CB         -2.5619  -13.7904  -41.1759 C.3       5 UNK        -0.1800 
     49 N          -0.3961  -13.5325  -42.2868 N.am      5 UNK        -0.5000 
     50 C           0.6203  -13.7201  -43.1379 C.2       4 UNK         0.5000 
     51 O           0.6994  -14.6843  -43.9019 O.2       4 UNK        -0.5000 
     52 CA          1.7200  -12.6417  -43.1382 C.3       4 UNK         0.1400 
     53 CB          3.1076  -13.2431  -43.4172 C.3       4 UNK        -0.1800 
     54 N           1.4515  -11.6077  -44.1339 N.am      4 UNK        -0.5000 
     55 C           0.4856  -10.6838  -44.0767 C.2       3 UNK         0.5000 
     56 O          -0.2852  -10.5699  -43.1232 O.2       3 UNK        -0.5000 
     57 CA          0.3333   -9.7297  -45.2814 C.3       3 UNK         0.1400 
     58 CB          1.0776   -8.4036  -45.0360 C.3       3 UNK        -0.1800 
     59 N           0.6835  -10.3104  -46.5876 N.am      3 UNK        -0.5000 
     60 C           1.8821  -10.6876  -47.0607 C.2       2 UNK         0.5000 
     61 O           2.9295  -10.6006  -46.4193 O.2       2 UNK        -0.5000 
     62 CA          1.8750  -11.3486  -48.4502 C.3       2 UNK         0.1400 
     63 CB          3.2017  -12.0454  -48.8049 C.3       2 UNK        -0.1800 
     64 N           0.7944  -12.3260  -48.4781 N.am      2 UNK        -0.5000 
     65 C          -0.0835  -12.5180  -49.4676 C.2       1 UNK         0.5000 
     66 O          -0.0373  -11.9427  -50.5554 O.2       1 UNK        -0.5000 
     67 C          -0.7367  -22.8593  -47.8861 C.2       11 UNK         0.5000 
     68 O          -0.7539  -23.7809  -48.7010 O.2       11 UNK        -0.5000 
     69 N          -1.8460  -22.3022  -47.3775 N.am      12 UNK        -0.5000 
     70 CA         -3.2091  -22.7499  -47.6690 C.3       12 UNK         0.1400 
     71 CB         -4.2204  -21.8148  -46.9899 C.3       12 UNK        -0.1800 
     72 C          -3.4566  -24.2058  -47.2415 C.2       12 UNK         0.5000 
     73 O          -4.0133  -24.9786  -48.0224 O.2       12 UNK        -0.5000 
     74 N          -3.0023  -24.5581  -46.0302 N.am      13 UNK        -0.5000 
     75 CA         -3.0621  -25.9123  -45.4829 C.3       13 UNK         0.1400 
     76 CB         -2.6778  -25.8861  -43.9960 C.3       13 UNK        -0.1800 
     77 C          -2.1819  -26.9069  -46.2606 C.2       13 UNK         0.5000 
     78 O          -2.6331  -28.0183  -46.5372 O.2       13 UNK        -0.5000 
     79 N          -0.9622  -26.4851  -46.6255 N.am      14 UNK        -0.5000 
     80 CA         -0.0108  -27.2696  -47.4166 C.3       14 UNK         0.1400 
     81 CB          1.3526  -26.5623  -47.4357 C.3       14 UNK        -0.1800 
     82 C          -0.5027  -27.5421  -48.8502 C.2       14 UNK         0.5000 
     83 O          -0.3498  -28.6606  -49.3425 O.2       14 UNK        -0.5000 
     84 N          -1.1069  -26.5267  -49.4823 N.am      15 UNK        -0.5000 
     85 CA         -1.7346  -26.6237  -50.8016 C.3       15 UNK         0.1400 
     86 CB         -1.9627  -25.2052  -51.3502 C.3       15 UNK        -0.1800 
     87 C          -3.0665  -27.3989  -50.7853 C.2       15 UNK         0.5000 
     88 O          -3.4942  -27.8753  -51.8373 O.2       15 UNK        -0.5000 
     89 N          -3.7027  -27.4781  -49.6060 N.am      16 UNK        -0.5000 
     90 CA         -5.0598  -27.9706  -49.3488 C.3       16 UNK         0.1400 
     91 CB         -5.1600  -29.4876  -49.6102 C.3       16 UNK        -0.1800 
     92 C          -6.1110  -27.1402  -50.1153 C.2       16 UNK         0.5000 
     93 O          -7.0251  -27.6950  -50.7291 O.2       16 UNK        -0.5000 
     94 N          -5.9264  -25.8155  -50.0917 N.am      17 UNK        -0.5000 
     95 CA         -6.6852  -24.8364  -50.8596 C.3       17 UNK         0.1400 
     96 CB         -6.1894  -24.8216  -52.3239 C.3       17 UNK        -0.1800 
     97 C          -6.5959  -23.4793  -50.1415 C.2       17 UNK         0.5000 
     98 O          -6.9691  -23.3956  -48.9704 O.2       17 UNK        -0.5000 
     99 N          -6.1071  -22.4474  -50.8367 N.am      18 UNK        -0.5000 
    100 CA        -5.8900  -21.1001  -50.3254 C.3       18 UNK         0.1400 
    101 CB        -7.0681  -20.1994  -50.7315 C.3       18 UNK        -0.1800 
    102 C         -4.5722  -20.5676  -50.9011 C.2       18 UNK         0.5000 
    103 O         -4.2045  -20.9328  -52.0202 O.2       18 UNK        -0.5000 
    104 N         -3.9052  -19.6926  -50.1394 N.am      19 UNK        -0.5000 
    105 CA        -2.6515  -19.0425  -50.5329 C.3       19 UNK         0.1400 
    106 CB        -1.8416  -18.7195  -49.2711 C.3       19 UNK        -0.1800 
    107 C         -2.8667  -17.7797  -51.3920 C.2       19 UNK         0.5000 
    108 O         -1.8934  -17.1844  -51.8509 O.2       19 UNK        -0.5000 
    109 N         -4.1287  -17.3712  -51.5857 N.am      20 UNK        -0.5000 
    110 CA        -4.5384  -16.2622  -52.4443 C.3       20 UNK         0.1400 
    111 CB        -6.0257  -15.9625  -52.1920 C.3       20 UNK        -0.1800 
    112 C         -4.2615  -16.5965  -53.9221 C.2       20 UNK         0.5000 
    113 O         -5.0568  -17.2966  -54.5500 O.2       20 UNK        -0.5000 
    114 N         -3.0967  -16.1549  -54.4146 N.am      21 UNK        -0.5000 
    115 CA        -2.5054  -16.3708  -55.7437 C.3       21 UNK         0.1400 
    116 CB        -3.4289  -15.8503  -56.8624 C.3       21 UNK        -0.1800 
    117 C         -2.0383  -17.8149  -56.0318 C.2       21 UNK         0.5000 
    118 O         -1.1272  -17.9868  -56.8430 O.2       21 UNK        -0.5000 
    119 N         -2.6341  -18.8092  -55.3616 N.am      22 UNK        -0.5000 
    120 CA        -2.4009  -20.2553  -55.5182 C.3       22 UNK         0.1400 
    121 C         -2.8739  -20.8169  -56.8966 C.2       22 UNK         0.5000 
    122 N         -2.6859  -22.1048  -57.1560 N.am      22 UNK        -0.7600 
    123 O         -3.4506  -20.1186  -57.7282 O.2       22 UNK        -0.5000 
    124 C124       -0.9471  -20.6833  -55.1569 C.3       23 UNK        -0.0398 
    125 S125       -0.5217  -20.3474  -53.4152 S.3       23 UNK        -0.2404 
    126 C126        0.7401  -19.0445  -53.5788 C.3       23 UNK        -0.0205 
    127 H127       -3.4071  -13.1818  -45.5060 H         1 UNK         0.0600 
    128 H128       -2.5083  -11.7247  -45.0654 H         1 UNK         0.0600 
    129 H129       -1.6796  -13.2776  -45.1286 H         1 UNK         0.0600 
    130 H130       -1.5557  -14.3786  -47.2767 H         1 UNK         0.3000 
    131 H131       -2.0902  -13.1796  -49.7498 H         1 UNK         0.0600 
    132 H132       -0.6223  -14.9617  -50.6851 H         1 UNK         0.0800 
    133 H133       -1.7553  -15.5799  -49.5294 H         1 UNK         0.0800 
    134 H134        1.7108  -15.0101  -50.6052 H         1 UNK         0.0800 
    135 H135        2.7581  -15.5420  -49.3206 H         1 UNK         0.0800 
    136 H136        0.7494  -16.6767  -52.1957 H         1 UNK         0.1150 
    137 H137        2.1881  -20.7097  -51.9950 H         1 UNK         0.1150 
    138 H138        3.1210  -17.9417  -48.8587 H         1 UNK         0.1150 
    139 H139        3.4040  -21.4964  -50.1234 H         1 UNK         0.0800 
    140 H140        4.5409  -20.2938  -49.5600 H         1 UNK         0.0800 
    141 H141        0.9293  -21.2677  -49.2391 H         1 UNK         0.0800 
    142 H142        0.5228  -20.2290  -47.8937 H         1 UNK         0.0800 
    143 H143        1.3399  -23.1510  -47.5547 H         1 UNK         0.0600 
    144 H144        0.7567  -21.1463  -45.6254 H         1 UNK         0.3000 
    145 H145        0.0236  -23.4475  -42.9423 H         1 UNK         0.0600 
    146 H146        1.7764  -22.0141  -41.9437 H         1 UNK         0.0600 
    147 H147        2.4869  -23.1068  -43.1228 H         1 UNK         0.0600 
    148 H148        2.2393  -21.4149  -43.5340 H         1 UNK         0.0600 
    149 H149       -0.0784  -20.6079  -43.0215 H         1 UNK         0.3000 
    150 H150       -3.5615  -20.3216  -43.8621 H         1 UNK         0.0600 
    151 H151       -3.3842  -20.7760  -41.4041 H         1 UNK         0.0600 
    152 H152       -3.5078  -19.0563  -41.7431 H         1 UNK         0.0600 
    153 H153       -1.9495  -19.7597  -41.3172 H         1 UNK         0.0600 
    154 H154       -1.6652  -18.3027  -43.3228 H         1 UNK         0.3000 
    155 H155       -0.4372  -17.8947  -46.6915 H         1 UNK         0.0600 
    156 H156       -2.2043  -16.2655  -44.7878 H         1 UNK         0.0600 
    157 H157       -2.4691  -16.5371  -46.5046 H         1 UNK         0.0600 
    158 H158       -1.1006  -15.5675  -45.9661 H         1 UNK         0.0600 
    159 H159        0.3760  -16.5673  -44.3554 H         1 UNK         0.3000 
    160 H160        2.9199  -18.8624  -43.2899 H         1 UNK         0.0600 
    161 H161        2.9248  -16.0659  -44.5455 H         1 UNK         0.0600 
    162 H162        3.9190  -17.4280  -45.0347 H         1 UNK         0.0600 
    163 H163        4.1624  -16.6940  -43.4563 H         1 UNK         0.0600 
    164 H164        1.8501  -16.3763  -42.2798 H         1 UNK         0.3000 
    165 H165       -0.4602  -17.8487  -39.9924 H         1 UNK         0.0600 
    166 H166        0.8861  -16.5115  -38.3989 H         1 UNK         0.0600 
    167 H167        1.7664  -17.9586  -38.8628 H         1 UNK         0.0600 
    168 H168        2.2113  -16.4047  -39.5581 H         1 UNK         0.0600 
    169 H169        0.2997  -15.1393  -40.5165 H         1 UNK         0.3000 
    170 H170       -2.0311  -14.5017  -43.1224 H         1 UNK         0.0600 
    171 H171       -3.4459  -14.4204  -41.0675 H         1 UNK         0.0600 
    172 H172       -2.1336  -13.6507  -40.1826 H         1 UNK         0.0600 
    173 H173       -2.8993  -12.8185  -41.5367 H         1 UNK         0.0600 
    174 H174       -0.4143  -12.6806  -41.7430 H         1 UNK         0.3000 
    175 H175        1.7491  -12.1770  -42.1505 H         1 UNK         0.0600 
    176 H176        3.3342  -14.0505  -42.7199 H         1 UNK         0.0600 
    177 H177        3.1763  -13.6483  -44.4275 H         1 UNK         0.0600 
    178 H178        3.8895  -12.4913  -43.3085 H         1 UNK         0.0600 
    179 H179        2.0694  -11.5783  -44.9373 H         1 UNK         0.3000 
    180 H180       -0.7306   -9.4963  -45.3485 H         1 UNK         0.0600 
    181 H181        2.1513   -8.5522  -44.9189 H         1 UNK         0.0600 
    182 H182        0.7175   -7.9197  -44.1273 H         1 UNK         0.0600 
    183 H183        0.9221   -7.7057  -45.8586 H         1 UNK         0.0600 
    184 H184       -0.1135  -10.4739  -47.1914 H         1 UNK         0.3000 
    185 H185        1.6883  -10.5565  -49.1782 H         1 UNK         0.0600 
    186 H186        4.0292  -11.3351  -48.8092 H         1 UNK         0.0600 
    187 H187        3.4443  -12.8337  -48.0912 H         1 UNK         0.0600 
    188 H188        3.1552  -12.4962  -49.7963 H         1 UNK         0.0600 
    189 H189        0.6643  -12.8583  -47.6290 H         1 UNK         0.3000 
    190 H190       -1.7599  -21.5106  -46.7436 H         1 UNK         0.3000 
    191 H191       -3.3569  -22.6907  -48.7492 H         1 UNK         0.0600 
    192 H192       -4.0723  -21.7773  -45.9110 H         1 UNK         0.0600 
    193 H193       -5.2436  -22.1492  -47.1633 H         1 UNK         0.0600 
    194 H194       -4.1365  -20.7976  -47.3704 H         1 UNK         0.0600 
    195 H195       -2.5873  -23.8469  -45.4361 H         1 UNK         0.3000 
    196 H196       -4.0959  -26.2560  -45.5583 H         1 UNK         0.0600 
    197 H197       -2.7285  -26.8850  -43.5610 H         1 UNK         0.0600 
    198 H198       -3.3541  -25.2483  -43.4266 H         1 UNK         0.0600 
    199 H199       -1.6643  -25.5128  -43.8470 H         1 UNK         0.0600 
    200 H200       -0.6443  -25.5739  -46.3064 H         1 UNK         0.3000 
    201 H201        0.1165  -28.2344  -46.9213 H         1 UNK         0.0600 
    202 H202        1.7429  -26.4306  -46.4264 H         1 UNK         0.0600 
    203 H203        1.2885  -25.5786  -47.9009 H         1 UNK         0.0600 
    204 H204        2.0865  -27.1433  -47.9953 H         1 UNK         0.0600 
    205 H205       -1.1287  -25.6119  -49.0375 H         1 UNK         0.3000 
    206 H206       -1.0519  -27.1472  -51.4740 H         1 UNK         0.0600 
    207 H207       -1.0245  -24.6553  -51.4264 H         1 UNK         0.0600 
    208 H208       -2.4036  -25.2354  -52.3473 H         1 UNK         0.0600 
    209 H209       -2.6355  -24.6313  -50.7111 H         1 UNK         0.0600 
    210 H210       -3.2649  -27.0152  -48.8203 H         1 UNK         0.3000 
    211 H211       -5.2492  -27.8042  -48.2874 H         1 UNK         0.0600 
    212 H212       -5.0362  -29.7292  -50.6661 H         1 UNK         0.0600 
    213 H213       -6.1319  -29.8722  -49.2993 H         1 UNK         0.0600 
    214 H214       -4.4005  -30.0329  -49.0497 H         1 UNK         0.0600 
    215 H215       -5.2032  -25.4394  -49.4821 H         1 UNK         0.3000 
    216 H216       -7.7395  -25.1199  -50.8532 H         1 UNK         0.0600 
    217 H217       -5.1301  -24.5696  -52.3907 H         1 UNK         0.0600 
    218 H218       -6.7486  -24.1049  -52.9265 H         1 UNK         0.0600 
    219 H219       -6.3219  -25.7969  -52.7926 H         1 UNK         0.0600 
    220 H220       -5.7572  -22.5991  -51.7742 H         1 UNK         0.3000 
    221 H221       -5.8142  -21.1172  -49.2379 H         1 UNK         0.0600 
    222 H222       -8.0083  -20.5778  -50.3298 H         1 UNK         0.0600 
    223 H223       -7.1701  -20.1345  -51.8157 H         1 UNK         0.0600 
    224 H224       -6.9381  -19.1856  -50.3511 H         1 UNK         0.0600 
    225 H225       -4.2779  -19.4306  -49.2382 H         1 UNK         0.3000 
    226 H226       -2.0636  -19.7431  -51.1251 H         1 UNK         0.0600 
    227 H227       -1.6541  -19.6241  -48.6956 H         1 UNK         0.0600 
    228 H228       -0.8696  -18.2966  -49.5280 H         1 UNK         0.0600 
    229 H229       -2.3565  -18.0069  -48.6266 H         1 UNK         0.0600 
    230 H230       -4.8700  -17.9253  -51.1866 H         1 UNK         0.3000 
    231 H231       -3.9639  -15.3752  -52.1686 H         1 UNK         0.0600 
    232 H232       -6.6555  -16.8296  -52.3955 H         1 UNK         0.0600 
    233 H233       -6.3720  -15.1481  -52.8296 H         1 UNK         0.0600 
    234 H234       -6.1966  -15.6607  -51.1585 H         1 UNK         0.0600 
    235 H235       -2.4805  -15.6914  -53.7599 H         1 UNK         0.3000 
    236 H236       -1.6039  -15.7563  -55.7576 H         1 UNK         0.0600 
    237 H237       -2.9243  -15.8868  -57.8287 H         1 UNK         0.0600 
    238 H238       -4.3378  -16.4457  -56.9517 H         1 UNK         0.0600 
    239 H239       -3.7193  -14.8146  -56.6864 H         1 UNK         0.0600 
    240 H240       -3.4223  -18.5558  -54.7797 H         1 UNK         0.3000 
    241 H241       -3.0691  -20.7198  -54.7918 H         1 UNK         0.0600 
    242 H242       -3.0048  -22.4726  -58.0392 H         1 UNK         0.3800 
    243 H243       -2.2549  -22.7281  -56.4916 H         1 UNK         0.3800 
    244 H244       -0.8137  -21.7565  -55.2941 H         1 UNK         0.0800 
    245 H245       -0.2226  -20.2120  -55.8214 H         1 UNK         0.0800 
    246 H246        1.5074  -19.3645  -54.2849 H         1 UNK         0.0800 
    247 H247        0.2744  -18.1529  -54.0009 H         1 UNK         0.0800 
@<TRIPOS>BOND
     1    1    2 1    
     2    1  127 1    
     3    1  128 1    
     4    1  129 1    
     5    2    3 2    
     6    2    4 am   BACKBONE|DICT|INTERRES
     7    4    5 1    
     8    4  130 1    
     9    5    6 1    
    10    5   65 1    
    11    5  131 1    
    12    6    7 1    
    13    6  132 1    
    14    6  133 1    
    15    7    8 1    
    16    8    9 1    
    17    8  134 1    
    18    8  135 1    
    19    9   10 ar   
    20    9   14 ar   
    21   10   11 ar   
    22   10  136 1    
    23   11   12 ar   
    24   11  126 1    
    25   12   13 ar   
    26   12  137 1    
    27   13   14 ar   
    28   13   15 1    
    29   14  138 1    
    30   15   16 1    
    31   15  139 1    
    32   15  140 1    
    33   16   17 1    
    34   17   18 1    
    35   17  141 1    
    36   17  142 1    
    37   18   19 1    
    38   18   67 1    
    39   18  143 1    
    40   19   20 am   BACKBONE|DICT|INTERRES
    41   19  144 1    
    42   20   21 2    
    43   20   22 1    
    44   22   23 1    
    45   22   24 1    
    46   22  145 1    
    47   23  146 1    
    48   23  147 1    
    49   23  148 1    
    50   24   25 am   BACKBONE|DICT|INTERRES
    51   24  149 1    
    52   25   26 2    
    53   25   27 1    
    54   27   28 1    
    55   27   29 1    
    56   27  150 1    
    57   28  151 1    
    58   28  152 1    
    59   28  153 1    
    60   29   30 am   BACKBONE|DICT|INTERRES
    61   29  154 1    
    62   30   31 2    
    63   30   32 1    
    64   32   33 1    
    65   32   34 1    
    66   32  155 1    
    67   33  156 1    
    68   33  157 1    
    69   33  158 1    
    70   34   35 am   BACKBONE|DICT|INTERRES
    71   34  159 1    
    72   35   36 2    
    73   35   37 1    
    74   37   38 1    
    75   37   39 1    
    76   37  160 1    
    77   38  161 1    
    78   38  162 1    
    79   38  163 1    
    80   39   40 am   BACKBONE|DICT|INTERRES
    81   39  164 1    
    82   40   41 2    
    83   40   42 1    
    84   42   43 1    
    85   42   44 1    
    86   42  165 1    
    87   43  166 1    
    88   43  167 1    
    89   43  168 1    
    90   44   45 am   BACKBONE|DICT|INTERRES
    91   44  169 1    
    92   45   46 2    
    93   45   47 1    
    94   47   48 1    
    95   47   49 1    
    96   47  170 1    
    97   48  171 1    
    98   48  172 1    
    99   48  173 1    
   100   49   50 am   BACKBONE|DICT|INTERRES
   101   49  174 1    
   102   50   51 2    
   103   50   52 1    
   104   52   53 1    
   105   52   54 1    
   106   52  175 1    
   107   53  176 1    
   108   53  177 1    
   109   53  178 1    
   110   54   55 am   BACKBONE|DICT|INTERRES
   111   54  179 1    
   112   55   56 2    
   113   55   57 1    
   114   57   58 1    
   115   57   59 1    
   116   57  180 1    
   117   58  181 1    
   118   58  182 1    
   119   58  183 1    
   120   59   60 am   BACKBONE|DICT|INTERRES
   121   59  184 1    
   122   60   61 2    
   123   60   62 1    
   124   62   63 1    
   125   62   64 1    
   126   62  185 1    
   127   63  186 1    
   128   63  187 1    
   129   63  188 1    
   130   64   65 am   BACKBONE|DICT|INTERRES
   131   64  189 1    
   132   65   66 2    
   133   67   68 2    
   134   67   69 am   BACKBONE|DICT|INTERRES
   135   69   70 1    
   136   69  190 1    
   137   70   71 1    
   138   70   72 1    
   139   70  191 1    
   140   71  192 1    
   141   71  193 1    
   142   71  194 1    
   143   72   73 2    
   144   72   74 am   BACKBONE|DICT|INTERRES
   145   74   75 1    
   146   74  195 1    
   147   75   76 1    
   148   75   77 1    
   149   75  196 1    
   150   76  197 1    
   151   76  198 1    
   152   76  199 1    
   153   77   78 2    
   154   77   79 am   BACKBONE|DICT|INTERRES
   155   79   80 1    
   156   79  200 1    
   157   80   81 1    
   158   80   82 1    
   159   80  201 1    
   160   81  202 1    
   161   81  203 1    
   162   81  204 1    
   163   82   83 2    
   164   82   84 am   BACKBONE|DICT|INTERRES
   165   84   85 1    
   166   84  205 1    
   167   85   86 1    
   168   85   87 1    
   169   85  206 1    
   170   86  207 1    
   171   86  208 1    
   172   86  209 1    
   173   87   88 2    
   174   87   89 am   BACKBONE|DICT|INTERRES
   175   89   90 1    
   176   89  210 1    
   177   90   91 1    
   178   90   92 1    
   179   90  211 1    
   180   91  212 1    
   181   91  213 1    
   182   91  214 1    
   183   92   93 2    
   184   92   94 am   BACKBONE|DICT|INTERRES
   185   94   95 1    
   186   94  215 1    
   187   95   96 1    
   188   95   97 1    
   189   95  216 1    
   190   96  217 1    
   191   96  218 1    
   192   96  219 1    
   193   97   98 2    
   194   97   99 am   BACKBONE|DICT|INTERRES
   195   99  100 1    
   196   99  220 1    
   197  100  101 1    
   198  100  102 1    
   199  100  221 1    
   200  101  222 1    
   201  101  223 1    
   202  101  224 1    
   203  102  103 2    
   204  102  104 am   BACKBONE|DICT|INTERRES
   205  104  105 1    
   206  104  225 1    
   207  105  106 1    
   208  105  107 1    
   209  105  226 1    
   210  106  227 1    
   211  106  228 1    
   212  106  229 1    
   213  107  108 2    
   214  107  109 am   BACKBONE|DICT|INTERRES
   215  109  110 1    
   216  109  230 1    
   217  110  111 1    
   218  110  112 1    
   219  110  231 1    
   220  111  232 1    
   221  111  233 1    
   222  111  234 1    
   223  112  113 2    
   224  112  114 am   BACKBONE|DICT|INTERRES
   225  114  115 1    
   226  114  235 1    
   227  115  116 1    
   228  115  117 1    
   229  115  236 1    
   230  116  237 1    
   231  116  238 1    
   232  116  239 1    
   233  117  118 2    
   234  117  119 am   BACKBONE|DICT|INTERRES
   235  119  120 1    
   236  119  240 1    
   237  120  121 1    
   238  120  124 1    
   239  120  241 1    
   240  121  122 am   BACKBONE|DICT|INTERRES
   241  121  123 2    
   242  122  242 1    
   243  122  243 1    
   244  124  125 1    
   245  124  244 1    
   246  124  245 1    
   247  125  126 1    
   248  126  246 1    
   249  126  247 1    
@<TRIPOS>SUBSTRUCTURE
     1 UNK         1 GROUP             0       ****    0 ROOT    
