@<TRIPOS>MOLECULE
3R540
247   249    1
SMALL
USER_CHARGES


@<TRIPOS>ATOM
      1 CA         -2.3758  -13.5294  -42.1394 C.3       0 UNK        -0.1800 
      2 C          -2.9874  -12.8680  -43.3666 C.2       0 UNK         0.5000 
      3 O          -2.7426  -11.6872  -43.6126 O.2       0 UNK        -0.5000 
      4 N          -3.7857  -13.6242  -44.1316 N.am      1 UNK        -0.5000 
      5 CA         -4.4124  -13.1869  -45.3858 C.3       1 UNK         0.1400 
      6 C6         -5.5288  -14.1781  -45.8090 C.3       23 UNK        -0.0398 
      7 S7         -6.4995  -13.6422  -47.2629 S.3       23 UNK        -0.2404 
      8 C8         -6.6023  -15.1709  -48.2518 C.3       23 UNK        -0.0205 
      9 C9         -5.2629  -15.6212  -48.8248 C.ar      23 UNK        -0.0193 
     10 C10        -4.6837  -14.9356  -49.8997 C.ar      23 UNK        -0.1150 
     11 C11        -3.4891  -15.3881  -50.4713 C.ar      23 UNK        -0.0193 
     12 C12        -2.8847  -16.5413  -49.9646 C.ar      23 UNK        -0.1150 
     13 C13        -3.4382  -17.2232  -48.8796 C.ar      23 UNK        -0.0193 
     14 C14        -4.6266  -16.7567  -48.3112 C.ar      23 UNK        -0.1150 
     15 C15        -2.7090  -18.4236  -48.2973 C.3       23 UNK        -0.0205 
     16 S16        -3.6885  -19.9561  -48.3474 S.3       23 UNK        -0.2404 
     17 C17        -3.9745  -20.2885  -46.5768 C.3       23 UNK        -0.0398 
     18 CA         -3.4838  -21.6951  -46.1572 C.3       11 UNK         0.1400 
     19 N          -2.0183  -21.8332  -46.1298 N.am      11 UNK        -0.5000 
     20 C          -1.3844  -23.0068  -45.9714 C.2       10 UNK         0.5000 
     21 O          -1.9693  -24.0845  -45.8740 O.2       10 UNK        -0.5000 
     22 CA          0.1469  -22.9860  -45.8211 C.3       10 UNK         0.1400 
     23 CB          0.8513  -22.8159  -47.1742 C.3       10 UNK        -0.1800 
     24 N           0.5990  -21.9687  -44.8734 N.am      10 UNK        -0.5000 
     25 C           0.3311  -21.9987  -43.5600 C.2       9 UNK         0.5000 
     26 O          -0.2863  -22.9120  -43.0143 O.2       9 UNK        -0.5000 
     27 CA          0.7919  -20.7973  -42.7147 C.3       9 UNK         0.1400 
     28 CB          2.2483  -20.9790  -42.2630 C.3       9 UNK        -0.1800 
     29 N           0.6496  -19.5203  -43.4119 N.am      9 UNK        -0.5000 
     30 C          -0.5144  -18.9987  -43.8247 C.2       8 UNK         0.5000 
     31 O          -1.6131  -19.5135  -43.6144 O.2       8 UNK        -0.5000 
     32 CA         -0.4248  -17.7241  -44.6836 C.3       8 UNK         0.1400 
     33 CB         -0.1924  -16.4821  -43.8088 C.3       8 UNK        -0.1800 
     34 N           0.6153  -17.8206  -45.7123 N.am      8 UNK        -0.5000 
     35 C           0.6317  -18.7485  -46.6817 C.2       7 UNK         0.5000 
     36 O          -0.2474  -19.5967  -46.8251 O.2       7 UNK        -0.5000 
     37 CA          1.8613  -18.7790  -47.6033 C.3       7 UNK         0.1400 
     38 CB          1.7552  -17.7380  -48.7270 C.3       7 UNK        -0.1800 
     39 N           3.0990  -18.5787  -46.8522 N.am      7 UNK        -0.5000 
     40 C           3.6313  -19.4937  -46.0297 C.2       6 UNK         0.5000 
     41 O           3.1618  -20.6190  -45.8641 O.2       6 UNK        -0.5000 
     42 CA          4.8735  -19.0638  -45.2283 C.3       6 UNK         0.1400 
     43 CB          6.1486  -19.2484  -46.0645 C.3       6 UNK        -0.1800 
     44 N           4.7934  -17.6774  -44.7658 N.am      6 UNK        -0.5000 
     45 C           3.9030  -17.2277  -43.8702 C.2       5 UNK         0.5000 
     46 O           3.0738  -17.9447  -43.3120 O.2       5 UNK        -0.5000 
     47 CA          3.9104  -15.7147  -43.5846 C.3       5 UNK         0.1400 
     48 CB          4.8852  -15.3870  -42.4440 C.3       5 UNK        -0.1800 
     49 N           4.2418  -14.8991  -44.7570 N.am      5 UNK        -0.5000 
     50 C           3.5132  -14.8488  -45.8793 C.2       4 UNK         0.5000 
     51 O           2.5021  -15.5286  -46.0720 O.2       4 UNK        -0.5000 
     52 CA          4.0291  -13.9262  -46.9888 C.3       4 UNK         0.1400 
     53 CB          4.9135  -14.7100  -47.9721 C.3       4 UNK        -0.1800 
     54 N           2.8912  -13.3627  -47.7072 N.am      4 UNK        -0.5000 
     55 C           2.7891  -12.0945  -48.1247 C.2       3 UNK         0.5000 
     56 O           3.6812  -11.2577  -47.9767 O.2       3 UNK        -0.5000 
     57 CA          1.4854  -11.6760  -48.8382 C.3       3 UNK         0.1400 
     58 CB          1.7328  -11.4964  -50.3449 C.3       3 UNK        -0.1800 
     59 N           0.3807  -12.6194  -48.6642 N.am      3 UNK        -0.5000 
     60 C          -0.3164  -12.8040  -47.5377 C.2       2 UNK         0.5000 
     61 O          -0.1156  -12.1847  -46.4907 O.2       2 UNK        -0.5000 
     62 CA         -1.3660  -13.9256  -47.6050 C.3       2 UNK         0.1400 
     63 CB         -0.6725  -15.2895  -47.5472 C.3       2 UNK        -0.1800 
     64 N          -2.3585  -13.8613  -46.5400 N.am      2 UNK        -0.5000 
     65 C          -3.3685  -12.9840  -46.5075 C.2       1 UNK         0.5000 
     66 O          -3.5035  -12.0614  -47.3138 O.2       1 UNK        -0.5000 
     67 C          -4.1391  -22.1072  -44.8228 C.2       11 UNK         0.5000 
     68 O          -5.2139  -22.7072  -44.8457 O.2       11 UNK        -0.5000 
     69 N          -3.4855  -21.8042  -43.6915 N.am      12 UNK        -0.5000 
     70 CA         -3.9203  -22.2305  -42.3599 C.3       12 UNK         0.1400 
     71 CB         -3.0992  -21.5015  -41.2858 C.3       12 UNK        -0.1800 
     72 C          -3.8441  -23.7585  -42.1712 C.2       12 UNK         0.5000 
     73 O          -4.7314  -24.3330  -41.5391 O.2       12 UNK        -0.5000 
     74 N          -2.8021  -24.3873  -42.7331 N.am      13 UNK        -0.5000 
     75 CA         -2.6123  -25.8360  -42.7421 C.3       13 UNK         0.1400 
     76 CB         -1.1626  -26.1713  -43.1275 C.3       13 UNK        -0.1800 
     77 C          -3.6135  -26.5536  -43.6653 C.2       13 UNK         0.5000 
     78 O          -4.2522  -27.5111  -43.2254 O.2       13 UNK        -0.5000 
     79 N          -3.7461  -26.0804  -44.9122 N.am      14 UNK        -0.5000 
     80 CA         -4.6667  -26.6292  -45.9064 C.3       14 UNK         0.1400 
     81 CB         -4.1574  -27.9838  -46.4426 C.3       14 UNK        -0.1800 
     82 C          -4.9136  -25.6386  -47.0528 C.2       14 UNK         0.5000 
     83 O          -6.0495  -25.2050  -47.2477 O.2       14 UNK        -0.5000 
     84 N          -3.8567  -25.3244  -47.8094 N.am      15 UNK        -0.5000 
     85 CA         -3.8832  -24.5185  -49.0259 C.3       15 UNK         0.1400 
     86 CB         -4.5217  -25.3320  -50.1669 C.3       15 UNK        -0.1800 
     87 C          -2.4441  -24.1245  -49.3895 C.2       15 UNK         0.5000 
     88 O          -1.5160  -24.8793  -49.0886 O.2       15 UNK        -0.5000 
     89 N          -2.2849  -22.9792  -50.0598 N.am      16 UNK        -0.5000 
     90 CA         -1.0123  -22.4910  -50.5846 C.3       16 UNK         0.1400 
     91 CB         -0.8787  -20.9860  -50.3082 C.3       16 UNK        -0.1800 
     92 C          -0.9781  -22.7844  -52.0879 C.2       16 UNK         0.5000 
     93 O          -1.7258  -22.1590  -52.8427 O.2       16 UNK        -0.5000 
     94 N          -0.1500  -23.7628  -52.4811 N.am      17 UNK        -0.5000 
     95 CA          0.0102  -24.2861  -53.8457 C.3       17 UNK         0.1400 
     96 CB          0.6456  -23.2263  -54.7685 C.3       17 UNK        -0.1800 
     97 C          -1.3000  -24.8739  -54.4152 C.2       17 UNK         0.5000 
     98 O          -1.6114  -24.6790  -55.5910 O.2       17 UNK        -0.5000 
     99 N          -2.0495  -25.5673  -53.5436 N.am      18 UNK        -0.5000 
    100 CA        -3.3640  -26.1797  -53.7796 C.3       18 UNK         0.1400 
    101 CB        -3.2849  -27.2726  -54.8666 C.3       18 UNK        -0.1800 
    102 C         -4.5004  -25.1637  -54.0383 C.2       18 UNK         0.5000 
    103 O         -5.5619  -25.5526  -54.5285 O.2       18 UNK        -0.5000 
    104 N         -4.2824  -23.8941  -53.6755 N.am      19 UNK        -0.5000 
    105 CA        -5.2534  -22.8098  -53.7531 C.3       19 UNK         0.1400 
    106 CB        -5.2642  -22.2229  -55.1823 C.3       19 UNK        -0.1800 
    107 C         -4.9291  -21.7892  -52.6467 C.2       19 UNK         0.5000 
    108 O         -4.6462  -22.1867  -51.5143 O.2       19 UNK        -0.5000 
    109 N         -4.9517  -20.5001  -52.9894 N.am      20 UNK        -0.5000 
    110 CA        -4.5255  -19.3935  -52.1436 C.3       20 UNK         0.1400 
    111 CB        -5.7620  -18.6218  -51.6476 C.3       20 UNK        -0.1800 
    112 C         -3.5642  -18.5377  -52.9771 C.2       20 UNK         0.5000 
    113 O         -3.9143  -17.4309  -53.3872 O.2       20 UNK        -0.5000 
    114 N         -2.3965  -19.1094  -53.2953 N.am      21 UNK        -0.5000 
    115 CA        -1.3552  -18.4554  -54.0828 C.3       21 UNK         0.1400 
    116 CB        -0.3983  -19.5240  -54.6293 C.3       21 UNK        -0.1800 
    117 C         -0.5833  -17.4075  -53.2596 C.2       21 UNK         0.5000 
    118 O         -0.1546  -17.7045  -52.1429 O.2       21 UNK        -0.5000 
    119 N         -0.3859  -16.2272  -53.8568 N.am      22 UNK        -0.5000 
    120 CA         0.4417  -15.1208  -53.3412 C.3       22 UNK         0.1400 
    121 C          1.5756  -14.7121  -54.3303 C.2       22 UNK         0.5000 
    122 N          1.8101  -15.4342  -55.4205 N.am      22 UNK        -0.7600 
    123 O          2.2786  -13.7327  -54.0978 O.2       22 UNK        -0.5000 
    124 C124       -0.4298  -13.9030  -52.9186 C.3       23 UNK        -0.0398 
    125 S125       -1.1494  -14.1262  -51.2614 S.3       23 UNK        -0.2404 
    126 C126       -2.8494  -14.6538  -51.6439 C.3       23 UNK        -0.0205 
    127 H127       -2.7225  -14.5556  -42.0153 H         1 UNK         0.0600 
    128 H128       -2.6392  -12.9714  -41.2408 H         1 UNK         0.0600 
    129 H129       -1.2893  -13.5462  -42.2259 H         1 UNK         0.0600 
    130 H130       -3.9683  -14.5785  -43.8558 H         1 UNK         0.3000 
    131 H131       -4.8799  -12.2174  -45.1992 H         1 UNK         0.0600 
    132 H132       -6.2325  -14.3062  -44.9855 H         1 UNK         0.0800 
    133 H133       -5.1048  -15.1659  -45.9913 H         1 UNK         0.0800 
    134 H134       -7.2970  -15.0037  -49.0760 H         1 UNK         0.0800 
    135 H135       -7.0460  -15.9600  -47.6426 H         1 UNK         0.0800 
    136 H136       -5.1709  -14.0552  -50.2944 H         1 UNK         0.1150 
    137 H137       -1.9615  -16.8912  -50.4043 H         1 UNK         0.1150 
    138 H138       -5.0606  -17.2891  -47.4768 H         1 UNK         0.1150 
    139 H139       -1.7790  -18.5973  -48.8391 H         1 UNK         0.0800 
    140 H140       -2.4173  -18.1848  -47.2771 H         1 UNK         0.0800 
    141 H141       -5.0511  -20.1927  -46.4223 H         1 UNK         0.0800 
    142 H142       -3.5153  -19.5265  -45.9462 H         1 UNK         0.0800 
    143 H143       -3.8517  -22.4040  -46.9002 H         1 UNK         0.0600 
    144 H144       -1.4669  -20.9855  -46.2373 H         1 UNK         0.3000 
    145 H145        0.4475  -23.9567  -45.4211 H         1 UNK         0.0600 
    146 H146        1.9351  -22.8288  -47.0596 H         1 UNK         0.0600 
    147 H147        0.5884  -23.6310  -47.8482 H         1 UNK         0.0600 
    148 H148        0.5777  -21.8844  -47.6652 H         1 UNK         0.0600 
    149 H149        1.1415  -21.2009  -45.2495 H         1 UNK         0.3000 
    150 H150        0.1634  -20.7586  -41.8231 H         1 UNK         0.0600 
    151 H151        2.3763  -21.9183  -41.7236 H         1 UNK         0.0600 
    152 H152        2.5562  -20.1751  -41.5941 H         1 UNK         0.0600 
    153 H153        2.9342  -20.9895  -43.1104 H         1 UNK         0.0600 
    154 H154        1.5070  -19.0033  -43.5885 H         1 UNK         0.3000 
    155 H155       -1.3825  -17.6012  -45.1920 H         1 UNK         0.0600 
    156 H156        0.7450  -16.5470  -43.2578 H         1 UNK         0.0600 
    157 H157       -0.9924  -16.3693  -43.0764 H         1 UNK         0.0600 
    158 H158       -0.1666  -15.5696  -44.4035 H         1 UNK         0.0600 
    159 H159        1.3641  -17.1363  -45.6793 H         1 UNK         0.3000 
    160 H160        1.8956  -19.7660  -48.0697 H         1 UNK         0.0600 
    161 H161        1.8342  -16.7208  -48.3466 H         1 UNK         0.0600 
    162 H162        0.8041  -17.8238  -49.2552 H         1 UNK         0.0600 
    163 H163        2.5464  -17.8767  -49.4637 H         1 UNK         0.0600 
    164 H164        3.5085  -17.6570  -46.8864 H         1 UNK         0.3000 
    165 H165        4.9429  -19.7103  -44.3508 H         1 UNK         0.0600 
    166 H166        7.0399  -19.0208  -45.4796 H         1 UNK         0.0600 
    167 H167        6.2423  -20.2789  -46.4099 H         1 UNK         0.0600 
    168 H168        6.1510  -18.6052  -46.9454 H         1 UNK         0.0600 
    169 H169        5.4404  -17.0191  -45.1735 H         1 UNK         0.3000 
    170 H170        2.9053  -15.4364  -43.2621 H         1 UNK         0.0600 
    171 H171        4.6481  -15.9654  -41.5499 H         1 UNK         0.0600 
    172 H172        5.9167  -15.6128  -42.7172 H         1 UNK         0.0600 
    173 H173        4.8324  -14.3331  -42.1702 H         1 UNK         0.0600 
    174 H174        5.0675  -14.3224  -44.6820 H         1 UNK         0.3000 
    175 H175        4.6185  -13.1306  -46.5280 H         1 UNK         0.0600 
    176 H176        4.3621  -15.5196  -48.4524 H         1 UNK         0.0600 
    177 H177        5.2998  -14.0590  -48.7566 H         1 UNK         0.0600 
    178 H178        5.7720  -15.1508  -47.4641 H         1 UNK         0.0600 
    179 H179        2.0956  -13.9788  -47.7989 H         1 UNK         0.3000 
    180 H180        1.1811  -10.7130  -48.4229 H         1 UNK         0.0600 
    181 H181        2.0290  -12.4334  -50.8187 H         1 UNK         0.0600 
    182 H182        2.5256  -10.7703  -50.5291 H         1 UNK         0.0600 
    183 H183        0.8382  -11.1333  -50.8515 H         1 UNK         0.0600 
    184 H184        0.1373  -13.1713  -49.4767 H         1 UNK         0.3000 
    185 H185       -1.9056  -13.8458  -48.5487 H         1 UNK         0.0600 
    186 H186       -0.1417  -15.4904  -48.4771 H         1 UNK         0.0600 
    187 H187        0.0474  -15.3313  -46.7334 H         1 UNK         0.0600 
    188 H188       -1.3839  -16.0969  -47.3983 H         1 UNK         0.0600 
    189 H189       -2.2823  -14.5434  -45.8025 H         1 UNK         0.3000 
    190 H190       -2.6398  -21.2448  -43.7417 H         1 UNK         0.3000 
    191 H191       -4.9646  -21.9345  -42.2401 H         1 UNK         0.0600 
    192 H192       -2.0421  -21.7585  -41.3414 H         1 UNK         0.0600 
    193 H193       -3.4470  -21.7637  -40.2860 H         1 UNK         0.0600 
    194 H194       -3.1870  -20.4197  -41.3879 H         1 UNK         0.0600 
    195 H195       -2.0787  -23.8319  -43.1777 H         1 UNK         0.3000 
    196 H196       -2.7764  -26.2022  -41.7264 H         1 UNK         0.0600 
    197 H197       -0.9965  -27.2492  -43.1189 H         1 UNK         0.0600 
    198 H198       -0.4569  -25.7276  -42.4250 H         1 UNK         0.0600 
    199 H199       -0.9117  -25.8091  -44.1242 H         1 UNK         0.0600 
    200 H200       -3.1843  -25.2816  -45.2055 H         1 UNK         0.3000 
    201 H201       -5.6313  -26.7962  -45.4222 H         1 UNK         0.0600 
    202 H202       -4.1582  -28.7471  -45.6648 H         1 UNK         0.0600 
    203 H203       -3.1418  -27.9083  -46.8323 H         1 UNK         0.0600 
    204 H204       -4.7937  -28.3494  -47.2496 H         1 UNK         0.0600 
    205 H205       -2.9336  -25.6558  -47.5548 H         1 UNK         0.3000 
    206 H206       -4.4657  -23.6119  -48.8503 H         1 UNK         0.0600 
    207 H207       -3.9900  -26.2687  -50.3375 H         1 UNK         0.0600 
    208 H208       -5.5637  -25.5712  -49.9559 H         1 UNK         0.0600 
    209 H209       -4.5086  -24.7710  -51.0978 H         1 UNK         0.0600 
    210 H210       -3.1135  -22.4801  -50.3761 H         1 UNK         0.3000 
    211 H211       -0.1723  -22.9928  -50.1008 H         1 UNK         0.0600 
    212 H212       -1.7039  -20.4170  -50.7352 H         1 UNK         0.0600 
    213 H213        0.0458  -20.5875  -50.7277 H         1 UNK         0.0600 
    214 H214       -0.8600  -20.7908  -49.2370 H         1 UNK         0.0600 
    215 H215        0.4037  -24.2288  -51.7752 H         1 UNK         0.3000 
    216 H216        0.7105  -25.1195  -53.7745 H         1 UNK         0.0600 
    217 H217        0.9245  -23.6622  -55.7284 H         1 UNK         0.0600 
    218 H218        1.5491  -22.8053  -54.3276 H         1 UNK         0.0600 
    219 H219       -0.0431  -22.4078  -54.9723 H         1 UNK         0.0600 
    220 H220       -1.6946  -25.6587  -52.6022 H         1 UNK         0.3000 
    221 H221       -3.6269  -26.6783  -52.8460 H         1 UNK         0.0600 
    222 H222       -3.1178  -26.8500  -55.8576 H         1 UNK         0.0600 
    223 H223       -2.4791  -27.9771  -54.6607 H         1 UNK         0.0600 
    224 H224       -4.2108  -27.8470  -54.9118 H         1 UNK         0.0600 
    225 H225       -3.3895  -23.6362  -53.2726 H         1 UNK         0.3000 
    226 H226       -6.2472  -23.2015  -53.5275 H         1 UNK         0.0600 
    227 H227       -5.4849  -22.9937  -55.9209 H         1 UNK         0.0600 
    228 H228       -6.0294  -21.4540  -55.2941 H         1 UNK         0.0600 
    229 H229       -4.2997  -21.7851  -55.4442 H         1 UNK         0.0600 
    230 H230       -5.1595  -20.2596  -53.9485 H         1 UNK         0.3000 
    231 H231       -3.9696  -19.7518  -51.2763 H         1 UNK         0.0600 
    232 H232       -6.3851  -19.2508  -51.0120 H         1 UNK         0.0600 
    233 H233       -6.3764  -18.2649  -52.4747 H         1 UNK         0.0600 
    234 H234       -5.4687  -17.7542  -51.0567 H         1 UNK         0.0600 
    235 H235       -2.1934  -20.0478  -52.9695 H         1 UNK         0.3000 
    236 H236       -1.8271  -17.9619  -54.9354 H         1 UNK         0.0600 
    237 H237        0.0779  -20.0864  -53.8249 H         1 UNK         0.0600 
    238 H238       -0.9294  -20.2312  -55.2664 H         1 UNK         0.0600 
    239 H239        0.3928  -19.0746  -55.2306 H         1 UNK         0.0600 
    240 H240       -0.7885  -16.0700  -54.7696 H         1 UNK         0.3000 
    241 H241        0.9882  -15.4650  -52.4611 H         1 UNK         0.0600 
    242 H242        1.2875  -16.2720  -55.6165 H         1 UNK         0.3800 
    243 H243        2.5538  -15.1557  -56.0417 H         1 UNK         0.3800 
    244 H244        0.1612  -12.9876  -52.8623 H         1 UNK         0.0800 
    245 H245       -1.2129  -13.7046  -53.6517 H         1 UNK         0.0800 
    246 H246       -2.8338  -15.3148  -52.5083 H         1 UNK         0.0800 
    247 H247       -3.4385  -13.7812  -51.9288 H         1 UNK         0.0800 
@<TRIPOS>BOND
     1    1    2 1    
     2    1  127 1    
     3    1  128 1    
     4    1  129 1    
     5    2    3 2    
     6    2    4 am   BACKBONE|DICT|INTERRES
     7    4    5 1    
     8    4  130 1    
     9    5    6 1    
    10    5   65 1    
    11    5  131 1    
    12    6    7 1    
    13    6  132 1    
    14    6  133 1    
    15    7    8 1    
    16    8    9 1    
    17    8  134 1    
    18    8  135 1    
    19    9   10 ar   
    20    9   14 ar   
    21   10   11 ar   
    22   10  136 1    
    23   11   12 ar   
    24   11  126 1    
    25   12   13 ar   
    26   12  137 1    
    27   13   14 ar   
    28   13   15 1    
    29   14  138 1    
    30   15   16 1    
    31   15  139 1    
    32   15  140 1    
    33   16   17 1    
    34   17   18 1    
    35   17  141 1    
    36   17  142 1    
    37   18   19 1    
    38   18   67 1    
    39   18  143 1    
    40   19   20 am   BACKBONE|DICT|INTERRES
    41   19  144 1    
    42   20   21 2    
    43   20   22 1    
    44   22   23 1    
    45   22   24 1    
    46   22  145 1    
    47   23  146 1    
    48   23  147 1    
    49   23  148 1    
    50   24   25 am   BACKBONE|DICT|INTERRES
    51   24  149 1    
    52   25   26 2    
    53   25   27 1    
    54   27   28 1    
    55   27   29 1    
    56   27  150 1    
    57   28  151 1    
    58   28  152 1    
    59   28  153 1    
    60   29   30 am   BACKBONE|DICT|INTERRES
    61   29  154 1    
    62   30   31 2    
    63   30   32 1    
    64   32   33 1    
    65   32   34 1    
    66   32  155 1    
    67   33  156 1    
    68   33  157 1    
    69   33  158 1    
    70   34   35 am   BACKBONE|DICT|INTERRES
    71   34  159 1    
    72   35   36 2    
    73   35   37 1    
    74   37   38 1    
    75   37   39 1    
    76   37  160 1    
    77   38  161 1    
    78   38  162 1    
    79   38  163 1    
    80   39   40 am   BACKBONE|DICT|INTERRES
    81   39  164 1    
    82   40   41 2    
    83   40   42 1    
    84   42   43 1    
    85   42   44 1    
    86   42  165 1    
    87   43  166 1    
    88   43  167 1    
    89   43  168 1    
    90   44   45 am   BACKBONE|DICT|INTERRES
    91   44  169 1    
    92   45   46 2    
    93   45   47 1    
    94   47   48 1    
    95   47   49 1    
    96   47  170 1    
    97   48  171 1    
    98   48  172 1    
    99   48  173 1    
   100   49   50 am   BACKBONE|DICT|INTERRES
   101   49  174 1    
   102   50   51 2    
   103   50   52 1    
   104   52   53 1    
   105   52   54 1    
   106   52  175 1    
   107   53  176 1    
   108   53  177 1    
   109   53  178 1    
   110   54   55 am   BACKBONE|DICT|INTERRES
   111   54  179 1    
   112   55   56 2    
   113   55   57 1    
   114   57   58 1    
   115   57   59 1    
   116   57  180 1    
   117   58  181 1    
   118   58  182 1    
   119   58  183 1    
   120   59   60 am   BACKBONE|DICT|INTERRES
   121   59  184 1    
   122   60   61 2    
   123   60   62 1    
   124   62   63 1    
   125   62   64 1    
   126   62  185 1    
   127   63  186 1    
   128   63  187 1    
   129   63  188 1    
   130   64   65 am   BACKBONE|DICT|INTERRES
   131   64  189 1    
   132   65   66 2    
   133   67   68 2    
   134   67   69 am   BACKBONE|DICT|INTERRES
   135   69   70 1    
   136   69  190 1    
   137   70   71 1    
   138   70   72 1    
   139   70  191 1    
   140   71  192 1    
   141   71  193 1    
   142   71  194 1    
   143   72   73 2    
   144   72   74 am   BACKBONE|DICT|INTERRES
   145   74   75 1    
   146   74  195 1    
   147   75   76 1    
   148   75   77 1    
   149   75  196 1    
   150   76  197 1    
   151   76  198 1    
   152   76  199 1    
   153   77   78 2    
   154   77   79 am   BACKBONE|DICT|INTERRES
   155   79   80 1    
   156   79  200 1    
   157   80   81 1    
   158   80   82 1    
   159   80  201 1    
   160   81  202 1    
   161   81  203 1    
   162   81  204 1    
   163   82   83 2    
   164   82   84 am   BACKBONE|DICT|INTERRES
   165   84   85 1    
   166   84  205 1    
   167   85   86 1    
   168   85   87 1    
   169   85  206 1    
   170   86  207 1    
   171   86  208 1    
   172   86  209 1    
   173   87   88 2    
   174   87   89 am   BACKBONE|DICT|INTERRES
   175   89   90 1    
   176   89  210 1    
   177   90   91 1    
   178   90   92 1    
   179   90  211 1    
   180   91  212 1    
   181   91  213 1    
   182   91  214 1    
   183   92   93 2    
   184   92   94 am   BACKBONE|DICT|INTERRES
   185   94   95 1    
   186   94  215 1    
   187   95   96 1    
   188   95   97 1    
   189   95  216 1    
   190   96  217 1    
   191   96  218 1    
   192   96  219 1    
   193   97   98 2    
   194   97   99 am   BACKBONE|DICT|INTERRES
   195   99  100 1    
   196   99  220 1    
   197  100  101 1    
   198  100  102 1    
   199  100  221 1    
   200  101  222 1    
   201  101  223 1    
   202  101  224 1    
   203  102  103 2    
   204  102  104 am   BACKBONE|DICT|INTERRES
   205  104  105 1    
   206  104  225 1    
   207  105  106 1    
   208  105  107 1    
   209  105  226 1    
   210  106  227 1    
   211  106  228 1    
   212  106  229 1    
   213  107  108 2    
   214  107  109 am   BACKBONE|DICT|INTERRES
   215  109  110 1    
   216  109  230 1    
   217  110  111 1    
   218  110  112 1    
   219  110  231 1    
   220  111  232 1    
   221  111  233 1    
   222  111  234 1    
   223  112  113 2    
   224  112  114 am   BACKBONE|DICT|INTERRES
   225  114  115 1    
   226  114  235 1    
   227  115  116 1    
   228  115  117 1    
   229  115  236 1    
   230  116  237 1    
   231  116  238 1    
   232  116  239 1    
   233  117  118 2    
   234  117  119 am   BACKBONE|DICT|INTERRES
   235  119  120 1    
   236  119  240 1    
   237  120  121 1    
   238  120  124 1    
   239  120  241 1    
   240  121  122 am   BACKBONE|DICT|INTERRES
   241  121  123 2    
   242  122  242 1    
   243  122  243 1    
   244  124  125 1    
   245  124  244 1    
   246  124  245 1    
   247  125  126 1    
   248  126  246 1    
   249  126  247 1    
@<TRIPOS>SUBSTRUCTURE
     1 UNK         1 GROUP             0       ****    0 ROOT    
