@<TRIPOS>MOLECULE
3R540
247   249    1
SMALL
USER_CHARGES


@<TRIPOS>ATOM
      1 CA         -5.3771  -13.2749  -49.8965 C.3       0 UNK        -0.1800 
      2 C          -4.1015  -13.7193  -49.1941 C.2       0 UNK         0.5000 
      3 O          -4.1799  -14.4851  -48.2348 O.2       0 UNK        -0.5000 
      4 N          -2.9492  -13.2246  -49.6733 N.am      1 UNK        -0.5000 
      5 CA         -1.5744  -13.5037  -49.2269 C.3       1 UNK         0.1400 
      6 C6         -0.9354  -14.7534  -49.8979 C.3       23 UNK        -0.0398 
      7 S7         -1.6572  -16.3772  -49.4668 S.3       23 UNK        -0.2404 
      8 C8         -0.2708  -17.1674  -48.5908 C.3       23 UNK        -0.0205 
      9 C9          0.6334  -17.9525  -49.5285 C.ar      23 UNK        -0.0193 
     10 C10         1.6145  -17.3114  -50.2917 C.ar      23 UNK        -0.1150 
     11 C11         2.4557  -18.0491  -51.1311 C.ar      23 UNK        -0.0193 
     12 C12         2.3243  -19.4391  -51.1876 C.ar      23 UNK        -0.1150 
     13 C13         1.3547  -20.0904  -50.4226 C.ar      23 UNK        -0.0193 
     14 C14         0.5038  -19.3402  -49.6078 C.ar      23 UNK        -0.1150 
     15 C15         1.2221  -21.6028  -50.4781 C.3       23 UNK        -0.0205 
     16 S16         2.3998  -22.4532  -49.3719 S.3       23 UNK        -0.2404 
     17 C17         1.9236  -21.8751  -47.7033 C.3       23 UNK        -0.0398 
     18 CA          0.8761  -22.7799  -47.0118 C.3       11 UNK         0.1400 
     19 N           0.9065  -22.6794  -45.5501 N.am      11 UNK        -0.5000 
     20 C           0.3191  -23.5714  -44.7403 C.2       10 UNK         0.5000 
     21 O          -0.3012  -24.5581  -45.1413 O.2       10 UNK        -0.5000 
     22 CA          0.4323  -23.3121  -43.2319 C.3       10 UNK         0.1400 
     23 CB          1.8339  -23.6775  -42.7194 C.3       10 UNK        -0.1800 
     24 N           0.1216  -21.9353  -42.8494 N.am      10 UNK        -0.5000 
     25 C          -1.1029  -21.3928  -42.8836 C.2       9 UNK         0.5000 
     26 O          -2.0695  -21.9241  -43.4313 O.2       9 UNK        -0.5000 
     27 CA         -1.2836  -20.0502  -42.1549 C.3       9 UNK         0.1400 
     28 CB         -0.5777  -20.0245  -40.7862 C.3       9 UNK        -0.1800 
     29 N          -0.7650  -18.9660  -42.9743 N.am      9 UNK        -0.5000 
     30 C          -1.5034  -18.1293  -43.7132 C.2       8 UNK         0.5000 
     31 O          -2.7345  -18.1161  -43.7083 O.2       8 UNK        -0.5000 
     32 CA         -0.7452  -17.1268  -44.6088 C.3       8 UNK         0.1400 
     33 CB         -0.7895  -15.7261  -43.9789 C.3       8 UNK        -0.1800 
     34 N           0.6537  -17.4834  -44.8609 N.am      8 UNK        -0.5000 
     35 C           1.0874  -18.5942  -45.4713 C.2       7 UNK         0.5000 
     36 O           0.3476  -19.4718  -45.9121 O.2       7 UNK        -0.5000 
     37 CA          2.6098  -18.7938  -45.5228 C.3       7 UNK         0.1400 
     38 CB          3.2370  -17.9848  -46.6683 C.3       7 UNK        -0.1800 
     39 N           3.2434  -18.4412  -44.2526 N.am      7 UNK        -0.5000 
     40 C           3.1064  -19.1414  -43.1170 C.2       6 UNK         0.5000 
     41 O           2.4451  -20.1765  -43.0254 O.2       6 UNK        -0.5000 
     42 CA          3.7919  -18.5637  -41.8662 C.3       6 UNK         0.1400 
     43 CB          5.2858  -18.9197  -41.8524 C.3       6 UNK        -0.1800 
     44 N           3.6344  -17.1119  -41.7707 N.am      6 UNK        -0.5000 
     45 C           2.4720  -16.4976  -41.5091 C.2       5 UNK         0.5000 
     46 O           1.4242  -17.0945  -41.2634 O.2       5 UNK        -0.5000 
     47 CA          2.4729  -14.9570  -41.5571 C.3       5 UNK         0.1400 
     48 CB          2.8084  -14.3775  -40.1747 C.3       5 UNK        -0.1800 
     49 N           3.3814  -14.3800  -42.5553 N.am      5 UNK        -0.5000 
     50 C           3.3096  -14.6020  -43.8738 C.2       4 UNK         0.5000 
     51 O           2.5334  -15.4058  -44.3903 O.2       4 UNK        -0.5000 
     52 CA          4.2793  -13.8018  -44.7621 C.3       4 UNK         0.1400 
     53 CB          5.6240  -14.5381  -44.8596 C.3       4 UNK        -0.1800 
     54 N           3.7495  -13.6211  -46.1170 N.am      4 UNK        -0.5000 
     55 C           2.7292  -12.8436  -46.5101 C.2       3 UNK         0.5000 
     56 O           2.3287  -12.8599  -47.6762 O.2       3 UNK        -0.5000 
     57 CA          2.0686  -11.8602  -45.5207 C.3       3 UNK         0.1400 
     58 CB          2.7297  -10.4756  -45.6085 C.3       3 UNK        -0.1800 
     59 N           0.6612  -11.7393  -45.8814 N.am      3 UNK        -0.5000 
     60 C          -0.3745  -11.9154  -45.0537 C.2       2 UNK         0.5000 
     61 O          -0.2601  -12.0402  -43.8337 O.2       2 UNK        -0.5000 
     62 CA         -1.7825  -11.9723  -45.6867 C.3       2 UNK         0.1400 
     63 CB         -2.5365  -10.6566  -45.4387 C.3       2 UNK        -0.1800 
     64 N          -1.8076  -12.2647  -47.1253 N.am      2 UNK        -0.5000 
     65 C          -1.3743  -13.3996  -47.6951 C.2       1 UNK         0.5000 
     66 O          -0.8478  -14.3124  -47.0616 O.2       1 UNK        -0.5000 
     67 C          -0.5487  -22.5439  -47.5429 C.2       11 UNK         0.5000 
     68 O          -1.0052  -23.3100  -48.3857 O.2       11 UNK        -0.5000 
     69 N          -1.2466  -21.5336  -47.0055 N.am      12 UNK        -0.5000 
     70 CA         -2.6395  -21.2149  -47.3206 C.3       12 UNK         0.1400 
     71 CB         -3.0749  -19.9771  -46.5290 C.3       12 UNK        -0.1800 
     72 C          -3.6040  -22.3848  -47.0584 C.2       12 UNK         0.5000 
     73 O          -4.4643  -22.6523  -47.8980 O.2       12 UNK        -0.5000 
     74 N          -3.4211  -23.0817  -45.9275 N.am      13 UNK        -0.5000 
     75 CA         -4.1681  -24.2888  -45.5739 C.3       13 UNK         0.1400 
     76 CB         -3.8379  -24.7012  -44.1316 C.3       13 UNK        -0.1800 
     77 C          -3.9106  -25.4480  -46.5538 C.2       13 UNK         0.5000 
     78 O          -4.8672  -26.0625  -47.0285 O.2       13 UNK        -0.5000 
     79 N          -2.6315  -25.6935  -46.8761 N.am      14 UNK        -0.5000 
     80 CA         -2.1966  -26.6962  -47.8545 C.3       14 UNK         0.1400 
     81 CB         -0.6661  -26.8191  -47.8111 C.3       14 UNK        -0.1800 
     82 C          -2.6810  -26.3925  -49.2871 C.2       14 UNK         0.5000 
     83 O          -3.0212  -27.3145  -50.0282 O.2       14 UNK        -0.5000 
     84 N          -2.7479  -25.1004  -49.6276 N.am      15 UNK        -0.5000 
     85 CA         -3.2421  -24.5474  -50.8869 C.3       15 UNK         0.1400 
     86 CB         -2.5886  -23.1726  -51.1044 C.3       15 UNK        -0.1800 
     87 C          -4.7802  -24.4546  -50.9763 C.2       15 UNK         0.5000 
     88 O          -5.2778  -23.7554  -51.8607 O.2       15 UNK        -0.5000 
     89 N          -5.5004  -25.1463  -50.0800 N.am      16 UNK        -0.5000 
     90 CA         -6.9582  -25.2842  -50.0208 C.3       16 UNK         0.1400 
     91 CB         -7.4863  -26.0351  -51.2617 C.3       16 UNK        -0.1800 
     92 C          -7.6649  -23.9373  -49.7799 C.2       16 UNK         0.5000 
     93 O          -8.4939  -23.5143  -50.5867 O.2       16 UNK        -0.5000 
     94 N          -7.2944  -23.2863  -48.6685 N.am      17 UNK        -0.5000 
     95 CA         -7.7450  -21.9613  -48.2268 C.3       17 UNK         0.1400 
     96 CB         -9.2613  -21.9440  -47.9384 C.3       17 UNK        -0.1800 
     97 C          -7.2861  -20.8528  -49.1947 C.2       17 UNK         0.5000 
     98 O          -8.0738  -19.9882  -49.5823 O.2       17 UNK        -0.5000 
     99 N          -5.9988  -20.9239  -49.5593 N.am      18 UNK        -0.5000 
    100 CA        -5.2622  -20.0134  -50.4379 C.3       18 UNK         0.1400 
    101 CB        -5.1288  -18.6173  -49.7924 C.3       18 UNK        -0.1800 
    102 C         -5.7943  -19.9587  -51.8866 C.2       18 UNK         0.5000 
    103 O         -5.6392  -18.9368  -52.5561 O.2       18 UNK        -0.5000 
    104 N         -6.3823  -21.0620  -52.3677 N.am      19 UNK        -0.5000 
    105 CA        -6.8595  -21.2037  -53.7439 C.3       19 UNK         0.1400 
    106 CB        -7.8486  -22.3761  -53.8258 C.3       19 UNK        -0.1800 
    107 C         -5.6984  -21.3952  -54.7367 C.2       19 UNK         0.5000 
    108 O         -5.7191  -20.8083  -55.8188 O.2       19 UNK        -0.5000 
    109 N         -4.7005  -22.1944  -54.3372 N.am      20 UNK        -0.5000 
    110 CA        -3.4950  -22.4946  -55.1182 C.3       20 UNK         0.1400 
    111 CB        -3.1924  -23.9967  -54.9799 C.3       20 UNK        -0.1800 
    112 C         -2.2775  -21.6398  -54.7000 C.2       20 UNK         0.5000 
    113 O         -1.1687  -21.8918  -55.1743 O.2       20 UNK        -0.5000 
    114 N         -2.4881  -20.6721  -53.7990 N.am      21 UNK        -0.5000 
    115 CA        -1.4625  -19.7847  -53.2502 C.3       21 UNK         0.1400 
    116 CB        -1.9942  -19.1974  -51.9364 C.3       21 UNK        -0.1800 
    117 C         -1.0509  -18.6594  -54.2199 C.2       21 UNK         0.5000 
    118 O         -1.6709  -18.4802  -55.2717 O.2       21 UNK        -0.5000 
    119 N         -0.0114  -17.9120  -53.8269 N.am      22 UNK        -0.5000 
    120 CA         0.4985  -16.7183  -54.5190 C.3       22 UNK         0.1400 
    121 C         -0.5672  -15.5947  -54.6654 C.2       22 UNK         0.5000 
    122 N         -0.6409  -14.9457  -55.8196 N.am      22 UNK        -0.7600 
    123 O         -1.2910  -15.2735  -53.7261 O.2       22 UNK        -0.5000 
    124 C124        1.7591  -16.1493  -53.8187 C.3       23 UNK        -0.0398 
    125 S125        3.1351  -17.3469  -53.7366 S.3       23 UNK        -0.2404 
    126 C126        3.5281  -17.3546  -51.9571 C.3       23 UNK        -0.0205 
    127 H127       -5.9048  -14.1410  -50.2960 H         1 UNK         0.0600 
    128 H128       -6.0365  -12.7679  -49.1921 H         1 UNK         0.0600 
    129 H129       -5.1719  -12.5925  -50.7216 H         1 UNK         0.0600 
    130 H130       -3.0065  -12.5911  -50.4582 H         1 UNK         0.3000 
    131 H131       -1.0025  -12.6590  -49.6147 H         1 UNK         0.0600 
    132 H132       -1.0051  -14.6516  -50.9815 H         1 UNK         0.0800 
    133 H133        0.1326  -14.7588  -49.6827 H         1 UNK         0.0800 
    134 H134       -0.6916  -17.8356  -47.8404 H         1 UNK         0.0800 
    135 H135        0.3138  -16.4323  -48.0368 H         1 UNK         0.0800 
    136 H136        1.7316  -16.2401  -50.2277 H         1 UNK         0.1150 
    137 H137        2.9827  -20.0146  -51.8233 H         1 UNK         0.1150 
    138 H138       -0.2536  -19.8380  -49.0199 H         1 UNK         0.1150 
    139 H139        0.2020  -21.8994  -50.2406 H         1 UNK         0.0800 
    140 H140        1.3971  -21.9437  -51.4995 H         1 UNK         0.0800 
    141 H141        1.6118  -20.8339  -47.7273 H         1 UNK         0.0800 
    142 H142        2.8431  -21.8849  -47.1172 H         1 UNK         0.0800 
    143 H143        1.1361  -23.8136  -47.2521 H         1 UNK         0.0600 
    144 H144        1.3461  -21.8667  -45.1427 H         1 UNK         0.3000 
    145 H145       -0.2868  -23.9661  -42.7338 H         1 UNK         0.0600 
    146 H146        1.8909  -23.5904  -41.6342 H         1 UNK         0.0600 
    147 H147        2.0883  -24.7067  -42.9762 H         1 UNK         0.0600 
    148 H148        2.6021  -23.0319  -43.1470 H         1 UNK         0.0600 
    149 H149        0.8950  -21.3829  -42.4954 H         1 UNK         0.3000 
    150 H150       -2.3527  -19.9179  -41.9763 H         1 UNK         0.0600 
    151 H151       -0.8828  -20.8717  -40.1707 H         1 UNK         0.0600 
    152 H152       -0.8313  -19.1170  -40.2380 H         1 UNK         0.0600 
    153 H153        0.5085  -20.0541  -40.8793 H         1 UNK         0.0600 
    154 H154        0.2404  -18.8958  -43.0435 H         1 UNK         0.3000 
    155 H155       -1.2561  -17.0877  -45.5724 H         1 UNK         0.0600 
    156 H156       -0.3681  -15.7262  -42.9739 H         1 UNK         0.0600 
    157 H157       -1.8149  -15.3624  -43.9063 H         1 UNK         0.0600 
    158 H158       -0.2303  -15.0041  -44.5733 H         1 UNK         0.0600 
    159 H159        1.3466  -16.7972  -44.5686 H         1 UNK         0.3000 
    160 H160        2.8055  -19.8507  -45.7095 H         1 UNK         0.0600 
    161 H161        4.3167  -18.1287  -46.7089 H         1 UNK         0.0600 
    162 H162        3.0437  -16.9164  -46.5680 H         1 UNK         0.0600 
    163 H163        2.8333  -18.3012  -47.6305 H         1 UNK         0.0600 
    164 H164        3.7426  -17.5647  -44.2247 H         1 UNK         0.3000 
    165 H165        3.3252  -19.0193  -40.9901 H         1 UNK         0.0600 
    166 H166        5.7632  -18.5784  -40.9337 H         1 UNK         0.0600 
    167 H167        5.4295  -19.9995  -41.9102 H         1 UNK         0.0600 
    168 H168        5.8172  -18.4722  -42.6932 H         1 UNK         0.0600 
    169 H169        4.4499  -16.5456  -41.9512 H         1 UNK         0.3000 
    170 H170        1.4614  -14.6400  -41.8181 H         1 UNK         0.0600 
    171 H171        2.1339  -14.7699  -39.4123 H         1 UNK         0.0600 
    172 H172        3.8264  -14.6239  -39.8708 H         1 UNK         0.0600 
    173 H173        2.7077  -13.2920  -40.1665 H         1 UNK         0.0600 
    174 H174        4.0633  -13.7222  -42.2051 H         1 UNK         0.3000 
    175 H175        4.4527  -12.8217  -44.3141 H         1 UNK         0.0600 
    176 H176        6.0741  -14.6700  -43.8748 H         1 UNK         0.0600 
    177 H177        6.3363  -13.9788  -45.4665 H         1 UNK         0.0600 
    178 H178        5.5108  -15.5281  -45.3041 H         1 UNK         0.0600 
    179 H179        4.1409  -14.2440  -46.8064 H         1 UNK         0.3000 
    180 H180        2.1544  -12.2227  -44.4982 H         1 UNK         0.0600 
    181 H181        2.6673  -10.0621  -46.6159 H         1 UNK         0.0600 
    182 H182        3.7851  -10.5281  -45.3392 H         1 UNK         0.0600 
    183 H183        2.2544   -9.7696  -44.9273 H         1 UNK         0.0600 
    184 H184        0.4820  -11.7228  -46.8760 H         1 UNK         0.3000 
    185 H185       -2.3240  -12.7753  -45.1824 H         1 UNK         0.0600 
    186 H186       -2.5731  -10.4204  -44.3743 H         1 UNK         0.0600 
    187 H187       -2.0568   -9.8177  -45.9445 H         1 UNK         0.0600 
    188 H188       -3.5665  -10.7187  -45.7905 H         1 UNK         0.0600 
    189 H189       -2.2389  -11.5679  -47.7151 H         1 UNK         0.3000 
    190 H190       -0.7705  -20.9067  -46.3613 H         1 UNK         0.3000 
    191 H191       -2.6898  -20.9729  -48.3836 H         1 UNK         0.0600 
    192 H192       -2.9876  -20.1459  -45.4558 H         1 UNK         0.0600 
    193 H193       -4.1151  -19.7227  -46.7338 H         1 UNK         0.0600 
    194 H194       -2.4688  -19.1083  -46.7842 H         1 UNK         0.0600 
    195 H195       -2.7186  -22.7700  -45.2656 H         1 UNK         0.3000 
    196 H196       -5.2320  -24.0469  -45.6195 H         1 UNK         0.0600 
    197 H197       -4.3862  -25.5998  -43.8462 H         1 UNK         0.0600 
    198 H198       -4.1113  -23.9159  -43.4267 H         1 UNK         0.0600 
    199 H199       -2.7753  -24.9086  -44.0027 H         1 UNK         0.0600 
    200 H200       -1.9022  -25.1439  -46.4345 H         1 UNK         0.3000 
    201 H201       -2.6237  -27.6565  -47.5582 H         1 UNK         0.0600 
    202 H202       -0.3203  -27.0897  -46.8133 H         1 UNK         0.0600 
    203 H203       -0.1784  -25.8850  -48.0910 H         1 UNK         0.0600 
    204 H204       -0.3166  -27.5906  -48.4982 H         1 UNK         0.0600 
    205 H205       -2.3626  -24.4219  -48.9745 H         1 UNK         0.3000 
    206 H206       -2.9230  -25.2040  -51.6979 H         1 UNK         0.0600 
    207 H207       -1.5048  -23.2627  -51.1672 H         1 UNK         0.0600 
    208 H208       -2.9238  -22.7109  -52.0295 H         1 UNK         0.0600 
    209 H209       -2.8249  -22.4847  -50.2936 H         1 UNK         0.0600 
    210 H210       -4.9912  -25.6418  -49.3600 H         1 UNK         0.3000 
    211 H211       -7.1721  -25.9049  -49.1493 H         1 UNK         0.0600 
    212 H212       -7.3303  -25.4688  -52.1802 H         1 UNK         0.0600 
    213 H213       -8.5566  -26.2252  -51.1747 H         1 UNK         0.0600 
    214 H214       -6.9934  -27.0004  -51.3763 H         1 UNK         0.0600 
    215 H215       -6.5364  -23.6820  -48.1270 H         1 UNK         0.3000 
    216 H216       -7.2339  -21.7678  -47.2824 H         1 UNK         0.0600 
    217 H217       -9.5574  -20.9997  -47.4803 H         1 UNK         0.0600 
    218 H218       -9.5405  -22.7405  -47.2488 H         1 UNK         0.0600 
    219 H219       -9.8529  -22.0626  -48.8464 H         1 UNK         0.0600 
    220 H220       -5.4515  -21.6772  -49.1489 H         1 UNK         0.3000 
    221 H221       -4.2619  -20.4370  -50.5091 H         1 UNK         0.0600 
    222 H222       -6.0923  -18.1129  -49.7167 H         1 UNK         0.0600 
    223 H223       -4.7050  -18.6818  -48.7915 H         1 UNK         0.0600 
    224 H224       -4.4704  -17.9706  -50.3730 H         1 UNK         0.0600 
    225 H225       -6.4337  -21.8893  -51.7854 H         1 UNK         0.3000 
    226 H226       -7.3942  -20.2931  -54.0224 H         1 UNK         0.0600 
    227 H227       -8.7003  -22.2184  -53.1638 H         1 UNK         0.0600 
    228 H228       -8.2386  -22.4885  -54.8381 H         1 UNK         0.0600 
    229 H229       -7.3813  -23.3209  -53.5467 H         1 UNK         0.0600 
    230 H230       -4.7977  -22.6677  -53.4430 H         1 UNK         0.3000 
    231 H231       -3.6769  -22.2893  -56.1750 H         1 UNK         0.0600 
    232 H232       -4.0470  -24.6002  -55.2863 H         1 UNK         0.0600 
    233 H233       -2.9443  -24.2659  -53.9540 H         1 UNK         0.0600 
    234 H234       -2.3500  -24.2885  -55.6082 H         1 UNK         0.0600 
    235 H235       -3.4408  -20.4852  -53.5263 H         1 UNK         0.3000 
    236 H236       -0.5702  -20.3744  -53.0286 H         1 UNK         0.0600 
    237 H237       -1.3048  -18.4645  -51.5225 H         1 UNK         0.0600 
    238 H238       -2.9444  -18.6856  -52.0834 H         1 UNK         0.0600 
    239 H239       -2.1244  -19.9730  -51.1830 H         1 UNK         0.0600 
    240 H240        0.4363  -18.1226  -52.9466 H         1 UNK         0.3000 
    241 H241        0.7867  -17.0398  -55.5217 H         1 UNK         0.0600 
    242 H242       -1.3168  -14.2044  -55.9203 H         1 UNK         0.3800 
    243 H243       -0.0523  -15.1863  -56.6025 H         1 UNK         0.3800 
    244 H244        2.1272  -15.2738  -54.3567 H         1 UNK         0.0800 
    245 H245        1.5095  -15.8004  -52.8154 H         1 UNK         0.0800 
    246 H246        4.4775  -17.8717  -51.8108 H         1 UNK         0.0800 
    247 H247        3.6854  -16.3308  -51.6139 H         1 UNK         0.0800 
@<TRIPOS>BOND
     1    1    2 1    
     2    1  127 1    
     3    1  128 1    
     4    1  129 1    
     5    2    3 2    
     6    2    4 am   BACKBONE|DICT|INTERRES
     7    4    5 1    
     8    4  130 1    
     9    5    6 1    
    10    5   65 1    
    11    5  131 1    
    12    6    7 1    
    13    6  132 1    
    14    6  133 1    
    15    7    8 1    
    16    8    9 1    
    17    8  134 1    
    18    8  135 1    
    19    9   10 ar   
    20    9   14 ar   
    21   10   11 ar   
    22   10  136 1    
    23   11   12 ar   
    24   11  126 1    
    25   12   13 ar   
    26   12  137 1    
    27   13   14 ar   
    28   13   15 1    
    29   14  138 1    
    30   15   16 1    
    31   15  139 1    
    32   15  140 1    
    33   16   17 1    
    34   17   18 1    
    35   17  141 1    
    36   17  142 1    
    37   18   19 1    
    38   18   67 1    
    39   18  143 1    
    40   19   20 am   BACKBONE|DICT|INTERRES
    41   19  144 1    
    42   20   21 2    
    43   20   22 1    
    44   22   23 1    
    45   22   24 1    
    46   22  145 1    
    47   23  146 1    
    48   23  147 1    
    49   23  148 1    
    50   24   25 am   BACKBONE|DICT|INTERRES
    51   24  149 1    
    52   25   26 2    
    53   25   27 1    
    54   27   28 1    
    55   27   29 1    
    56   27  150 1    
    57   28  151 1    
    58   28  152 1    
    59   28  153 1    
    60   29   30 am   BACKBONE|DICT|INTERRES
    61   29  154 1    
    62   30   31 2    
    63   30   32 1    
    64   32   33 1    
    65   32   34 1    
    66   32  155 1    
    67   33  156 1    
    68   33  157 1    
    69   33  158 1    
    70   34   35 am   BACKBONE|DICT|INTERRES
    71   34  159 1    
    72   35   36 2    
    73   35   37 1    
    74   37   38 1    
    75   37   39 1    
    76   37  160 1    
    77   38  161 1    
    78   38  162 1    
    79   38  163 1    
    80   39   40 am   BACKBONE|DICT|INTERRES
    81   39  164 1    
    82   40   41 2    
    83   40   42 1    
    84   42   43 1    
    85   42   44 1    
    86   42  165 1    
    87   43  166 1    
    88   43  167 1    
    89   43  168 1    
    90   44   45 am   BACKBONE|DICT|INTERRES
    91   44  169 1    
    92   45   46 2    
    93   45   47 1    
    94   47   48 1    
    95   47   49 1    
    96   47  170 1    
    97   48  171 1    
    98   48  172 1    
    99   48  173 1    
   100   49   50 am   BACKBONE|DICT|INTERRES
   101   49  174 1    
   102   50   51 2    
   103   50   52 1    
   104   52   53 1    
   105   52   54 1    
   106   52  175 1    
   107   53  176 1    
   108   53  177 1    
   109   53  178 1    
   110   54   55 am   BACKBONE|DICT|INTERRES
   111   54  179 1    
   112   55   56 2    
   113   55   57 1    
   114   57   58 1    
   115   57   59 1    
   116   57  180 1    
   117   58  181 1    
   118   58  182 1    
   119   58  183 1    
   120   59   60 am   BACKBONE|DICT|INTERRES
   121   59  184 1    
   122   60   61 2    
   123   60   62 1    
   124   62   63 1    
   125   62   64 1    
   126   62  185 1    
   127   63  186 1    
   128   63  187 1    
   129   63  188 1    
   130   64   65 am   BACKBONE|DICT|INTERRES
   131   64  189 1    
   132   65   66 2    
   133   67   68 2    
   134   67   69 am   BACKBONE|DICT|INTERRES
   135   69   70 1    
   136   69  190 1    
   137   70   71 1    
   138   70   72 1    
   139   70  191 1    
   140   71  192 1    
   141   71  193 1    
   142   71  194 1    
   143   72   73 2    
   144   72   74 am   BACKBONE|DICT|INTERRES
   145   74   75 1    
   146   74  195 1    
   147   75   76 1    
   148   75   77 1    
   149   75  196 1    
   150   76  197 1    
   151   76  198 1    
   152   76  199 1    
   153   77   78 2    
   154   77   79 am   BACKBONE|DICT|INTERRES
   155   79   80 1    
   156   79  200 1    
   157   80   81 1    
   158   80   82 1    
   159   80  201 1    
   160   81  202 1    
   161   81  203 1    
   162   81  204 1    
   163   82   83 2    
   164   82   84 am   BACKBONE|DICT|INTERRES
   165   84   85 1    
   166   84  205 1    
   167   85   86 1    
   168   85   87 1    
   169   85  206 1    
   170   86  207 1    
   171   86  208 1    
   172   86  209 1    
   173   87   88 2    
   174   87   89 am   BACKBONE|DICT|INTERRES
   175   89   90 1    
   176   89  210 1    
   177   90   91 1    
   178   90   92 1    
   179   90  211 1    
   180   91  212 1    
   181   91  213 1    
   182   91  214 1    
   183   92   93 2    
   184   92   94 am   BACKBONE|DICT|INTERRES
   185   94   95 1    
   186   94  215 1    
   187   95   96 1    
   188   95   97 1    
   189   95  216 1    
   190   96  217 1    
   191   96  218 1    
   192   96  219 1    
   193   97   98 2    
   194   97   99 am   BACKBONE|DICT|INTERRES
   195   99  100 1    
   196   99  220 1    
   197  100  101 1    
   198  100  102 1    
   199  100  221 1    
   200  101  222 1    
   201  101  223 1    
   202  101  224 1    
   203  102  103 2    
   204  102  104 am   BACKBONE|DICT|INTERRES
   205  104  105 1    
   206  104  225 1    
   207  105  106 1    
   208  105  107 1    
   209  105  226 1    
   210  106  227 1    
   211  106  228 1    
   212  106  229 1    
   213  107  108 2    
   214  107  109 am   BACKBONE|DICT|INTERRES
   215  109  110 1    
   216  109  230 1    
   217  110  111 1    
   218  110  112 1    
   219  110  231 1    
   220  111  232 1    
   221  111  233 1    
   222  111  234 1    
   223  112  113 2    
   224  112  114 am   BACKBONE|DICT|INTERRES
   225  114  115 1    
   226  114  235 1    
   227  115  116 1    
   228  115  117 1    
   229  115  236 1    
   230  116  237 1    
   231  116  238 1    
   232  116  239 1    
   233  117  118 2    
   234  117  119 am   BACKBONE|DICT|INTERRES
   235  119  120 1    
   236  119  240 1    
   237  120  121 1    
   238  120  124 1    
   239  120  241 1    
   240  121  122 am   BACKBONE|DICT|INTERRES
   241  121  123 2    
   242  122  242 1    
   243  122  243 1    
   244  124  125 1    
   245  124  244 1    
   246  124  245 1    
   247  125  126 1    
   248  126  246 1    
   249  126  247 1    
@<TRIPOS>SUBSTRUCTURE
     1 UNK         1 GROUP             0       ****    0 ROOT    
