@<TRIPOS>MOLECULE
3R540
247   249    1
SMALL
USER_CHARGES


@<TRIPOS>ATOM
      1 CA         -0.0426  -10.8952  -46.1084 C.3       0 UNK        -0.1800 
      2 C          -0.2792  -11.6664  -47.3991 C.2       0 UNK         0.5000 
      3 O           0.4032  -11.4234  -48.3942 O.2       0 UNK        -0.5000 
      4 N          -1.2452  -12.5931  -47.3803 N.am      1 UNK        -0.5000 
      5 CA         -1.5833  -13.4953  -48.4876 C.3       1 UNK         0.1400 
      6 C6         -2.9104  -14.2583  -48.2391 C.3       23 UNK        -0.0398 
      7 S7         -4.3186  -13.1326  -47.9560 S.3       23 UNK        -0.2404 
      8 C8         -5.6127  -14.2797  -47.3766 C.3       23 UNK        -0.0205 
      9 C9         -6.0421  -15.2680  -48.4517 C.ar      23 UNK        -0.0193 
     10 C10        -6.6188  -14.8035  -49.6363 C.ar      23 UNK        -0.1150 
     11 C11        -6.9898  -15.6943  -50.6469 C.ar      23 UNK        -0.0193 
     12 C12        -6.8260  -17.0668  -50.4447 C.ar      23 UNK        -0.1150 
     13 C13        -6.2512  -17.5457  -49.2641 C.ar      23 UNK        -0.0193 
     14 C14        -5.8638  -16.6429  -48.2685 C.ar      23 UNK        -0.1150 
     15 C15        -6.0276  -19.0383  -49.0899 C.3       23 UNK        -0.0205 
     16 S16        -4.4236  -19.5373  -49.7882 S.3       23 UNK        -0.2404 
     17 C17        -3.3157  -19.3198  -48.3528 C.3       23 UNK        -0.0398 
     18 CA         -2.8483  -20.6859  -47.7979 C.3       11 UNK         0.1400 
     19 N          -1.5238  -20.6216  -47.1857 N.am      11 UNK        -0.5000 
     20 C          -0.7102  -21.6772  -47.0524 C.2       10 UNK         0.5000 
     21 O          -0.9851  -22.8085  -47.4615 O.2       10 UNK        -0.5000 
     22 CA          0.6275  -21.4243  -46.3335 C.3       10 UNK         0.1400 
     23 CB          1.7009  -20.9945  -47.3444 C.3       10 UNK        -0.1800 
     24 N           0.5311  -20.4215  -45.2670 N.am      10 UNK        -0.5000 
     25 C          -0.1741  -20.6013  -44.1418 C.2       9 UNK         0.5000 
     26 O          -0.8505  -21.6021  -43.9146 O.2       9 UNK        -0.5000 
     27 CA         -0.1510  -19.4620  -43.1090 C.3       9 UNK         0.1400 
     28 CB          1.2179  -19.4057  -42.4144 C.3       9 UNK        -0.1800 
     29 N          -0.5093  -18.1323  -43.6222 N.am      9 UNK        -0.5000 
     30 C          -1.5840  -17.8382  -44.3733 C.2       8 UNK         0.5000 
     31 O          -2.3173  -18.6864  -44.8805 O.2       8 UNK        -0.5000 
     32 CA         -1.9065  -16.3518  -44.6061 C.3       8 UNK         0.1400 
     33 CB         -3.4212  -16.0860  -44.5790 C.3       8 UNK        -0.1800 
     34 N          -1.2596  -15.4804  -43.6227 N.am      8 UNK        -0.5000 
     35 C          -0.4843  -14.4362  -43.9317 C.2       7 UNK         0.5000 
     36 O          -0.1766  -14.1338  -45.0827 O.2       7 UNK        -0.5000 
     37 CA          0.0843  -13.6054  -42.7687 C.3       7 UNK         0.1400 
     38 CB         -0.9299  -12.5383  -42.3325 C.3       7 UNK        -0.1800 
     39 N           0.5025  -14.3832  -41.5997 N.am      7 UNK        -0.5000 
     40 C           1.3491  -15.4197  -41.6131 C.2       6 UNK         0.5000 
     41 O           1.7987  -15.9337  -42.6466 O.2       6 UNK        -0.5000 
     42 CA          1.7517  -15.9790  -40.2398 C.3       6 UNK         0.1400 
     43 CB          0.5716  -16.6597  -39.5232 C.3       6 UNK        -0.1800 
     44 N           2.8222  -16.9322  -40.4764 N.am      6 UNK        -0.5000 
     45 C           3.8578  -17.2034  -39.6798 C.2       5 UNK         0.5000 
     46 O           3.9535  -16.8173  -38.5143 O.2       5 UNK        -0.5000 
     47 CA          4.9986  -18.0221  -40.3212 C.3       5 UNK         0.1400 
     48 CB          4.8463  -19.5119  -39.9779 C.3       5 UNK        -0.1800 
     49 N           5.0674  -17.8753  -41.7825 N.am      5 UNK        -0.5000 
     50 C           5.3491  -16.7349  -42.4320 C.2       4 UNK         0.5000 
     51 O           5.6492  -15.6867  -41.8573 O.2       4 UNK        -0.5000 
     52 CA          5.2674  -16.7490  -43.9704 C.3       4 UNK         0.1400 
     53 CB          4.8250  -18.0968  -44.5764 C.3       4 UNK        -0.1800 
     54 N           4.3309  -15.7159  -44.4078 N.am      4 UNK        -0.5000 
     55 C           4.6734  -14.5599  -44.9902 C.2       3 UNK         0.5000 
     56 O           5.8386  -14.2164  -45.2016 O.2       3 UNK        -0.5000 
     57 CA          3.5011  -13.6593  -45.4426 C.3       3 UNK         0.1400 
     58 CB          3.9558  -12.4425  -46.2746 C.3       3 UNK        -0.1800 
     59 N           2.4577  -14.4028  -46.1598 N.am      3 UNK        -0.5000 
     60 C           2.6087  -15.1686  -47.2542 C.2       2 UNK         0.5000 
     61 O           3.6726  -15.3240  -47.8538 O.2       2 UNK        -0.5000 
     62 CA          1.3515  -15.8890  -47.7643 C.3       2 UNK         0.1400 
     63 CB          1.0787  -17.1379  -46.9096 C.3       2 UNK        -0.1800 
     64 N           0.1902  -15.0026  -47.7130 N.am      2 UNK        -0.5000 
     65 C          -0.4362  -14.4872  -48.7781 C.2       1 UNK         0.5000 
     66 O          -0.1368  -14.7473  -49.9440 O.2       1 UNK        -0.5000 
     67 C          -3.8693  -21.3343  -46.8419 C.2       11 UNK         0.5000 
     68 O          -4.6464  -22.1872  -47.2692 O.2       11 UNK        -0.5000 
     69 N          -3.8106  -20.9670  -45.5562 N.am      12 UNK        -0.5000 
     70 CA         -4.6304  -21.5408  -44.4911 C.3       12 UNK         0.1400 
     71 CB         -4.4332  -20.7210  -43.2066 C.3       12 UNK        -0.1800 
     72 C          -4.3307  -23.0312  -44.2407 C.2       12 UNK         0.5000 
     73 O          -5.2625  -23.8071  -44.0250 O.2       12 UNK        -0.5000 
     74 N          -3.0433  -23.4017  -44.2733 N.am      13 UNK        -0.5000 
     75 CA         -2.5712  -24.7606  -44.0228 C.3       13 UNK         0.1400 
     76 CB         -1.0643  -24.7415  -43.7213 C.3       13 UNK        -0.1800 
     77 C          -2.8705  -25.7354  -45.1726 C.2       13 UNK         0.5000 
     78 O          -3.3493  -26.8389  -44.9057 O.2       13 UNK        -0.5000 
     79 N          -2.5482  -25.3441  -46.4146 N.am      14 UNK        -0.5000 
     80 CA         -2.5158  -26.2715  -47.5495 C.3       14 UNK         0.1400 
     81 CB         -1.1524  -26.9943  -47.5715 C.3       14 UNK        -0.1800 
     82 C          -2.8310  -25.6095  -48.9006 C.2       14 UNK         0.5000 
     83 O          -2.4557  -26.1671  -49.9331 O.2       14 UNK        -0.5000 
     84 N          -3.4867  -24.4381  -48.9007 N.am      15 UNK        -0.5000 
     85 CA         -3.8614  -23.6626  -50.0944 C.3       15 UNK         0.1400 
     86 CB         -4.9922  -24.3708  -50.8683 C.3       15 UNK        -0.1800 
     87 C          -2.6547  -23.3004  -50.9880 C.2       15 UNK         0.5000 
     88 O          -2.7713  -23.3160  -52.2138 O.2       15 UNK        -0.5000 
     89 N          -1.5060  -23.0159  -50.3537 N.am      16 UNK        -0.5000 
     90 CA         -0.2070  -22.7411  -50.9753 C.3       16 UNK         0.1400 
     91 CB         -0.2469  -21.4142  -51.7623 C.3       16 UNK        -0.1800 
     92 C           0.2947  -23.9402  -51.8082 C.2       16 UNK         0.5000 
     93 O           0.7082  -23.7722  -52.9553 O.2       16 UNK        -0.5000 
     94 N           0.2108  -25.1352  -51.2038 N.am      17 UNK        -0.5000 
     95 CA          0.5041  -26.4517  -51.7811 C.3       17 UNK         0.1400 
     96 CB          1.9906  -26.5753  -52.1779 C.3       17 UNK        -0.1800 
     97 C          -0.4718  -26.8095  -52.9210 C.2       17 UNK         0.5000 
     98 O          -0.0470  -27.1918  -54.0127 O.2       17 UNK        -0.5000 
     99 N          -1.7724  -26.6635  -52.6273 N.am      18 UNK        -0.5000 
    100 CA        -2.9296  -26.9440  -53.4860 C.3       18 UNK         0.1400 
    101 CB        -3.0146  -28.4503  -53.8098 C.3       18 UNK        -0.1800 
    102 C         -3.0223  -26.0598  -54.7493 C.2       18 UNK         0.5000 
    103 O         -3.7153  -26.4272  -55.7000 O.2       18 UNK        -0.5000 
    104 N         -2.3391  -24.9090  -54.7437 N.am      19 UNK        -0.5000 
    105 CA        -2.3261  -23.9501  -55.8461 C.3       19 UNK         0.1400 
    106 CB        -1.0257  -23.1351  -55.7825 C.3       19 UNK        -0.1800 
    107 C         -3.5404  -23.0064  -55.8234 C.2       19 UNK         0.5000 
    108 O         -3.9708  -22.5620  -56.8883 O.2       19 UNK        -0.5000 
    109 N         -4.0409  -22.6946  -54.6159 N.am      20 UNK        -0.5000 
    110 CA        -5.0495  -21.6719  -54.3082 C.3       20 UNK         0.1400 
    111 CB        -6.4328  -22.0738  -54.8584 C.3       20 UNK        -0.1800 
    112 C         -4.5844  -20.2726  -54.7670 C.2       20 UNK         0.5000 
    113 O         -5.3361  -19.5346  -55.4059 O.2       20 UNK        -0.5000 
    114 N         -3.3128  -19.9702  -54.4685 N.am      21 UNK        -0.5000 
    115 CA        -2.5565  -18.8396  -55.0092 C.3       21 UNK         0.1400 
    116 CB        -1.0712  -19.0397  -54.6678 C.3       21 UNK        -0.1800 
    117 C         -3.0283  -17.4497  -54.5429 C.2       21 UNK         0.5000 
    118 O         -2.7163  -16.4646  -55.2131 O.2       21 UNK        -0.5000 
    119 N         -3.7473  -17.3858  -53.4130 N.am      22 UNK        -0.5000 
    120 CA        -4.2088  -16.1400  -52.7733 C.3       22 UNK         0.1400 
    121 C         -3.0513  -15.2853  -52.1671 C.2       22 UNK         0.5000 
    122 N         -1.9538  -15.9101  -51.7567 N.am      22 UNK        -0.7600 
    123 O         -3.1410  -14.0684  -52.0370 O.2       22 UNK        -0.5000 
    124 C124       -5.2257  -15.3690  -53.6699 C.3       23 UNK        -0.0398 
    125 S125       -6.2893  -14.1403  -52.8302 S.3       23 UNK        -0.2404 
    126 C126       -7.5275  -15.1648  -51.9678 C.3       23 UNK        -0.0205 
    127 H127       -0.8896  -10.9851  -45.4284 H         1 UNK         0.0600 
    128 H128        0.1092   -9.8369  -46.3203 H         1 UNK         0.0600 
    129 H129        0.8440  -11.2760  -45.6017 H         1 UNK         0.0600 
    130 H130       -1.7556  -12.7476  -46.5229 H         1 UNK         0.3000 
    131 H131       -1.7134  -12.8826  -49.3825 H         1 UNK         0.0600 
    132 H132       -2.8189  -14.9241  -47.3801 H         1 UNK         0.0800 
    133 H133       -3.1527  -14.8900  -49.0956 H         1 UNK         0.0800 
    134 H134       -6.4826  -13.6979  -47.0691 H         1 UNK         0.0800 
    135 H135       -5.2649  -14.7995  -46.4846 H         1 UNK         0.0800 
    136 H136       -6.7441  -13.7404  -49.7882 H         1 UNK         0.1150 
    137 H137       -7.1072  -17.7626  -51.2229 H         1 UNK         0.1150 
    138 H138       -5.4188  -17.0097  -47.3551 H         1 UNK         0.1150 
    139 H139       -6.0942  -19.3225  -48.0385 H         1 UNK         0.0800 
    140 H140       -6.8180  -19.5901  -49.6011 H         1 UNK         0.0800 
    141 H141       -3.7750  -18.7039  -47.5785 H         1 UNK         0.0800 
    142 H142       -2.4576  -18.7498  -48.7119 H         1 UNK         0.0800 
    143 H143       -2.7494  -21.3542  -48.6507 H         1 UNK         0.0600 
    144 H144       -1.2630  -19.7497  -46.7482 H         1 UNK         0.3000 
    145 H145        0.9418  -22.3678  -45.8821 H         1 UNK         0.0600 
    146 H146        2.6624  -20.8328  -46.8566 H         1 UNK         0.0600 
    147 H147        1.8492  -21.7632  -48.1037 H         1 UNK         0.0600 
    148 H148        1.4257  -20.0747  -47.8612 H         1 UNK         0.0600 
    149 H149        1.0564  -19.5686  -45.3832 H         1 UNK         0.3000 
    150 H150       -0.8951  -19.7160  -42.3514 H         1 UNK         0.0600 
    151 H151        1.5739  -20.4033  -42.1520 H         1 UNK         0.0600 
    152 H152        1.1616  -18.8419  -41.4876 H         1 UNK         0.0600 
    153 H153        1.9722  -18.9419  -43.0474 H         1 UNK         0.0600 
    154 H154        0.0665  -17.3640  -43.3049 H         1 UNK         0.3000 
    155 H155       -1.5485  -16.1303  -45.6122 H         1 UNK         0.0600 
    156 H156       -3.8604  -16.3681  -43.6215 H         1 UNK         0.0600 
    157 H157       -3.9367  -16.6502  -45.3569 H         1 UNK         0.0600 
    158 H158       -3.6350  -15.0304  -44.7456 H         1 UNK         0.0600 
    159 H159       -1.4501  -15.6734  -42.6494 H         1 UNK         0.3000 
    160 H160        0.9704  -13.0921  -43.1461 H         1 UNK         0.0600 
    161 H161       -1.8207  -12.9862  -41.8902 H         1 UNK         0.0600 
    162 H162       -1.2541  -11.9334  -43.1800 H         1 UNK         0.0600 
    163 H163       -0.4964  -11.8582  -41.5991 H         1 UNK         0.0600 
    164 H164        0.1748  -14.0435  -40.7069 H         1 UNK         0.3000 
    165 H165        2.1296  -15.1553  -39.6306 H         1 UNK         0.0600 
    166 H166        0.9010  -17.1746  -38.6206 H         1 UNK         0.0600 
    167 H167       -0.1744  -15.9250  -39.2189 H         1 UNK         0.0600 
    168 H168        0.0668  -17.3869  -40.1583 H         1 UNK         0.0600 
    169 H169        2.8741  -17.2318  -41.4414 H         1 UNK         0.3000 
    170 H170        5.9399  -17.6640  -39.8995 H         1 UNK         0.0600 
    171 H171        4.8175  -19.6627  -38.8980 H         1 UNK         0.0600 
    172 H172        3.9270  -19.9284  -40.3920 H         1 UNK         0.0600 
    173 H173        5.6836  -20.0939  -40.3635 H         1 UNK         0.0600 
    174 H174        4.8514  -18.6981  -42.3261 H         1 UNK         0.3000 
    175 H175        6.2739  -16.5382  -44.3371 H         1 UNK         0.0600 
    176 H176        3.8181  -18.3741  -44.2681 H         1 UNK         0.0600 
    177 H177        4.8268  -18.0461  -45.6656 H         1 UNK         0.0600 
    178 H178        5.5033  -18.9039  -44.2968 H         1 UNK         0.0600 
    179 H179        3.3557  -15.8738  -44.1830 H         1 UNK         0.3000 
    180 H180        3.0390  -13.2803  -44.5303 H         1 UNK         0.0600 
    181 H181        4.4687  -12.7462  -47.1877 H         1 UNK         0.0600 
    182 H182        4.6421  -11.8141  -45.7060 H         1 UNK         0.0600 
    183 H183        3.1078  -11.8206  -46.5608 H         1 UNK         0.0600 
    184 H184        1.5293  -14.3390  -45.7533 H         1 UNK         0.3000 
    185 H185        1.5427  -16.2141  -48.7891 H         1 UNK         0.0600 
    186 H186        1.9230  -17.8267  -46.9545 H         1 UNK         0.0600 
    187 H187        0.9246  -16.8815  -45.8614 H         1 UNK         0.0600 
    188 H188        0.1974  -17.6734  -47.2628 H         1 UNK         0.0600 
    189 H189       -0.0761  -14.6598  -46.7927 H         1 UNK         0.3000 
    190 H190       -3.1576  -20.2357  -45.2804 H         1 UNK         0.3000 
    191 H191       -5.6769  -21.4573  -44.7914 H         1 UNK         0.0600 
    192 H192       -3.3952  -20.7412  -42.8724 H         1 UNK         0.0600 
    193 H193       -5.0491  -21.1101  -42.3950 H         1 UNK         0.0600 
    194 H194       -4.7133  -19.6784  -43.3584 H         1 UNK         0.0600 
    195 H195       -2.3279  -22.6868  -44.3792 H         1 UNK         0.3000 
    196 H196       -3.0802  -25.1352  -43.1319 H         1 UNK         0.0600 
    197 H197       -0.6887  -25.7483  -43.5341 H         1 UNK         0.0600 
    198 H198       -0.8485  -24.1459  -42.8342 H         1 UNK         0.0600 
    199 H199       -0.4916  -24.3259  -44.5514 H         1 UNK         0.0600 
    200 H200       -2.1412  -24.4276  -46.5648 H         1 UNK         0.3000 
    201 H201       -3.2956  -27.0251  -47.4235 H         1 UNK         0.0600 
    202 H202       -0.9677  -27.5234  -46.6367 H         1 UNK         0.0600 
    203 H203       -0.3326  -26.2915  -47.7247 H         1 UNK         0.0600 
    204 H204       -1.1054  -27.7368  -48.3691 H         1 UNK         0.0600 
    205 H205       -3.7809  -24.0377  -48.0177 H         1 UNK         0.3000 
    206 H206       -4.2695  -22.7135  -49.7522 H         1 UNK         0.0600 
    207 H207       -5.3322  -23.7702  -51.7126 H         1 UNK         0.0600 
    208 H208       -5.8565  -24.5401  -50.2263 H         1 UNK         0.0600 
    209 H209       -4.6748  -25.3362  -51.2582 H         1 UNK         0.0600 
    210 H210       -1.4953  -23.0623  -49.3390 H         1 UNK         0.3000 
    211 H211        0.5055  -22.6162  -50.1589 H         1 UNK         0.0600 
    212 H212        0.7451  -21.1481  -52.1284 H         1 UNK         0.0600 
    213 H213       -0.5922  -20.5940  -51.1327 H         1 UNK         0.0600 
    214 H214       -0.9070  -21.4731  -52.6271 H         1 UNK         0.0600 
    215 H215       -0.2046  -25.1590  -50.2834 H         1 UNK         0.3000 
    216 H216        0.3199  -27.1777  -50.9876 H         1 UNK         0.0600 
    217 H217        2.2267  -27.5956  -52.4821 H         1 UNK         0.0600 
    218 H218        2.6437  -26.3271  -51.3414 H         1 UNK         0.0600 
    219 H219        2.2486  -25.9212  -53.0111 H         1 UNK         0.0600 
    220 H220       -2.0064  -26.3632  -51.6818 H         1 UNK         0.3000 
    221 H221       -3.8074  -26.6955  -52.8908 H         1 UNK         0.0600 
    222 H222       -2.2069  -28.7694  -54.4690 H         1 UNK         0.0600 
    223 H223       -2.9653  -29.0516  -52.9020 H         1 UNK         0.0600 
    224 H224       -3.9551  -28.6932  -54.3056 H         1 UNK         0.0600 
    225 H225       -1.8288  -24.6541  -53.9081 H         1 UNK         0.3000 
    226 H226       -2.3385  -24.4928  -56.7937 H         1 UNK         0.0600 
    227 H227       -0.1511  -23.7831  -55.8433 H         1 UNK         0.0600 
    228 H228       -0.9657  -22.4262  -56.6092 H         1 UNK         0.0600 
    229 H229       -0.9539  -22.5657  -54.8554 H         1 UNK         0.0600 
    230 H230       -3.5804  -23.0976  -53.8007 H         1 UNK         0.3000 
    231 H231       -5.1258  -21.6294  -53.2207 H         1 UNK         0.0600 
    232 H232       -6.7244  -23.0621  -54.5030 H         1 UNK         0.0600 
    233 H233       -6.4492  -22.0911  -55.9484 H         1 UNK         0.0600 
    234 H234       -7.2003  -21.3714  -54.5316 H         1 UNK         0.0600 
    235 H235       -2.7835  -20.6454  -53.9371 H         1 UNK         0.3000 
    236 H236       -2.6605  -18.8649  -56.0960 H         1 UNK         0.0600 
    237 H237       -0.4606  -18.2424  -55.0936 H         1 UNK         0.0600 
    238 H238       -0.9029  -19.0400  -53.5904 H         1 UNK         0.0600 
    239 H239       -0.6951  -19.9813  -55.0682 H         1 UNK         0.0600 
    240 H240       -3.9554  -18.2452  -52.9261 H         1 UNK         0.3000 
    241 H241       -4.7462  -16.4855  -51.8971 H         1 UNK         0.0600 
    242 H242       -1.2117  -15.3825  -51.3042 H         1 UNK         0.3800 
    243 H243       -1.8619  -16.9063  -51.8597 H         1 UNK         0.3800 
    244 H244       -4.6951  -14.8506  -54.4694 H         1 UNK         0.0800 
    245 H245       -5.8856  -16.0795  -54.1695 H         1 UNK         0.0800 
    246 H246       -7.8557  -15.9762  -52.6193 H         1 UNK         0.0800 
    247 H247       -8.4094  -14.5552  -51.7669 H         1 UNK         0.0800 
@<TRIPOS>BOND
     1    1    2 1    
     2    1  127 1    
     3    1  128 1    
     4    1  129 1    
     5    2    3 2    
     6    2    4 am   BACKBONE|DICT|INTERRES
     7    4    5 1    
     8    4  130 1    
     9    5    6 1    
    10    5   65 1    
    11    5  131 1    
    12    6    7 1    
    13    6  132 1    
    14    6  133 1    
    15    7    8 1    
    16    8    9 1    
    17    8  134 1    
    18    8  135 1    
    19    9   10 ar   
    20    9   14 ar   
    21   10   11 ar   
    22   10  136 1    
    23   11   12 ar   
    24   11  126 1    
    25   12   13 ar   
    26   12  137 1    
    27   13   14 ar   
    28   13   15 1    
    29   14  138 1    
    30   15   16 1    
    31   15  139 1    
    32   15  140 1    
    33   16   17 1    
    34   17   18 1    
    35   17  141 1    
    36   17  142 1    
    37   18   19 1    
    38   18   67 1    
    39   18  143 1    
    40   19   20 am   BACKBONE|DICT|INTERRES
    41   19  144 1    
    42   20   21 2    
    43   20   22 1    
    44   22   23 1    
    45   22   24 1    
    46   22  145 1    
    47   23  146 1    
    48   23  147 1    
    49   23  148 1    
    50   24   25 am   BACKBONE|DICT|INTERRES
    51   24  149 1    
    52   25   26 2    
    53   25   27 1    
    54   27   28 1    
    55   27   29 1    
    56   27  150 1    
    57   28  151 1    
    58   28  152 1    
    59   28  153 1    
    60   29   30 am   BACKBONE|DICT|INTERRES
    61   29  154 1    
    62   30   31 2    
    63   30   32 1    
    64   32   33 1    
    65   32   34 1    
    66   32  155 1    
    67   33  156 1    
    68   33  157 1    
    69   33  158 1    
    70   34   35 am   BACKBONE|DICT|INTERRES
    71   34  159 1    
    72   35   36 2    
    73   35   37 1    
    74   37   38 1    
    75   37   39 1    
    76   37  160 1    
    77   38  161 1    
    78   38  162 1    
    79   38  163 1    
    80   39   40 am   BACKBONE|DICT|INTERRES
    81   39  164 1    
    82   40   41 2    
    83   40   42 1    
    84   42   43 1    
    85   42   44 1    
    86   42  165 1    
    87   43  166 1    
    88   43  167 1    
    89   43  168 1    
    90   44   45 am   BACKBONE|DICT|INTERRES
    91   44  169 1    
    92   45   46 2    
    93   45   47 1    
    94   47   48 1    
    95   47   49 1    
    96   47  170 1    
    97   48  171 1    
    98   48  172 1    
    99   48  173 1    
   100   49   50 am   BACKBONE|DICT|INTERRES
   101   49  174 1    
   102   50   51 2    
   103   50   52 1    
   104   52   53 1    
   105   52   54 1    
   106   52  175 1    
   107   53  176 1    
   108   53  177 1    
   109   53  178 1    
   110   54   55 am   BACKBONE|DICT|INTERRES
   111   54  179 1    
   112   55   56 2    
   113   55   57 1    
   114   57   58 1    
   115   57   59 1    
   116   57  180 1    
   117   58  181 1    
   118   58  182 1    
   119   58  183 1    
   120   59   60 am   BACKBONE|DICT|INTERRES
   121   59  184 1    
   122   60   61 2    
   123   60   62 1    
   124   62   63 1    
   125   62   64 1    
   126   62  185 1    
   127   63  186 1    
   128   63  187 1    
   129   63  188 1    
   130   64   65 am   BACKBONE|DICT|INTERRES
   131   64  189 1    
   132   65   66 2    
   133   67   68 2    
   134   67   69 am   BACKBONE|DICT|INTERRES
   135   69   70 1    
   136   69  190 1    
   137   70   71 1    
   138   70   72 1    
   139   70  191 1    
   140   71  192 1    
   141   71  193 1    
   142   71  194 1    
   143   72   73 2    
   144   72   74 am   BACKBONE|DICT|INTERRES
   145   74   75 1    
   146   74  195 1    
   147   75   76 1    
   148   75   77 1    
   149   75  196 1    
   150   76  197 1    
   151   76  198 1    
   152   76  199 1    
   153   77   78 2    
   154   77   79 am   BACKBONE|DICT|INTERRES
   155   79   80 1    
   156   79  200 1    
   157   80   81 1    
   158   80   82 1    
   159   80  201 1    
   160   81  202 1    
   161   81  203 1    
   162   81  204 1    
   163   82   83 2    
   164   82   84 am   BACKBONE|DICT|INTERRES
   165   84   85 1    
   166   84  205 1    
   167   85   86 1    
   168   85   87 1    
   169   85  206 1    
   170   86  207 1    
   171   86  208 1    
   172   86  209 1    
   173   87   88 2    
   174   87   89 am   BACKBONE|DICT|INTERRES
   175   89   90 1    
   176   89  210 1    
   177   90   91 1    
   178   90   92 1    
   179   90  211 1    
   180   91  212 1    
   181   91  213 1    
   182   91  214 1    
   183   92   93 2    
   184   92   94 am   BACKBONE|DICT|INTERRES
   185   94   95 1    
   186   94  215 1    
   187   95   96 1    
   188   95   97 1    
   189   95  216 1    
   190   96  217 1    
   191   96  218 1    
   192   96  219 1    
   193   97   98 2    
   194   97   99 am   BACKBONE|DICT|INTERRES
   195   99  100 1    
   196   99  220 1    
   197  100  101 1    
   198  100  102 1    
   199  100  221 1    
   200  101  222 1    
   201  101  223 1    
   202  101  224 1    
   203  102  103 2    
   204  102  104 am   BACKBONE|DICT|INTERRES
   205  104  105 1    
   206  104  225 1    
   207  105  106 1    
   208  105  107 1    
   209  105  226 1    
   210  106  227 1    
   211  106  228 1    
   212  106  229 1    
   213  107  108 2    
   214  107  109 am   BACKBONE|DICT|INTERRES
   215  109  110 1    
   216  109  230 1    
   217  110  111 1    
   218  110  112 1    
   219  110  231 1    
   220  111  232 1    
   221  111  233 1    
   222  111  234 1    
   223  112  113 2    
   224  112  114 am   BACKBONE|DICT|INTERRES
   225  114  115 1    
   226  114  235 1    
   227  115  116 1    
   228  115  117 1    
   229  115  236 1    
   230  116  237 1    
   231  116  238 1    
   232  116  239 1    
   233  117  118 2    
   234  117  119 am   BACKBONE|DICT|INTERRES
   235  119  120 1    
   236  119  240 1    
   237  120  121 1    
   238  120  124 1    
   239  120  241 1    
   240  121  122 am   BACKBONE|DICT|INTERRES
   241  121  123 2    
   242  122  242 1    
   243  122  243 1    
   244  124  125 1    
   245  124  244 1    
   246  124  245 1    
   247  125  126 1    
   248  126  246 1    
   249  126  247 1    
@<TRIPOS>SUBSTRUCTURE
     1 UNK         1 GROUP             0       ****    0 ROOT    
