@<TRIPOS>MOLECULE
3R540
247   249    1
SMALL
USER_CHARGES


@<TRIPOS>ATOM
      1 CA          2.5701  -18.0460  -52.3980 C.3       0 UNK        -0.1800 
      2 C           2.7043  -18.0631  -50.8812 C.2       0 UNK         0.5000 
      3 O           3.4160  -18.9074  -50.3372 O.2       0 UNK        -0.5000 
      4 N           2.0193  -17.1379  -50.1977 N.am      1 UNK        -0.5000 
      5 CA          2.0462  -16.9952  -48.7395 C.3       1 UNK         0.1400 
      6 C6          0.8938  -16.1029  -48.2199 C.3       23 UNK        -0.0398 
      7 S7         -0.7094  -16.9478  -48.3624 S.3       23 UNK        -0.2404 
      8 C8         -1.8376  -15.5428  -48.5613 C.3       23 UNK        -0.0205 
      9 C9         -3.2750  -16.0203  -48.6788 C.ar      23 UNK        -0.0193 
     10 C10        -3.8676  -16.1765  -49.9359 C.ar      23 UNK        -0.1150 
     11 C11        -5.1945  -16.6028  -50.0464 C.ar      23 UNK        -0.0193 
     12 C12        -5.9293  -16.8669  -48.8867 C.ar      23 UNK        -0.1150 
     13 C13        -5.3508  -16.7030  -47.6242 C.ar      23 UNK        -0.0193 
     14 C14        -4.0192  -16.2897  -47.5265 C.ar      23 UNK        -0.1150 
     15 C15        -6.1848  -16.9206  -46.3705 C.3       23 UNK        -0.0205 
     16 S16        -6.4190  -18.6834  -45.9894 S.3       23 UNK        -0.2404 
     17 C17        -4.7944  -19.1492  -45.2987 C.3       23 UNK        -0.0398 
     18 CA         -3.9514  -20.0530  -46.2329 C.3       11 UNK         0.1400 
     19 N          -2.5355  -20.0282  -45.8365 N.am      11 UNK        -0.5000 
     20 C          -1.5357  -20.7190  -46.4017 C.2       10 UNK         0.5000 
     21 O          -1.6748  -21.4237  -47.3992 O.2       10 UNK        -0.5000 
     22 CA         -0.1705  -20.7073  -45.6909 C.3       10 UNK         0.1400 
     23 CB          0.7514  -19.6456  -46.2974 C.3       10 UNK        -0.1800 
     24 N          -0.2609  -20.5232  -44.2415 N.am      10 UNK        -0.5000 
     25 C          -0.8826  -21.3641  -43.4002 C.2       9 UNK         0.5000 
     26 O          -1.4561  -22.3928  -43.7608 O.2       9 UNK        -0.5000 
     27 CA         -0.9161  -20.9524  -41.9189 C.3       9 UNK         0.1400 
     28 CB          0.4357  -21.2130  -41.2363 C.3       9 UNK        -0.1800 
     29 N          -1.2813  -19.5438  -41.7757 N.am      9 UNK        -0.5000 
     30 C          -2.5247  -19.0703  -41.9404 C.2       8 UNK         0.5000 
     31 O          -3.5087  -19.7855  -42.1258 O.2       8 UNK        -0.5000 
     32 CA         -2.6955  -17.5403  -41.9292 C.3       8 UNK         0.1400 
     33 CB         -2.9966  -17.0367  -40.5101 C.3       8 UNK        -0.1800 
     34 N          -1.5227  -16.8432  -42.4603 N.am      8 UNK        -0.5000 
     35 C          -1.1758  -16.8401  -43.7568 C.2       7 UNK         0.5000 
     36 O          -1.8256  -17.4072  -44.6333 O.2       7 UNK        -0.5000 
     37 CA          0.1346  -16.1232  -44.1339 C.3       7 UNK         0.1400 
     38 CB         -0.1442  -14.6500  -44.4632 C.3       7 UNK        -0.1800 
     39 N           1.1567  -16.2149  -43.0898 N.am      7 UNK        -0.5000 
     40 C           1.7036  -17.3662  -42.6688 C.2       6 UNK         0.5000 
     41 O           1.4571  -18.4556  -43.1865 O.2       6 UNK        -0.5000 
     42 CA          2.6214  -17.3221  -41.4294 C.3       6 UNK         0.1400 
     43 CB          4.0949  -17.4816  -41.8233 C.3       6 UNK        -0.1800 
     44 N           2.4640  -16.1114  -40.6224 N.am      6 UNK        -0.5000 
     45 C           1.3496  -15.7803  -39.9546 C.2       5 UNK         0.5000 
     46 O           0.3425  -16.4882  -39.9276 O.2       5 UNK        -0.5000 
     47 CA          1.3329  -14.4177  -39.2351 C.3       5 UNK         0.1400 
     48 CB          1.5889  -14.6040  -37.7321 C.3       5 UNK        -0.1800 
     49 N           2.2875  -13.4371  -39.7628 N.am      5 UNK        -0.5000 
     50 C           2.2971  -12.9462  -41.0103 C.2       4 UNK         0.5000 
     51 O           1.5109  -13.3113  -41.8868 O.2       4 UNK        -0.5000 
     52 CA          3.3457  -11.8592  -41.3353 C.3       4 UNK         0.1400 
     53 CB          4.4408  -11.6900  -40.2566 C.3       4 UNK        -0.1800 
     54 N           3.9545  -12.0432  -42.6564 N.am      4 UNK        -0.5000 
     55 C           4.6600  -13.1004  -43.0818 C.2       3 UNK         0.5000 
     56 O           4.9038  -14.0950  -42.3941 O.2       3 UNK        -0.5000 
     57 CA          5.2422  -12.9796  -44.5041 C.3       3 UNK         0.1400 
     58 CB          6.5838  -12.2302  -44.4680 C.3       3 UNK        -0.1800 
     59 N           5.4486  -14.2732  -45.1566 N.am      3 UNK        -0.5000 
     60 C           4.4656  -15.0830  -45.5647 C.2       2 UNK         0.5000 
     61 O           3.2675  -14.8333  -45.4147 O.2       2 UNK        -0.5000 
     62 CA          4.9012  -16.3857  -46.2660 C.3       2 UNK         0.1400 
     63 CB          5.3345  -17.4470  -45.2443 C.3       2 UNK        -0.1800 
     64 N           3.8108  -16.9396  -47.0644 N.am      2 UNK        -0.5000 
     65 C           3.3967  -16.4506  -48.2387 C.2       1 UNK         0.5000 
     66 O           3.9948  -15.5820  -48.8791 O.2       1 UNK        -0.5000 
     67 C          -4.5480  -21.4821  -46.3170 C.2       11 UNK         0.5000 
     68 O          -5.4691  -21.7071  -47.1010 O.2       11 UNK        -0.5000 
     69 N          -4.0044  -22.4240  -45.5330 N.am      12 UNK        -0.5000 
     70 CA         -4.3939  -23.8329  -45.5168 C.3       12 UNK         0.1400 
     71 CB         -4.5644  -24.2608  -44.0486 C.3       12 UNK        -0.1800 
     72 C          -3.3771  -24.7403  -46.2426 C.2       12 UNK         0.5000 
     73 O          -3.5145  -25.9623  -46.1609 O.2       12 UNK        -0.5000 
     74 N          -2.3700  -24.1637  -46.9146 N.am      13 UNK        -0.5000 
     75 CA         -1.2592  -24.8926  -47.5196 C.3       13 UNK         0.1400 
     76 CB         -0.1455  -25.0935  -46.4700 C.3       13 UNK        -0.1800 
     77 C          -0.7791  -24.2010  -48.8078 C.2       13 UNK         0.5000 
     78 O          -1.3438  -24.4515  -49.8713 O.2       13 UNK        -0.5000 
     79 N           0.2799  -23.3890  -48.7015 N.am      14 UNK        -0.5000 
     80 CA          1.0641  -22.8502  -49.8154 C.3       14 UNK         0.1400 
     81 CB          2.4584  -22.4898  -49.2740 C.3       14 UNK        -0.1800 
     82 C           0.4585  -21.6424  -50.5609 C.2       14 UNK         0.5000 
     83 O           1.0488  -21.2282  -51.5584 O.2       14 UNK        -0.5000 
     84 N          -0.6530  -21.0735  -50.0700 N.am      15 UNK        -0.5000 
     85 CA         -1.2997  -19.8595  -50.5870 C.3       15 UNK         0.1400 
     86 CB         -2.6284  -19.6358  -49.8537 C.3       15 UNK        -0.1800 
     87 C          -1.5245  -19.8463  -52.1104 C.2       15 UNK         0.5000 
     88 O          -2.0548  -20.8136  -52.6545 O.2       15 UNK        -0.5000 
     89 N          -1.0868  -18.7614  -52.7669 N.am      16 UNK        -0.5000 
     90 CA         -1.0409  -18.5201  -54.2182 C.3       16 UNK         0.1400 
     91 CB         -2.4488  -18.5389  -54.8455 C.3       16 UNK        -0.1800 
     92 C          -0.0643  -19.4429  -54.9807 C.2       16 UNK         0.5000 
     93 O           0.7691  -18.9476  -55.7397 O.2       16 UNK        -0.5000 
     94 N          -0.1636  -20.7512  -54.7386 N.am      17 UNK        -0.5000 
     95 CA          0.7176  -21.8163  -55.2139 C.3       17 UNK         0.1400 
     96 CB          0.5378  -22.0596  -56.7246 C.3       17 UNK        -0.1800 
     97 C           0.4200  -23.0889  -54.4077 C.2       17 UNK         0.5000 
     98 O           1.3380  -23.7422  -53.9114 O.2       17 UNK        -0.5000 
     99 N          -0.8749  -23.3779  -54.2586 N.am      18 UNK        -0.5000 
    100 CA        -1.4612  -24.3406  -53.3414 C.3       18 UNK         0.1400 
    101 CB        -1.4927  -25.7410  -53.9741 C.3       18 UNK        -0.1800 
    102 C         -2.8722  -23.8141  -53.0596 C.2       18 UNK         0.5000 
    103 O         -3.5248  -23.3527  -53.9984 O.2       18 UNK        -0.5000 
    104 N         -3.3052  -23.8616  -51.7940 N.am      19 UNK        -0.5000 
    105 CA        -4.4748  -23.1572  -51.2506 C.3       19 UNK         0.1400 
    106 CB        -4.6536  -23.5487  -49.7777 C.3       19 UNK        -0.1800 
    107 C         -5.8012  -23.3230  -52.0169 C.2       19 UNK         0.5000 
    108 O         -6.6145  -22.3982  -52.0220 O.2       19 UNK        -0.5000 
    109 N         -5.9806  -24.4606  -52.7009 N.am      20 UNK        -0.5000 
    110 CA        -7.1008  -24.7327  -53.6066 C.3       20 UNK         0.1400 
    111 CB        -6.9754  -26.1733  -54.1256 C.3       20 UNK        -0.1800 
    112 C         -7.2199  -23.7424  -54.7882 C.2       20 UNK         0.5000 
    113 O         -8.3072  -23.6069  -55.3506 O.2       20 UNK        -0.5000 
    114 N         -6.1186  -23.0618  -55.1371 N.am      21 UNK        -0.5000 
    115 CA        -6.0558  -22.0391  -56.1786 C.3       21 UNK         0.1400 
    116 CB        -4.5902  -21.8388  -56.5986 C.3       21 UNK        -0.1800 
    117 C         -6.6840  -20.6900  -55.7741 C.2       21 UNK         0.5000 
    118 O         -6.9418  -19.8814  -56.6679 O.2       21 UNK        -0.5000 
    119 N         -6.9168  -20.4456  -54.4746 N.am      22 UNK        -0.5000 
    120 CA        -7.4969  -19.1817  -53.9841 C.3       22 UNK         0.1400 
    121 C         -8.4874  -19.3084  -52.7918 C.2       22 UNK         0.5000 
    122 N         -8.5726  -20.4312  -52.0911 N.am      22 UNK        -0.7600 
    123 O         -9.2268  -18.3677  -52.5141 O.2       22 UNK        -0.5000 
    124 C124       -6.4250  -18.0746  -53.7861 C.3       23 UNK        -0.0398 
    125 S125       -5.3928  -18.2533  -52.2850 S.3       23 UNK        -0.2404 
    126 C126       -5.8519  -16.7216  -51.4134 C.3       23 UNK        -0.0205 
    127 H127        3.5426  -17.8732  -52.8587 H         1 UNK         0.0600 
    128 H128        1.8889  -17.2661  -52.7387 H         1 UNK         0.0600 
    129 H129        2.1916  -19.0051  -52.7517 H         1 UNK         0.0600 
    130 H130        1.4882  -16.4391  -50.6955 H         1 UNK         0.3000 
    131 H131        1.9246  -17.9934  -48.3173 H         1 UNK         0.0600 
    132 H132        0.8684  -15.1553  -48.7607 H         1 UNK         0.0800 
    133 H133        1.0322  -15.8465  -47.1686 H         1 UNK         0.0800 
    134 H134       -1.7378  -14.8721  -47.7067 H         1 UNK         0.0800 
    135 H135       -1.5551  -14.9683  -49.4448 H         1 UNK         0.0800 
    136 H136       -3.2982  -15.9651  -50.8301 H         1 UNK         0.1150 
    137 H137       -6.9605  -17.1822  -48.9637 H         1 UNK         0.1150 
    138 H138       -3.5620  -16.1651  -46.5544 H         1 UNK         0.1150 
    139 H139       -5.7413  -16.4117  -45.5131 H         1 UNK         0.0800 
    140 H140       -7.1653  -16.4644  -46.5139 H         1 UNK         0.0800 
    141 H141       -4.9573  -19.6355  -44.3359 H         1 UNK         0.0800 
    142 H142       -4.2490  -18.2332  -45.0742 H         1 UNK         0.0800 
    143 H143       -3.9994  -19.6291  -47.2362 H         1 UNK         0.0600 
    144 H144       -2.2991  -19.4034  -45.0746 H         1 UNK         0.3000 
    145 H145        0.2885  -21.6822  -45.8631 H         1 UNK         0.0600 
    146 H146        1.7504  -19.6921  -45.8637 H         1 UNK         0.0600 
    147 H147        0.8504  -19.7972  -47.3728 H         1 UNK         0.0600 
    148 H148        0.3591  -18.6426  -46.1367 H         1 UNK         0.0600 
    149 H149        0.2247  -19.7167  -43.8568 H         1 UNK         0.3000 
    150 H150       -1.6695  -21.5628  -41.4161 H         1 UNK         0.0600 
    151 H151        0.7045  -22.2681  -41.3004 H         1 UNK         0.0600 
    152 H152        0.3993  -20.9510  -40.1788 H         1 UNK         0.0600 
    153 H153        1.2437  -20.6427  -41.6943 H         1 UNK         0.0600 
    154 H154       -0.5271  -18.8850  -41.6486 H         1 UNK         0.3000 
    155 H155       -3.5515  -17.2970  -42.5625 H         1 UNK         0.0600 
    156 H156       -3.1307  -15.9550  -40.4937 H         1 UNK         0.0600 
    157 H157       -3.9143  -17.4842  -40.1265 H         1 UNK         0.0600 
    158 H158       -2.1964  -17.2875  -39.8133 H         1 UNK         0.0600 
    159 H159       -0.9140  -16.3986  -41.7845 H         1 UNK         0.3000 
    160 H160        0.5333  -16.6040  -45.0270 H         1 UNK         0.0600 
    161 H161       -0.5545  -14.1170  -43.6047 H         1 UNK         0.0600 
    162 H162       -0.8622  -14.5628  -45.2795 H         1 UNK         0.0600 
    163 H163        0.7639  -14.1332  -44.7725 H         1 UNK         0.0600 
    164 H164        1.4113  -15.3483  -42.6291 H         1 UNK         0.3000 
    165 H165        2.3494  -18.1733  -40.8017 H         1 UNK         0.0600 
    166 H166        4.7419  -17.4833  -40.9461 H         1 UNK         0.0600 
    167 H167        4.2573  -18.4251  -42.3455 H         1 UNK         0.0600 
    168 H168        4.4227  -16.6766  -42.4803 H         1 UNK         0.0600 
    169 H169        3.2347  -15.4577  -40.6308 H         1 UNK         0.3000 
    170 H170        0.3313  -14.0018  -39.3617 H         1 UNK         0.0600 
    171 H171        0.8768  -15.3073  -37.2979 H         1 UNK         0.0600 
    172 H172        2.5906  -14.9906  -37.5401 H         1 UNK         0.0600 
    173 H173        1.4819  -13.6626  -37.1929 H         1 UNK         0.0600 
    174 H174        2.9758  -13.0904  -39.1105 H         1 UNK         0.3000 
    175 H175        2.7916  -10.9210  -41.3872 H         1 UNK         0.0600 
    176 H176        4.0153  -11.3796  -39.3016 H         1 UNK         0.0600 
    177 H177        5.0000  -12.6118  -40.0914 H         1 UNK         0.0600 
    178 H178        5.1561  -10.9201  -40.5467 H         1 UNK         0.0600 
    179 H179        3.7927  -11.2882  -43.3078 H         1 UNK         0.3000 
    180 H180        4.5418  -12.4055  -45.1146 H         1 UNK         0.0600 
    181 H181        7.3298  -12.7705  -43.8836 H         1 UNK         0.0600 
    182 H182        6.4705  -11.2420  -44.0200 H         1 UNK         0.0600 
    183 H183        6.9832  -12.0851  -45.4720 H         1 UNK         0.0600 
    184 H184        6.4075  -14.5638  -45.2780 H         1 UNK         0.3000 
    185 H185        5.7457  -16.1606  -46.9210 H         1 UNK         0.0600 
    186 H186        5.7627  -18.3173  -45.7420 H         1 UNK         0.0600 
    187 H187        6.0908  -17.0598  -44.5602 H         1 UNK         0.0600 
    188 H188        4.4895  -17.7900  -44.6478 H         1 UNK         0.0600 
    189 H189        3.2407  -17.6288  -46.5982 H         1 UNK         0.3000 
    190 H190       -3.2216  -22.1796  -44.9359 H         1 UNK         0.3000 
    191 H191       -5.3537  -23.9691  -46.0187 H         1 UNK         0.0600 
    192 H192       -3.6232  -24.1979  -43.5009 H         1 UNK         0.0600 
    193 H193       -4.9205  -25.2890  -43.9746 H         1 UNK         0.0600 
    194 H194       -5.2920  -23.6306  -43.5368 H         1 UNK         0.0600 
    195 H195       -2.3336  -23.1516  -47.0019 H         1 UNK         0.3000 
    196 H196       -1.6006  -25.8814  -47.8330 H         1 UNK         0.0600 
    197 H197        0.7360  -25.5610  -46.9108 H         1 UNK         0.0600 
    198 H198       -0.4850  -25.7470  -45.6662 H         1 UNK         0.0600 
    199 H199        0.1629  -24.1524  -46.0140 H         1 UNK         0.0600 
    200 H200        0.6572  -23.2274  -47.7808 H         1 UNK         0.3000 
    201 H201        1.1860  -23.6430  -50.5568 H         1 UNK         0.0600 
    202 H202        2.9441  -23.3546  -48.8216 H         1 UNK         0.0600 
    203 H203        2.4049  -21.7004  -48.5230 H         1 UNK         0.0600 
    204 H204        3.1128  -22.1352  -50.0717 H         1 UNK         0.0600 
    205 H205       -1.0537  -21.4575  -49.2197 H         1 UNK         0.3000 
    206 H206       -0.6331  -19.0312  -50.3462 H         1 UNK         0.0600 
    207 H207       -3.2281  -18.8689  -50.3411 H         1 UNK         0.0600 
    208 H208       -3.2291  -20.5438  -49.8077 H         1 UNK         0.0600 
    209 H209       -2.4506  -19.2934  -48.8373 H         1 UNK         0.0600 
    210 H210       -0.6649  -18.0300  -52.2143 H         1 UNK         0.3000 
    211 H211       -0.6549  -17.5058  -54.3315 H         1 UNK         0.0600 
    212 H212       -2.9315  -19.5110  -54.7491 H         1 UNK         0.0600 
    213 H213       -2.4046  -18.3027  -55.9092 H         1 UNK         0.0600 
    214 H214       -3.0955  -17.7986  -54.3751 H         1 UNK         0.0600 
    215 H215       -0.8432  -21.0262  -54.0309 H         1 UNK         0.3000 
    216 H216        1.7511  -21.5250  -55.0161 H         1 UNK         0.0600 
    217 H217       -0.4994  -22.2845  -56.9757 H         1 UNK         0.0600 
    218 H218        1.1474  -22.9002  -57.0582 H         1 UNK         0.0600 
    219 H219        0.8415  -21.1907  -57.3081 H         1 UNK         0.0600 
    220 H220       -1.5707  -22.7900  -54.7021 H         1 UNK         0.3000 
    221 H221       -0.8801  -24.3594  -52.4184 H         1 UNK         0.0600 
    222 H222       -0.4871  -26.0928  -54.2044 H         1 UNK         0.0600 
    223 H223       -2.0717  -25.7512  -54.8985 H         1 UNK         0.0600 
    224 H224       -1.9436  -26.4636  -53.2931 H         1 UNK         0.0600 
    225 H225       -2.6596  -24.2256  -51.0952 H         1 UNK         0.3000 
    226 H226       -4.2384  -22.0926  -51.2893 H         1 UNK         0.0600 
    227 H227       -3.8223  -23.1836  -49.1751 H         1 UNK         0.0600 
    228 H228       -5.5645  -23.1158  -49.3629 H         1 UNK         0.0600 
    229 H229       -4.7156  -24.6299  -49.6509 H         1 UNK         0.0600 
    230 H230       -5.2464  -25.1522  -52.6663 H         1 UNK         0.3000 
    231 H231       -8.0216  -24.6550  -53.0252 H         1 UNK         0.0600 
    232 H232       -6.0549  -26.3159  -54.6931 H         1 UNK         0.0600 
    233 H233       -7.8089  -26.4271  -54.7820 H         1 UNK         0.0600 
    234 H234       -6.9802  -26.8910  -53.3051 H         1 UNK         0.0600 
    235 H235       -5.2511  -23.2321  -54.6310 H         1 UNK         0.3000 
    236 H236       -6.6061  -22.4059  -57.0475 H         1 UNK         0.0600 
    237 H237       -4.1351  -22.7788  -56.9111 H         1 UNK         0.0600 
    238 H238       -4.5135  -21.1453  -57.4369 H         1 UNK         0.0600 
    239 H239       -3.9922  -21.4317  -55.7830 H         1 UNK         0.0600 
    240 H240       -6.6875  -21.1446  -53.7795 H         1 UNK         0.3000 
    241 H241       -8.1520  -18.8176  -54.7781 H         1 UNK         0.0600 
    242 H242       -9.2396  -20.4780  -51.3382 H         1 UNK         0.3800 
    243 H243       -7.9047  -21.1912  -52.2010 H         1 UNK         0.3800 
    244 H244       -6.9162  -17.1005  -53.7731 H         1 UNK         0.0800 
    245 H245       -5.7593  -18.0424  -54.6493 H         1 UNK         0.0800 
    246 H246       -5.5701  -15.8628  -52.0245 H         1 UNK         0.0800 
    247 H247       -6.9377  -16.6820  -51.3105 H         1 UNK         0.0800 
@<TRIPOS>BOND
     1    1    2 1    
     2    1  127 1    
     3    1  128 1    
     4    1  129 1    
     5    2    3 2    
     6    2    4 am   BACKBONE|DICT|INTERRES
     7    4    5 1    
     8    4  130 1    
     9    5    6 1    
    10    5   65 1    
    11    5  131 1    
    12    6    7 1    
    13    6  132 1    
    14    6  133 1    
    15    7    8 1    
    16    8    9 1    
    17    8  134 1    
    18    8  135 1    
    19    9   10 ar   
    20    9   14 ar   
    21   10   11 ar   
    22   10  136 1    
    23   11   12 ar   
    24   11  126 1    
    25   12   13 ar   
    26   12  137 1    
    27   13   14 ar   
    28   13   15 1    
    29   14  138 1    
    30   15   16 1    
    31   15  139 1    
    32   15  140 1    
    33   16   17 1    
    34   17   18 1    
    35   17  141 1    
    36   17  142 1    
    37   18   19 1    
    38   18   67 1    
    39   18  143 1    
    40   19   20 am   BACKBONE|DICT|INTERRES
    41   19  144 1    
    42   20   21 2    
    43   20   22 1    
    44   22   23 1    
    45   22   24 1    
    46   22  145 1    
    47   23  146 1    
    48   23  147 1    
    49   23  148 1    
    50   24   25 am   BACKBONE|DICT|INTERRES
    51   24  149 1    
    52   25   26 2    
    53   25   27 1    
    54   27   28 1    
    55   27   29 1    
    56   27  150 1    
    57   28  151 1    
    58   28  152 1    
    59   28  153 1    
    60   29   30 am   BACKBONE|DICT|INTERRES
    61   29  154 1    
    62   30   31 2    
    63   30   32 1    
    64   32   33 1    
    65   32   34 1    
    66   32  155 1    
    67   33  156 1    
    68   33  157 1    
    69   33  158 1    
    70   34   35 am   BACKBONE|DICT|INTERRES
    71   34  159 1    
    72   35   36 2    
    73   35   37 1    
    74   37   38 1    
    75   37   39 1    
    76   37  160 1    
    77   38  161 1    
    78   38  162 1    
    79   38  163 1    
    80   39   40 am   BACKBONE|DICT|INTERRES
    81   39  164 1    
    82   40   41 2    
    83   40   42 1    
    84   42   43 1    
    85   42   44 1    
    86   42  165 1    
    87   43  166 1    
    88   43  167 1    
    89   43  168 1    
    90   44   45 am   BACKBONE|DICT|INTERRES
    91   44  169 1    
    92   45   46 2    
    93   45   47 1    
    94   47   48 1    
    95   47   49 1    
    96   47  170 1    
    97   48  171 1    
    98   48  172 1    
    99   48  173 1    
   100   49   50 am   BACKBONE|DICT|INTERRES
   101   49  174 1    
   102   50   51 2    
   103   50   52 1    
   104   52   53 1    
   105   52   54 1    
   106   52  175 1    
   107   53  176 1    
   108   53  177 1    
   109   53  178 1    
   110   54   55 am   BACKBONE|DICT|INTERRES
   111   54  179 1    
   112   55   56 2    
   113   55   57 1    
   114   57   58 1    
   115   57   59 1    
   116   57  180 1    
   117   58  181 1    
   118   58  182 1    
   119   58  183 1    
   120   59   60 am   BACKBONE|DICT|INTERRES
   121   59  184 1    
   122   60   61 2    
   123   60   62 1    
   124   62   63 1    
   125   62   64 1    
   126   62  185 1    
   127   63  186 1    
   128   63  187 1    
   129   63  188 1    
   130   64   65 am   BACKBONE|DICT|INTERRES
   131   64  189 1    
   132   65   66 2    
   133   67   68 2    
   134   67   69 am   BACKBONE|DICT|INTERRES
   135   69   70 1    
   136   69  190 1    
   137   70   71 1    
   138   70   72 1    
   139   70  191 1    
   140   71  192 1    
   141   71  193 1    
   142   71  194 1    
   143   72   73 2    
   144   72   74 am   BACKBONE|DICT|INTERRES
   145   74   75 1    
   146   74  195 1    
   147   75   76 1    
   148   75   77 1    
   149   75  196 1    
   150   76  197 1    
   151   76  198 1    
   152   76  199 1    
   153   77   78 2    
   154   77   79 am   BACKBONE|DICT|INTERRES
   155   79   80 1    
   156   79  200 1    
   157   80   81 1    
   158   80   82 1    
   159   80  201 1    
   160   81  202 1    
   161   81  203 1    
   162   81  204 1    
   163   82   83 2    
   164   82   84 am   BACKBONE|DICT|INTERRES
   165   84   85 1    
   166   84  205 1    
   167   85   86 1    
   168   85   87 1    
   169   85  206 1    
   170   86  207 1    
   171   86  208 1    
   172   86  209 1    
   173   87   88 2    
   174   87   89 am   BACKBONE|DICT|INTERRES
   175   89   90 1    
   176   89  210 1    
   177   90   91 1    
   178   90   92 1    
   179   90  211 1    
   180   91  212 1    
   181   91  213 1    
   182   91  214 1    
   183   92   93 2    
   184   92   94 am   BACKBONE|DICT|INTERRES
   185   94   95 1    
   186   94  215 1    
   187   95   96 1    
   188   95   97 1    
   189   95  216 1    
   190   96  217 1    
   191   96  218 1    
   192   96  219 1    
   193   97   98 2    
   194   97   99 am   BACKBONE|DICT|INTERRES
   195   99  100 1    
   196   99  220 1    
   197  100  101 1    
   198  100  102 1    
   199  100  221 1    
   200  101  222 1    
   201  101  223 1    
   202  101  224 1    
   203  102  103 2    
   204  102  104 am   BACKBONE|DICT|INTERRES
   205  104  105 1    
   206  104  225 1    
   207  105  106 1    
   208  105  107 1    
   209  105  226 1    
   210  106  227 1    
   211  106  228 1    
   212  106  229 1    
   213  107  108 2    
   214  107  109 am   BACKBONE|DICT|INTERRES
   215  109  110 1    
   216  109  230 1    
   217  110  111 1    
   218  110  112 1    
   219  110  231 1    
   220  111  232 1    
   221  111  233 1    
   222  111  234 1    
   223  112  113 2    
   224  112  114 am   BACKBONE|DICT|INTERRES
   225  114  115 1    
   226  114  235 1    
   227  115  116 1    
   228  115  117 1    
   229  115  236 1    
   230  116  237 1    
   231  116  238 1    
   232  116  239 1    
   233  117  118 2    
   234  117  119 am   BACKBONE|DICT|INTERRES
   235  119  120 1    
   236  119  240 1    
   237  120  121 1    
   238  120  124 1    
   239  120  241 1    
   240  121  122 am   BACKBONE|DICT|INTERRES
   241  121  123 2    
   242  122  242 1    
   243  122  243 1    
   244  124  125 1    
   245  124  244 1    
   246  124  245 1    
   247  125  126 1    
   248  126  246 1    
   249  126  247 1    
@<TRIPOS>SUBSTRUCTURE
     1 UNK         1 GROUP             0       ****    0 ROOT    
