@<TRIPOS>MOLECULE
3R540
247   249    1
SMALL
USER_CHARGES


@<TRIPOS>ATOM
      1 CA          4.1263  -10.4444  -49.6963 C.3       0 UNK        -0.1800 
      2 C           2.7818  -11.0854  -50.0381 C.2       0 UNK         0.5000 
      3 O           1.8382  -10.3661  -50.3603 O.2       0 UNK        -0.5000 
      4 N           2.6401  -12.4176  -50.0017 N.am      1 UNK        -0.5000 
      5 CA          3.6262  -13.4117  -49.5623 C.3       1 UNK         0.1400 
      6 C6          3.1754  -14.8526  -49.9032 C.3       23 UNK        -0.0398 
      7 S7          2.9912  -15.1452  -51.6952 S.3       23 UNK        -0.2404 
      8 C8          1.1732  -15.1373  -51.9090 C.3       23 UNK        -0.0205 
      9 C9          0.4025  -16.2110  -51.1364 C.ar      23 UNK        -0.0193 
     10 C10        -0.9480  -15.9917  -50.8445 C.ar      23 UNK        -0.1150 
     11 C11        -1.7063  -16.9391  -50.1480 C.ar      23 UNK        -0.0193 
     12 C12        -1.0861  -18.1242  -49.7326 C.ar      23 UNK        -0.1150 
     13 C13         0.2569  -18.3682  -50.0276 C.ar      23 UNK        -0.0193 
     14 C14         0.9922  -17.4154  -50.7351 C.ar      23 UNK        -0.1150 
     15 C15         0.9121  -19.6736  -49.6114 C.3       23 UNK        -0.0205 
     16 S16         1.7958  -19.5242  -48.0278 S.3       23 UNK        -0.2404 
     17 C17         0.4552  -19.6976  -46.8027 C.3       23 UNK        -0.0398 
     18 CA          0.2665  -21.1680  -46.3464 C.3       11 UNK         0.1400 
     19 N          -0.1969  -21.2624  -44.9615 N.am      11 UNK        -0.5000 
     20 C          -0.2338  -22.3992  -44.2515 C.2       10 UNK         0.5000 
     21 O           0.2028  -23.4766  -44.6564 O.2       10 UNK        -0.5000 
     22 CA         -0.9108  -22.3279  -42.8728 C.3       10 UNK         0.1400 
     23 CB          0.0836  -21.8574  -41.8024 C.3       10 UNK        -0.1800 
     24 N          -2.0830  -21.4507  -42.8852 N.am      10 UNK        -0.5000 
     25 C          -3.2359  -21.7530  -43.4996 C.2       9 UNK         0.5000 
     26 O          -3.4342  -22.8118  -44.0936 O.2       9 UNK        -0.5000 
     27 CA         -4.3423  -20.6825  -43.4774 C.3       9 UNK         0.1400 
     28 CB         -5.1611  -20.7768  -42.1817 C.3       9 UNK        -0.1800 
     29 N          -3.8317  -19.3199  -43.6294 N.am      9 UNK        -0.5000 
     30 C          -3.2058  -18.8606  -44.7220 C.2       8 UNK         0.5000 
     31 O          -2.9755  -19.5408  -45.7192 O.2       8 UNK        -0.5000 
     32 CA         -2.6836  -17.4173  -44.6590 C.3       8 UNK         0.1400 
     33 CB         -3.8113  -16.4164  -44.9489 C.3       8 UNK        -0.1800 
     34 N          -2.0463  -17.0844  -43.3799 N.am      8 UNK        -0.5000 
     35 C          -1.0100  -17.7362  -42.8354 C.2       7 UNK         0.5000 
     36 O          -0.4651  -18.7101  -43.3597 O.2       7 UNK        -0.5000 
     37 CA         -0.5239  -17.2259  -41.4707 C.3       7 UNK         0.1400 
     38 CB         -0.1561  -18.3855  -40.5239 C.3       7 UNK        -0.1800 
     39 N           0.6188  -16.3346  -41.6493 N.am      7 UNK        -0.5000 
     40 C           1.0458  -15.4552  -40.7323 C.2       6 UNK         0.5000 
     41 O           0.5000  -15.2896  -39.6402 O.2       6 UNK        -0.5000 
     42 CA          2.2779  -14.6029  -41.0905 C.3       6 UNK         0.1400 
     43 CB          3.5615  -15.4482  -41.1075 C.3       6 UNK        -0.1800 
     44 N           2.1179  -13.9149  -42.3692 N.am      6 UNK        -0.5000 
     45 C           1.2863  -12.8838  -42.5789 C.2       5 UNK         0.5000 
     46 O           0.6315  -12.3385  -41.6897 O.2       5 UNK        -0.5000 
     47 CA          1.1384  -12.3959  -44.0334 C.3       5 UNK         0.1400 
     48 CB          2.2151  -11.3566  -44.3805 C.3       5 UNK        -0.1800 
     49 N           1.1944  -13.4971  -44.9938 N.am      5 UNK        -0.5000 
     50 C           0.2802  -14.4729  -45.0793 C.2       4 UNK         0.5000 
     51 O          -0.7659  -14.4842  -44.4325 O.2       4 UNK        -0.5000 
     52 CA          0.6057  -15.6486  -46.0148 C.3       4 UNK         0.1400 
     53 CB          0.0966  -15.3740  -47.4338 C.3       4 UNK        -0.1800 
     54 N           2.0348  -15.9578  -46.0486 N.am      4 UNK        -0.5000 
     55 C           2.6888  -16.5692  -45.0514 C.2       3 UNK         0.5000 
     56 O           2.1492  -16.9394  -44.0104 O.2       3 UNK        -0.5000 
     57 CA          4.2073  -16.7551  -45.2237 C.3       3 UNK         0.1400 
     58 CB          4.5156  -18.0266  -46.0264 C.3       3 UNK        -0.1800 
     59 N           4.8433  -15.6075  -45.8706 N.am      3 UNK        -0.5000 
     60 C           4.9435  -14.3908  -45.3182 C.2       2 UNK         0.5000 
     61 O           4.5490  -14.1213  -44.1840 O.2       2 UNK        -0.5000 
     62 CA          5.5340  -13.2792  -46.2067 C.3       2 UNK         0.1400 
     63 CB          7.0669  -13.2680  -46.1134 C.3       2 UNK        -0.1800 
     64 N           5.1312  -13.3836  -47.6145 N.am      2 UNK        -0.5000 
     65 C           3.8653  -13.2949  -48.0444 C.2       1 UNK         0.5000 
     66 O           2.9003  -13.1587  -47.2909 O.2       1 UNK        -0.5000 
     67 C          -0.6666  -21.9551  -47.2910 C.2       11 UNK         0.5000 
     68 O          -0.1981  -22.7967  -48.0596 O.2       11 UNK        -0.5000 
     69 N          -1.9783  -21.7021  -47.1820 N.am      12 UNK        -0.5000 
     70 CA         -3.0313  -22.3468  -47.9643 C.3       12 UNK         0.1400 
     71 CB         -4.3795  -21.6904  -47.6492 C.3       12 UNK        -0.1800 
     72 C          -3.1193  -23.8676  -47.7639 C.2       12 UNK         0.5000 
     73 O          -3.4429  -24.5712  -48.7174 O.2       12 UNK        -0.5000 
     74 N          -2.7962  -24.3599  -46.5606 N.am      13 UNK        -0.5000 
     75 CA         -2.7240  -25.7900  -46.2504 C.3       13 UNK         0.1400 
     76 CB         -2.4951  -25.9776  -44.7430 C.3       13 UNK        -0.1800 
     77 C          -1.6484  -26.5436  -47.0601 C.2       13 UNK         0.5000 
     78 O          -1.8199  -27.7350  -47.3214 O.2       13 UNK        -0.5000 
     79 N          -0.5758  -25.8423  -47.4511 N.am      14 UNK        -0.5000 
     80 CA          0.4863  -26.3685  -48.3041 C.3       14 UNK         0.1400 
     81 CB          1.8291  -25.7560  -47.8737 C.3       14 UNK        -0.1800 
     82 C           0.2073  -26.0826  -49.7898 C.2       14 UNK         0.5000 
     83 O           0.3356  -26.9857  -50.6172 O.2       14 UNK        -0.5000 
     84 N          -0.1413  -24.8281  -50.1044 N.am      15 UNK        -0.5000 
     85 CA         -0.2756  -24.3236  -51.4722 C.3       15 UNK         0.1400 
     86 CB         -0.1358  -22.7979  -51.4362 C.3       15 UNK        -0.1800 
     87 C          -1.5819  -24.7291  -52.1795 C.2       15 UNK         0.5000 
     88 O          -1.5839  -24.8485  -53.4060 O.2       15 UNK        -0.5000 
     89 N          -2.6649  -24.9209  -51.4126 N.am      16 UNK        -0.5000 
     90 CA         -4.0091  -25.3009  -51.8551 C.3       16 UNK         0.1400 
     91 CB         -4.0274  -26.7932  -52.2551 C.3       16 UNK        -0.1800 
     92 C          -4.5616  -24.3462  -52.9351 C.2       16 UNK         0.5000 
     93 O          -4.7762  -23.1642  -52.6518 O.2       16 UNK        -0.5000 
     94 N          -4.7593  -24.8638  -54.1545 N.am      17 UNK        -0.5000 
     95 CA         -5.2673  -24.1401  -55.3189 C.3       17 UNK         0.1400 
     96 CB         -5.5059  -25.1365  -56.4629 C.3       17 UNK        -0.1800 
     97 C          -4.3593  -22.9885  -55.7890 C.2       17 UNK         0.5000 
     98 O          -4.8752  -22.0135  -56.3346 O.2       17 UNK        -0.5000 
     99 N          -3.0438  -23.0821  -55.5379 N.am      18 UNK        -0.5000 
    100 CA        -2.0745  -22.0284  -55.8619 C.3       18 UNK         0.1400 
    101 CB        -0.6488  -22.5929  -55.7731 C.3       18 UNK        -0.1800 
    102 C         -2.2262  -20.7794  -54.9700 C.2       18 UNK         0.5000 
    103 O         -1.8814  -19.6792  -55.4012 O.2       18 UNK        -0.5000 
    104 N         -2.7677  -20.9712  -53.7607 N.am      19 UNK        -0.5000 
    105 CA        -3.1376  -19.9115  -52.8228 C.3       19 UNK         0.1400 
    106 CB        -2.8886  -20.4318  -51.4005 C.3       19 UNK        -0.1800 
    107 C         -4.6079  -19.4795  -52.9726 C.2       19 UNK         0.5000 
    108 O         -5.0276  -18.5384  -52.3003 O.2       19 UNK        -0.5000 
    109 N         -5.3789  -20.2055  -53.7972 N.am      20 UNK        -0.5000 
    110 CA        -6.8356  -20.1241  -53.9492 C.3       20 UNK         0.1400 
    111 CB        -7.2455  -18.7866  -54.5998 C.3       20 UNK        -0.1800 
    112 C         -7.5923  -20.4143  -52.6323 C.2       20 UNK         0.5000 
    113 O         -8.6877  -19.8887  -52.4271 O.2       20 UNK        -0.5000 
    114 N         -6.9861  -21.2489  -51.7706 N.am      21 UNK        -0.5000 
    115 CA        -7.4527  -21.6531  -50.4415 C.3       21 UNK         0.1400 
    116 CB        -8.6531  -22.6133  -50.5694 C.3       21 UNK        -0.1800 
    117 C         -7.7265  -20.4582  -49.4966 C.2       21 UNK         0.5000 
    118 O         -8.7958  -20.3873  -48.8882 O.2       21 UNK        -0.5000 
    119 N         -6.7603  -19.5327  -49.3988 N.am      22 UNK        -0.5000 
    120 CA        -6.8491  -18.2920  -48.6013 C.3       22 UNK         0.1400 
    121 C         -6.9197  -18.4477  -47.0493 C.2       22 UNK         0.5000 
    122 N         -6.7995  -19.6411  -46.4831 N.am      22 UNK        -0.7600 
    123 O         -7.1140  -17.4622  -46.3429 O.2       22 UNK        -0.5000 
    124 C124       -5.7878  -17.2450  -49.0337 C.3       23 UNK        -0.0398 
    125 S125       -4.0573  -17.7583  -48.7515 S.3       23 UNK        -0.2404 
    126 C126       -3.1900  -16.6456  -49.9130 C.3       23 UNK        -0.0205 
    127 H127        4.2839  -10.4346  -48.6179 H         1 UNK         0.0600 
    128 H128        4.1520   -9.4117  -50.0447 H         1 UNK         0.0600 
    129 H129        4.9557  -10.9674  -50.1709 H         1 UNK         0.0600 
    130 H130        1.7323  -12.7975  -50.2210 H         1 UNK         0.3000 
    131 H131        4.5656  -13.2213  -50.0839 H         1 UNK         0.0600 
    132 H132        3.9077  -15.5761  -49.5399 H         1 UNK         0.0800 
    133 H133        2.2415  -15.0949  -49.3966 H         1 UNK         0.0800 
    134 H134        0.8004  -14.1492  -51.6366 H         1 UNK         0.0800 
    135 H135        0.9553  -15.2630  -52.9701 H         1 UNK         0.0800 
    136 H136       -1.4188  -15.0748  -51.1712 H         1 UNK         0.1150 
    137 H137       -1.6445  -18.8764  -49.1964 H         1 UNK         0.1150 
    138 H138        2.0269  -17.6210  -50.9673 H         1 UNK         0.1150 
    139 H139        0.1712  -20.4694  -49.5582 H         1 UNK         0.0800 
    140 H140        1.6244  -19.9817  -50.3781 H         1 UNK         0.0800 
    141 H141        0.7505  -19.0841  -45.9499 H         1 UNK         0.0800 
    142 H142       -0.4708  -19.2519  -47.1681 H         1 UNK         0.0800 
    143 H143        1.2411  -21.6609  -46.3725 H         1 UNK         0.0600 
    144 H144       -0.5357  -20.4092  -44.5291 H         1 UNK         0.3000 
    145 H145       -1.2417  -23.3347  -42.6080 H         1 UNK         0.0600 
    146 H146       -0.3911  -21.7769  -40.8244 H         1 UNK         0.0600 
    147 H147        0.9102  -22.5624  -41.7065 H         1 UNK         0.0600 
    148 H148        0.5130  -20.8879  -42.0530 H         1 UNK         0.0600 
    149 H149       -1.9746  -20.5367  -42.4718 H         1 UNK         0.3000 
    150 H150       -5.0104  -20.8834  -44.3168 H         1 UNK         0.0600 
    151 H151       -5.5719  -21.7790  -42.0521 H         1 UNK         0.0600 
    152 H152       -6.0011  -20.0821  -42.1944 H         1 UNK         0.0600 
    153 H153       -4.5539  -20.5547  -41.3032 H         1 UNK         0.0600 
    154 H154       -3.9622  -18.6928  -42.8496 H         1 UNK         0.3000 
    155 H155       -1.9400  -17.3174  -45.4487 H         1 UNK         0.0600 
    156 H156       -3.4261  -15.3991  -45.0202 H         1 UNK         0.0600 
    157 H157       -4.5781  -16.4337  -44.1736 H         1 UNK         0.0600 
    158 H158       -4.3008  -16.6433  -45.8968 H         1 UNK         0.0600 
    159 H159       -2.4009  -16.2635  -42.9106 H         1 UNK         0.3000 
    160 H160       -1.3424  -16.6645  -41.0150 H         1 UNK         0.0600 
    161 H161        0.7547  -18.8897  -40.8472 H         1 UNK         0.0600 
    162 H162       -0.9529  -19.1288  -40.4813 H         1 UNK         0.0600 
    163 H163        0.0068  -18.0309  -39.5064 H         1 UNK         0.0600 
    164 H164        1.1283  -16.4431  -42.5254 H         1 UNK         0.3000 
    165 H165        2.3946  -13.8450  -40.3128 H         1 UNK         0.0600 
    166 H166        3.5325  -16.2217  -41.8741 H         1 UNK         0.0600 
    167 H167        4.4378  -14.8275  -41.2952 H         1 UNK         0.0600 
    168 H168        3.7129  -15.9443  -40.1481 H         1 UNK         0.0600 
    169 H169        2.6679  -14.2605  -43.1464 H         1 UNK         0.3000 
    170 H170        0.1613  -11.9176  -44.1279 H         1 UNK         0.0600 
    171 H171        2.0960  -10.9902  -45.4004 H         1 UNK         0.0600 
    172 H172        2.1531  -10.4953  -43.7144 H         1 UNK         0.0600 
    173 H173        3.2193  -11.7695  -44.2887 H         1 UNK         0.0600 
    174 H174        1.9829  -13.5099  -45.6339 H         1 UNK         0.3000 
    175 H175        0.0933  -16.5320  -45.6356 H         1 UNK         0.0600 
    176 H176        0.3560  -16.1939  -48.1008 H         1 UNK         0.0600 
    177 H177       -0.9897  -15.2763  -47.4455 H         1 UNK         0.0600 
    178 H178        0.5134  -14.4549  -47.8461 H         1 UNK         0.0600 
    179 H179        2.5554  -15.6301  -46.8467 H         1 UNK         0.3000 
    180 H180        4.6402  -16.8690  -44.2275 H         1 UNK         0.0600 
    181 H181        4.1802  -17.9407  -47.0603 H         1 UNK         0.0600 
    182 H182        4.0202  -18.8956  -45.5907 H         1 UNK         0.0600 
    183 H183        5.5855  -18.2347  -46.0382 H         1 UNK         0.0600 
    184 H184        5.2045  -15.7471  -46.8023 H         1 UNK         0.3000 
    185 H185        5.1645  -12.3248  -45.8257 H         1 UNK         0.0600 
    186 H186        7.4894  -12.4277  -46.6646 H         1 UNK         0.0600 
    187 H187        7.3939  -13.1720  -45.0771 H         1 UNK         0.0600 
    188 H188        7.5027  -14.1851  -46.5116 H         1 UNK         0.0600 
    189 H189        5.8773  -13.5027  -48.2851 H         1 UNK         0.3000 
    190 H190       -2.2893  -20.9741  -46.5395 H         1 UNK         0.3000 
    191 H191       -2.8059  -22.1737  -49.0174 H         1 UNK         0.0600 
    192 H192       -5.1867  -22.1683  -48.2022 H         1 UNK         0.0600 
    193 H193       -4.3722  -20.6350  -47.9191 H         1 UNK         0.0600 
    194 H194       -4.6189  -21.7651  -46.5884 H         1 UNK         0.0600 
    195 H195       -2.6193  -23.7162  -45.7977 H         1 UNK         0.3000 
    196 H196       -3.6898  -26.2321  -46.5032 H         1 UNK         0.0600 
    197 H197       -2.4460  -27.0358  -44.4832 H         1 UNK         0.0600 
    198 H198       -3.3077  -25.5405  -44.1630 H         1 UNK         0.0600 
    199 H199       -1.5630  -25.5161  -44.4168 H         1 UNK         0.0600 
    200 H200       -0.5232  -24.8597  -47.2134 H         1 UNK         0.3000 
    201 H201        0.5621  -27.4507  -48.1785 H         1 UNK         0.0600 
    202 H202        2.0603  -26.0069  -46.8383 H         1 UNK         0.0600 
    203 H203        1.8280  -24.6687  -47.9594 H         1 UNK         0.0600 
    204 H204        2.6457  -26.1335  -48.4903 H         1 UNK         0.0600 
    205 H205       -0.2016  -24.1370  -49.3603 H         1 UNK         0.3000 
    206 H206        0.5478  -24.7201  -52.0702 H         1 UNK         0.0600 
    207 H207        0.8666  -22.5036  -51.1255 H         1 UNK         0.0600 
    208 H208       -0.3219  -22.3482  -52.4119 H         1 UNK         0.0600 
    209 H209       -0.8417  -22.3693  -50.7277 H         1 UNK         0.0600 
    210 H210       -2.5865  -24.7783  -50.4101 H         1 UNK         0.3000 
    211 H211       -4.6678  -25.1853  -50.9938 H         1 UNK         0.0600 
    212 H212       -3.3577  -27.0070  -53.0888 H         1 UNK         0.0600 
    213 H213       -5.0307  -27.1164  -52.5359 H         1 UNK         0.0600 
    214 H214       -3.7150  -27.4186  -51.4185 H         1 UNK         0.0600 
    215 H215       -4.5250  -25.8351  -54.2989 H         1 UNK         0.3000 
    216 H216       -6.2285  -23.7028  -55.0407 H         1 UNK         0.0600 
    217 H217       -4.5814  -25.6300  -56.7656 H         1 UNK         0.0600 
    218 H218       -6.2198  -25.9077  -56.1727 H         1 UNK         0.0600 
    219 H219       -5.9128  -24.6337  -57.3414 H         1 UNK         0.0600 
    220 H220       -2.6887  -23.8937  -55.0442 H         1 UNK         0.3000 
    221 H221       -2.2471  -21.7162  -56.8941 H         1 UNK         0.0600 
    222 H222       -0.5254  -23.4591  -56.4233 H         1 UNK         0.0600 
    223 H223        0.0844  -21.8470  -56.0825 H         1 UNK         0.0600 
    224 H224       -0.3949  -22.8967  -54.7583 H         1 UNK         0.0600 
    225 H225       -3.0475  -21.9084  -53.5015 H         1 UNK         0.3000 
    226 H226       -2.5194  -19.0249  -52.9795 H         1 UNK         0.0600 
    227 H227       -3.2920  -21.4334  -51.2535 H         1 UNK         0.0600 
    228 H228       -1.8218  -20.4549  -51.1931 H         1 UNK         0.0600 
    229 H229       -3.3433  -19.7884  -50.6497 H         1 UNK         0.0600 
    230 H230       -4.9321  -20.9390  -54.3299 H         1 UNK         0.3000 
    231 H231       -7.1123  -20.9235  -54.6379 H         1 UNK         0.0600 
    232 H232       -8.3058  -18.7843  -54.8546 H         1 UNK         0.0600 
    233 H233       -6.6914  -18.6117  -55.5220 H         1 UNK         0.0600 
    234 H234       -7.0680  -17.9406  -53.9353 H         1 UNK         0.0600 
    235 H235       -6.1062  -21.6615  -52.0631 H         1 UNK         0.3000 
    236 H236       -6.6346  -22.2188  -49.9965 H         1 UNK         0.0600 
    237 H237       -8.4092  -23.4649  -51.2047 H         1 UNK         0.0600 
    238 H238       -8.9435  -23.0089  -49.5955 H         1 UNK         0.0600 
    239 H239       -9.5257  -22.1167  -50.9951 H         1 UNK         0.0600 
    240 H240       -5.9217  -19.6350  -49.9520 H         1 UNK         0.3000 
    241 H241       -7.8150  -17.8552  -48.8619 H         1 UNK         0.0600 
    242 H242       -6.8760  -19.7168  -45.4828 H         1 UNK         0.3800 
    243 H243       -6.6780  -20.4629  -47.0487 H         1 UNK         0.3800 
    244 H244       -5.9192  -17.0306  -50.0952 H         1 UNK         0.0800 
    245 H245       -5.9529  -16.2956  -48.5216 H         1 UNK         0.0800 
    246 H246       -3.2990  -15.6236  -49.5473 H         1 UNK         0.0800 
    247 H247       -3.6915  -16.6862  -50.8802 H         1 UNK         0.0800 
@<TRIPOS>BOND
     1    1    2 1    
     2    1  127 1    
     3    1  128 1    
     4    1  129 1    
     5    2    3 2    
     6    2    4 am   BACKBONE|DICT|INTERRES
     7    4    5 1    
     8    4  130 1    
     9    5    6 1    
    10    5   65 1    
    11    5  131 1    
    12    6    7 1    
    13    6  132 1    
    14    6  133 1    
    15    7    8 1    
    16    8    9 1    
    17    8  134 1    
    18    8  135 1    
    19    9   10 ar   
    20    9   14 ar   
    21   10   11 ar   
    22   10  136 1    
    23   11   12 ar   
    24   11  126 1    
    25   12   13 ar   
    26   12  137 1    
    27   13   14 ar   
    28   13   15 1    
    29   14  138 1    
    30   15   16 1    
    31   15  139 1    
    32   15  140 1    
    33   16   17 1    
    34   17   18 1    
    35   17  141 1    
    36   17  142 1    
    37   18   19 1    
    38   18   67 1    
    39   18  143 1    
    40   19   20 am   BACKBONE|DICT|INTERRES
    41   19  144 1    
    42   20   21 2    
    43   20   22 1    
    44   22   23 1    
    45   22   24 1    
    46   22  145 1    
    47   23  146 1    
    48   23  147 1    
    49   23  148 1    
    50   24   25 am   BACKBONE|DICT|INTERRES
    51   24  149 1    
    52   25   26 2    
    53   25   27 1    
    54   27   28 1    
    55   27   29 1    
    56   27  150 1    
    57   28  151 1    
    58   28  152 1    
    59   28  153 1    
    60   29   30 am   BACKBONE|DICT|INTERRES
    61   29  154 1    
    62   30   31 2    
    63   30   32 1    
    64   32   33 1    
    65   32   34 1    
    66   32  155 1    
    67   33  156 1    
    68   33  157 1    
    69   33  158 1    
    70   34   35 am   BACKBONE|DICT|INTERRES
    71   34  159 1    
    72   35   36 2    
    73   35   37 1    
    74   37   38 1    
    75   37   39 1    
    76   37  160 1    
    77   38  161 1    
    78   38  162 1    
    79   38  163 1    
    80   39   40 am   BACKBONE|DICT|INTERRES
    81   39  164 1    
    82   40   41 2    
    83   40   42 1    
    84   42   43 1    
    85   42   44 1    
    86   42  165 1    
    87   43  166 1    
    88   43  167 1    
    89   43  168 1    
    90   44   45 am   BACKBONE|DICT|INTERRES
    91   44  169 1    
    92   45   46 2    
    93   45   47 1    
    94   47   48 1    
    95   47   49 1    
    96   47  170 1    
    97   48  171 1    
    98   48  172 1    
    99   48  173 1    
   100   49   50 am   BACKBONE|DICT|INTERRES
   101   49  174 1    
   102   50   51 2    
   103   50   52 1    
   104   52   53 1    
   105   52   54 1    
   106   52  175 1    
   107   53  176 1    
   108   53  177 1    
   109   53  178 1    
   110   54   55 am   BACKBONE|DICT|INTERRES
   111   54  179 1    
   112   55   56 2    
   113   55   57 1    
   114   57   58 1    
   115   57   59 1    
   116   57  180 1    
   117   58  181 1    
   118   58  182 1    
   119   58  183 1    
   120   59   60 am   BACKBONE|DICT|INTERRES
   121   59  184 1    
   122   60   61 2    
   123   60   62 1    
   124   62   63 1    
   125   62   64 1    
   126   62  185 1    
   127   63  186 1    
   128   63  187 1    
   129   63  188 1    
   130   64   65 am   BACKBONE|DICT|INTERRES
   131   64  189 1    
   132   65   66 2    
   133   67   68 2    
   134   67   69 am   BACKBONE|DICT|INTERRES
   135   69   70 1    
   136   69  190 1    
   137   70   71 1    
   138   70   72 1    
   139   70  191 1    
   140   71  192 1    
   141   71  193 1    
   142   71  194 1    
   143   72   73 2    
   144   72   74 am   BACKBONE|DICT|INTERRES
   145   74   75 1    
   146   74  195 1    
   147   75   76 1    
   148   75   77 1    
   149   75  196 1    
   150   76  197 1    
   151   76  198 1    
   152   76  199 1    
   153   77   78 2    
   154   77   79 am   BACKBONE|DICT|INTERRES
   155   79   80 1    
   156   79  200 1    
   157   80   81 1    
   158   80   82 1    
   159   80  201 1    
   160   81  202 1    
   161   81  203 1    
   162   81  204 1    
   163   82   83 2    
   164   82   84 am   BACKBONE|DICT|INTERRES
   165   84   85 1    
   166   84  205 1    
   167   85   86 1    
   168   85   87 1    
   169   85  206 1    
   170   86  207 1    
   171   86  208 1    
   172   86  209 1    
   173   87   88 2    
   174   87   89 am   BACKBONE|DICT|INTERRES
   175   89   90 1    
   176   89  210 1    
   177   90   91 1    
   178   90   92 1    
   179   90  211 1    
   180   91  212 1    
   181   91  213 1    
   182   91  214 1    
   183   92   93 2    
   184   92   94 am   BACKBONE|DICT|INTERRES
   185   94   95 1    
   186   94  215 1    
   187   95   96 1    
   188   95   97 1    
   189   95  216 1    
   190   96  217 1    
   191   96  218 1    
   192   96  219 1    
   193   97   98 2    
   194   97   99 am   BACKBONE|DICT|INTERRES
   195   99  100 1    
   196   99  220 1    
   197  100  101 1    
   198  100  102 1    
   199  100  221 1    
   200  101  222 1    
   201  101  223 1    
   202  101  224 1    
   203  102  103 2    
   204  102  104 am   BACKBONE|DICT|INTERRES
   205  104  105 1    
   206  104  225 1    
   207  105  106 1    
   208  105  107 1    
   209  105  226 1    
   210  106  227 1    
   211  106  228 1    
   212  106  229 1    
   213  107  108 2    
   214  107  109 am   BACKBONE|DICT|INTERRES
   215  109  110 1    
   216  109  230 1    
   217  110  111 1    
   218  110  112 1    
   219  110  231 1    
   220  111  232 1    
   221  111  233 1    
   222  111  234 1    
   223  112  113 2    
   224  112  114 am   BACKBONE|DICT|INTERRES
   225  114  115 1    
   226  114  235 1    
   227  115  116 1    
   228  115  117 1    
   229  115  236 1    
   230  116  237 1    
   231  116  238 1    
   232  116  239 1    
   233  117  118 2    
   234  117  119 am   BACKBONE|DICT|INTERRES
   235  119  120 1    
   236  119  240 1    
   237  120  121 1    
   238  120  124 1    
   239  120  241 1    
   240  121  122 am   BACKBONE|DICT|INTERRES
   241  121  123 2    
   242  122  242 1    
   243  122  243 1    
   244  124  125 1    
   245  124  244 1    
   246  124  245 1    
   247  125  126 1    
   248  126  246 1    
   249  126  247 1    
@<TRIPOS>SUBSTRUCTURE
     1 UNK         1 GROUP             0       ****    0 ROOT    
