@<TRIPOS>MOLECULE
3R540
247   249    1
SMALL
USER_CHARGES


@<TRIPOS>ATOM
      1 CA         -2.7982  -16.5269  -41.3994 C.3       0 UNK        -0.1800 
      2 C          -3.2710  -16.3357  -42.8331 C.2       0 UNK         0.5000 
      3 O          -4.4440  -16.5733  -43.1204 O.2       0 UNK        -0.5000 
      4 N          -2.3778  -15.9000  -43.7272 N.am      1 UNK        -0.5000 
      5 CA         -2.6868  -15.5628  -45.1163 C.3       1 UNK         0.1400 
      6 C6         -2.4515  -16.7684  -46.0571 C.3       23 UNK        -0.0398 
      7 S7         -3.2364  -16.5814  -47.6952 S.3       23 UNK        -0.2404 
      8 C8         -1.8208  -16.0530  -48.7190 C.3       23 UNK        -0.0205 
      9 C9         -1.4704  -17.0178  -49.8472 C.ar      23 UNK        -0.0193 
     10 C10        -1.1612  -16.5026  -51.1109 C.ar      23 UNK        -0.1150 
     11 C11        -0.8077  -17.3512  -52.1624 C.ar      23 UNK        -0.0193 
     12 C12        -0.7734  -18.7297  -51.9443 C.ar      23 UNK        -0.1150 
     13 C13        -1.0847  -19.2633  -50.6930 C.ar      23 UNK        -0.0193 
     14 C14        -1.4209  -18.4031  -49.6420 C.ar      23 UNK        -0.1150 
     15 C15        -1.1019  -20.7717  -50.5092 C.3       23 UNK        -0.0205 
     16 S16         0.5601  -21.4670  -50.2155 S.3       23 UNK        -0.2404 
     17 C17         0.7837  -21.1976  -48.4226 C.3       23 UNK        -0.0398 
     18 CA          0.3783  -22.4313  -47.5729 C.3       11 UNK         0.1400 
     19 N           0.8649  -22.3657  -46.1936 N.am      11 UNK        -0.5000 
     20 C           0.8486  -23.4003  -45.3371 C.2       10 UNK         0.5000 
     21 O           0.5275  -24.5458  -45.6541 O.2       10 UNK        -0.5000 
     22 CA          1.2054  -23.0986  -43.8687 C.3       10 UNK         0.1400 
     23 CB          2.7196  -23.2214  -43.6439 C.3       10 UNK        -0.1800 
     24 N           0.7631  -21.7727  -43.4368 N.am      10 UNK        -0.5000 
     25 C          -0.5161  -21.3775  -43.3492 C.2       9 UNK         0.5000 
     26 O          -1.4765  -22.1150  -43.5619 O.2       9 UNK        -0.5000 
     27 CA         -0.7557  -19.8887  -43.0329 C.3       9 UNK         0.1400 
     28 CB         -0.8416  -19.6779  -41.5154 C.3       9 UNK        -0.1800 
     29 N           0.2868  -19.0249  -43.5949 N.am      9 UNK        -0.5000 
     30 C           0.5501  -18.9111  -44.9053 C.2       8 UNK         0.5000 
     31 O          -0.1241  -19.4667  -45.7736 O.2       8 UNK        -0.5000 
     32 CA          1.7875  -18.0957  -45.3240 C.3       8 UNK         0.1400 
     33 CB          1.3881  -16.8407  -46.1062 C.3       8 UNK        -0.1800 
     34 N           2.6238  -17.7133  -44.1852 N.am      8 UNK        -0.5000 
     35 C           3.6158  -18.4682  -43.6911 C.2       7 UNK         0.5000 
     36 O           3.9419  -19.5574  -44.1631 O.2       7 UNK        -0.5000 
     37 CA          4.3416  -17.9382  -42.4400 C.3       7 UNK         0.1400 
     38 CB          5.5919  -17.1365  -42.8276 C.3       7 UNK        -0.1800 
     39 N           3.4709  -17.1184  -41.5937 N.am      7 UNK        -0.5000 
     40 C           2.5034  -17.6316  -40.8195 C.2       6 UNK         0.5000 
     41 O           2.2904  -18.8393  -40.7219 O.2       6 UNK        -0.5000 
     42 CA          1.6015  -16.6505  -40.0456 C.3       6 UNK         0.1400 
     43 CB          2.0956  -16.4954  -38.5998 C.3       6 UNK        -0.1800 
     44 N           1.4923  -15.3248  -40.6552 N.am      6 UNK        -0.5000 
     45 C           0.9674  -15.0614  -41.8587 C.2       5 UNK         0.5000 
     46 O           0.5227  -15.9297  -42.6135 O.2       5 UNK        -0.5000 
     47 CA          0.9546  -13.5879  -42.3158 C.3       5 UNK         0.1400 
     48 CB          1.4716  -12.5831  -41.2610 C.3       5 UNK        -0.1800 
     49 N           1.6721  -13.4174  -43.5818 N.am      5 UNK        -0.5000 
     50 C           2.9511  -13.7349  -43.8284 C.2       4 UNK         0.5000 
     51 O           3.7057  -14.2066  -42.9754 O.2       4 UNK        -0.5000 
     52 CA          3.4730  -13.5025  -45.2588 C.3       4 UNK         0.1400 
     53 CB          4.5758  -14.5121  -45.6462 C.3       4 UNK        -0.1800 
     54 N           2.3983  -13.4988  -46.2596 N.am      4 UNK        -0.5000 
     55 C           2.5103  -12.9375  -47.4724 C.2       3 UNK         0.5000 
     56 O           3.5083  -12.3211  -47.8490 O.2       3 UNK        -0.5000 
     57 CA          1.3212  -13.0871  -48.4409 C.3       3 UNK         0.1400 
     58 CB          1.4538  -14.3780  -49.2634 C.3       3 UNK        -0.1800 
     59 N           0.0106  -13.0547  -47.7894 N.am      3 UNK        -0.5000 
     60 C          -0.5199  -11.9712  -47.2074 C.2       2 UNK         0.5000 
     61 O           0.0627  -10.8891  -47.1287 O.2       2 UNK        -0.5000 
     62 CA         -1.9456  -12.0943  -46.6284 C.3       2 UNK         0.1400 
     63 CB         -2.9554  -11.4115  -47.5644 C.3       2 UNK        -0.1800 
     64 N          -2.4252  -13.4530  -46.3435 N.am      2 UNK        -0.5000 
     65 C          -1.8626  -14.3172  -45.4902 C.2       1 UNK         0.5000 
     66 O          -0.7474  -14.1492  -44.9965 O.2       1 UNK        -0.5000 
     67 C          -1.1444  -22.6369  -47.5748 C.2       11 UNK         0.5000 
     68 O          -1.6246  -23.5818  -48.1966 O.2       11 UNK        -0.5000 
     69 N          -1.8712  -21.7622  -46.8638 N.am      12 UNK        -0.5000 
     70 CA         -3.3328  -21.7808  -46.7872 C.3       12 UNK         0.1400 
     71 CB         -3.8263  -20.5644  -45.9951 C.3       12 UNK        -0.1800 
     72 C          -3.9050  -23.0893  -46.2138 C.2       12 UNK         0.5000 
     73 O          -4.9174  -23.5703  -46.7201 O.2       12 UNK        -0.5000 
     74 N          -3.2295  -23.6670  -45.2125 N.am      13 UNK        -0.5000 
     75 CA         -3.5607  -24.9678  -44.6308 C.3       13 UNK         0.1400 
     76 CB         -2.6787  -25.2115  -43.3969 C.3       13 UNK        -0.1800 
     77 C          -3.4238  -26.1318  -45.6315 C.2       13 UNK         0.5000 
     78 O          -4.2703  -27.0261  -45.6381 O.2       13 UNK        -0.5000 
     79 N          -2.3742  -26.0953  -46.4633 N.am      14 UNK        -0.5000 
     80 CA         -2.1027  -27.0992  -47.4923 C.3       14 UNK         0.1400 
     81 CB         -0.6188  -27.0312  -47.8857 C.3       14 UNK        -0.1800 
     82 C          -3.0021  -26.9290  -48.7299 C.2       14 UNK         0.5000 
     83 O          -3.5047  -27.9195  -49.2614 O.2       14 UNK        -0.5000 
     84 N          -3.1860  -25.6765  -49.1646 N.am      15 UNK        -0.5000 
     85 CA         -3.9363  -25.2971  -50.3622 C.3       15 UNK         0.1400 
     86 CB         -3.4292  -23.9259  -50.8375 C.3       15 UNK        -0.1800 
     87 C          -5.4636  -25.2618  -50.1604 C.2       15 UNK         0.5000 
     88 O          -6.1854  -25.0798  -51.1403 O.2       15 UNK        -0.5000 
     89 N          -5.9301  -25.3992  -48.9103 N.am      16 UNK        -0.5000 
     90 CA         -7.3249  -25.2775  -48.4678 C.3       16 UNK         0.1400 
     91 CB         -8.2004  -26.4031  -49.0574 C.3       16 UNK        -0.1800 
     92 C          -7.8814  -23.8616  -48.7296 C.2       16 UNK         0.5000 
     93 O          -8.9565  -23.7015  -49.3092 O.2       16 UNK        -0.5000 
     94 N          -7.0939  -22.8630  -48.3076 N.am      17 UNK        -0.5000 
     95 CA         -7.3087  -21.4149  -48.4007 C.3       17 UNK         0.1400 
     96 CB         -8.5858  -20.9958  -47.6440 C.3       17 UNK        -0.1800 
     97 C          -7.2572  -20.8322  -49.8299 C.2       17 UNK         0.5000 
     98 O          -7.5276  -19.6416  -49.9976 O.2       17 UNK        -0.5000 
     99 N          -6.8932  -21.6431  -50.8325 N.am      18 UNK        -0.5000 
    100 CA        -6.6827  -21.1968  -52.2084 C.3       18 UNK         0.1400 
    101 CB        -6.7448  -22.4077  -53.1510 C.3       18 UNK        -0.1800 
    102 C         -5.3323  -20.4742  -52.3541 C.2       18 UNK         0.5000 
    103 O         -4.3518  -20.8626  -51.7143 O.2       18 UNK        -0.5000 
    104 N         -5.2889  -19.4678  -53.2340 N.am      19 UNK        -0.5000 
    105 CA        -4.0828  -18.7193  -53.5857 C.3       19 UNK         0.1400 
    106 CB        -4.4899  -17.3154  -54.0677 C.3       19 UNK        -0.1800 
    107 C         -3.2561  -19.4936  -54.6323 C.2       19 UNK         0.5000 
    108 O         -3.1774  -19.0812  -55.7911 O.2       19 UNK        -0.5000 
    109 N         -2.6974  -20.6355  -54.2121 N.am      20 UNK        -0.5000 
    110 CA        -1.9170  -21.5619  -55.0337 C.3       20 UNK         0.1400 
    111 CB        -1.4554  -22.7403  -54.1621 C.3       20 UNK        -0.1800 
    112 C         -0.7146  -20.8851  -55.7211 C.2       20 UNK         0.5000 
    113 O          0.1366  -20.3153  -55.0377 O.2       20 UNK        -0.5000 
    114 N         -0.6820  -20.9589  -57.0579 N.am      21 UNK        -0.5000 
    115 CA         0.3047  -20.3929  -57.9867 C.3       21 UNK         0.1400 
    116 CB         1.7210  -20.9422  -57.7240 C.3       21 UNK        -0.1800 
    117 C          0.3013  -18.8526  -58.0635 C.2       21 UNK         0.5000 
    118 O          0.1675  -18.3102  -59.1614 O.2       21 UNK        -0.5000 
    119 N          0.4564  -18.1760  -56.9200 N.am      22 UNK        -0.5000 
    120 CA         0.5075  -16.7082  -56.8066 C.3       22 UNK         0.1400 
    121 C         -0.8625  -15.9728  -56.8985 C.2       22 UNK         0.5000 
    122 N         -2.0025  -16.6507  -56.8851 N.am      22 UNK        -0.7600 
    123 O         -0.8919  -14.7500  -57.0065 O.2       22 UNK        -0.5000 
    124 C124        1.3724  -16.2215  -55.6065 C.3       23 UNK        -0.0398 
    125 S125        1.2149  -17.1535  -54.0423 S.3       23 UNK        -0.2404 
    126 C126       -0.4930  -16.7869  -53.5397 C.3       23 UNK        -0.0205 
    127 H127       -3.3080  -15.8228  -40.7421 H         1 UNK         0.0600 
    128 H128       -3.0296  -17.5361  -41.0596 H         1 UNK         0.0600 
    129 H129       -1.7263  -16.3677  -41.2974 H         1 UNK         0.0600 
    130 H130       -1.4179  -15.7111  -43.4512 H         1 UNK         0.3000 
    131 H131       -3.7390  -15.2756  -45.1778 H         1 UNK         0.0600 
    132 H132       -1.3937  -16.9966  -46.1577 H         1 UNK         0.0800 
    133 H133       -2.8899  -17.6565  -45.6030 H         1 UNK         0.0800 
    134 H134       -0.9338  -15.9113  -48.1051 H         1 UNK         0.0800 
    135 H135       -2.0660  -15.0721  -49.1294 H         1 UNK         0.0800 
    136 H136       -1.1942  -15.4353  -51.2783 H         1 UNK         0.1150 
    137 H137       -0.5085  -19.3921  -52.7552 H         1 UNK         0.1150 
    138 H138       -1.6583  -18.8121  -48.6699 H         1 UNK         0.1150 
    139 H139       -1.7920  -21.0425  -49.7121 H         1 UNK         0.0800 
    140 H140       -1.5119  -21.2334  -51.4074 H         1 UNK         0.0800 
    141 H141        0.2483  -20.2976  -48.1231 H         1 UNK         0.0800 
    142 H142        1.8403  -20.9794  -48.2636 H         1 UNK         0.0800 
    143 H143        0.8313  -23.3143  -48.0301 H         1 UNK         0.0600 
    144 H144        1.0816  -21.4466  -45.8367 H         1 UNK         0.3000 
    145 H145        0.7028  -23.8412  -43.2455 H         1 UNK         0.0600 
    146 H146        2.9744  -23.0861  -42.5926 H         1 UNK         0.0600 
    147 H147        3.0799  -24.2072  -43.9410 H         1 UNK         0.0600 
    148 H148        3.2743  -22.4803  -44.2213 H         1 UNK         0.0600 
    149 H149        1.4866  -21.0966  -43.2389 H         1 UNK         0.3000 
    150 H150       -1.7070  -19.5903  -43.4776 H         1 UNK         0.0600 
    151 H151       -1.7429  -20.1404  -41.1115 H         1 UNK         0.0600 
    152 H152       -0.8712  -18.6206  -41.2603 H         1 UNK         0.0600 
    153 H153        0.0096  -20.1198  -40.9969 H         1 UNK         0.0600 
    154 H154        0.8661  -18.5196  -42.9403 H         1 UNK         0.3000 
    155 H155        2.3648  -18.7285  -46.0014 H         1 UNK         0.0600 
    156 H156        0.8317  -16.1425  -45.4830 H         1 UNK         0.0600 
    157 H157        0.7723  -17.1015  -46.9666 H         1 UNK         0.0600 
    158 H158        2.2657  -16.3284  -46.4956 H         1 UNK         0.0600 
    159 H159        2.3713  -16.8601  -43.7040 H         1 UNK         0.3000 
    160 H160        4.6710  -18.8039  -41.8611 H         1 UNK         0.0600 
    161 H161        6.1393  -16.8078  -41.9441 H         1 UNK         0.0600 
    162 H162        5.3400  -16.2537  -43.4123 H         1 UNK         0.0600 
    163 H163        6.2735  -17.7420  -43.4263 H         1 UNK         0.0600 
    164 H164        3.5785  -16.1132  -41.6582 H         1 UNK         0.3000 
    165 H165        0.5999  -17.0837  -40.0174 H         1 UNK         0.0600 
    166 H166        1.4151  -15.8773  -38.0137 H         1 UNK         0.0600 
    167 H167        2.1610  -17.4643  -38.1027 H         1 UNK         0.0600 
    168 H168        3.0852  -16.0384  -38.5599 H         1 UNK         0.0600 
    169 H169        1.8588  -14.5532  -40.1173 H         1 UNK         0.3000 
    170 H170       -0.0899  -13.3445  -42.5138 H         1 UNK         0.0600 
    171 H171        0.8836  -12.6348  -40.3437 H         1 UNK         0.0600 
    172 H172        2.5166  -12.7545  -41.0007 H         1 UNK         0.0600 
    173 H173        1.3912  -11.5608  -41.6307 H         1 UNK         0.0600 
    174 H174        1.0904  -13.1084  -44.3487 H         1 UNK         0.3000 
    175 H175        3.9209  -12.5069  -45.2432 H         1 UNK         0.0600 
    176 H176        4.2256  -15.5412  -45.5752 H         1 UNK         0.0600 
    177 H177        4.9373  -14.3513  -46.6614 H         1 UNK         0.0600 
    178 H178        5.4395  -14.4146  -44.9878 H         1 UNK         0.0600 
    179 H179        1.5399  -13.9736  -46.0137 H         1 UNK         0.3000 
    180 H180        1.3646  -12.2461  -49.1365 H         1 UNK         0.0600 
    181 H181        2.4158  -14.4166  -49.7762 H         1 UNK         0.0600 
    182 H182        0.6809  -14.4373  -50.0288 H         1 UNK         0.0600 
    183 H183        1.3824  -15.2684  -48.6397 H         1 UNK         0.0600 
    184 H184       -0.5328  -13.9019  -47.7970 H         1 UNK         0.3000 
    185 H185       -1.9435  -11.5515  -45.6811 H         1 UNK         0.0600 
    186 H186       -2.6614  -10.3829  -47.7789 H         1 UNK         0.0600 
    187 H187       -3.0354  -11.9354  -48.5177 H         1 UNK         0.0600 
    188 H188       -3.9484  -11.3744  -47.1161 H         1 UNK         0.0600 
    189 H189       -3.3289  -13.6846  -46.7308 H         1 UNK         0.3000 
    190 H190       -1.3929  -21.0143  -46.3731 H         1 UNK         0.3000 
    191 H191       -3.7108  -21.6888  -47.8078 H         1 UNK         0.0600 
    192 H192       -3.3969  -20.5322  -44.9938 H         1 UNK         0.0600 
    193 H193       -4.9116  -20.5764  -45.8877 H         1 UNK         0.0600 
    194 H194       -3.5633  -19.6417  -46.5101 H         1 UNK         0.0600 
    195 H195       -2.4471  -23.1672  -44.7977 H         1 UNK         0.3000 
    196 H196       -4.6020  -24.9319  -44.3041 H         1 UNK         0.0600 
    197 H197       -2.9057  -26.1736  -42.9360 H         1 UNK         0.0600 
    198 H198       -2.8390  -24.4429  -42.6406 H         1 UNK         0.0600 
    199 H199       -1.6187  -25.2105  -43.6545 H         1 UNK         0.0600 
    200 H200       -1.7313  -25.3158  -46.4088 H         1 UNK         0.3000 
    201 H201       -2.2934  -28.0895  -47.0731 H         1 UNK         0.0600 
    202 H202       -0.3524  -26.0553  -48.2937 H         1 UNK         0.0600 
    203 H203        0.0247  -27.2178  -47.0257 H         1 UNK         0.0600 
    204 H204       -0.3795  -27.7806  -48.6411 H         1 UNK         0.0600 
    205 H205       -2.6909  -24.9212  -48.6916 H         1 UNK         0.3000 
    206 H206       -3.7289  -26.0258  -51.1485 H         1 UNK         0.0600 
    207 H207       -3.6474  -23.1425  -50.1104 H         1 UNK         0.0600 
    208 H208       -2.3517  -23.9358  -51.0038 H         1 UNK         0.0600 
    209 H209       -3.8974  -23.6380  -51.7785 H         1 UNK         0.0600 
    210 H210       -5.2456  -25.4860  -48.1710 H         1 UNK         0.3000 
    211 H211       -7.3129  -25.4061  -47.3844 H         1 UNK         0.0600 
    212 H212       -8.3095  -26.3142  -50.1385 H         1 UNK         0.0600 
    213 H213       -9.2022  -26.3805  -48.6271 H         1 UNK         0.0600 
    214 H214       -7.7768  -27.3841  -48.8426 H         1 UNK         0.0600 
    215 H215       -6.2409  -23.1364  -47.8203 H         1 UNK         0.3000 
    216 H216       -6.4636  -20.9660  -47.8773 H         1 UNK         0.0600 
    217 H217       -9.4883  -21.3463  -48.1453 H         1 UNK         0.0600 
    218 H218       -8.6580  -19.9102  -47.5677 H         1 UNK         0.0600 
    219 H219       -8.5899  -21.3906  -46.6280 H         1 UNK         0.0600 
    220 H220       -6.6716  -22.6069  -50.6276 H         1 UNK         0.3000 
    221 H221       -7.4871  -20.5099  -52.4807 H         1 UNK         0.0600 
    222 H222       -5.9273  -23.1049  -52.9677 H         1 UNK         0.0600 
    223 H223       -7.6817  -22.9530  -53.0343 H         1 UNK         0.0600 
    224 H224       -6.6771  -22.0944  -54.1934 H         1 UNK         0.0600 
    225 H225       -6.1238  -19.2322  -53.7509 H         1 UNK         0.3000 
    226 H226       -3.4670  -18.5938  -52.6937 H         1 UNK         0.0600 
    227 H227       -5.0334  -16.7765  -53.2915 H         1 UNK         0.0600 
    228 H228       -3.6125  -16.7188  -54.3192 H         1 UNK         0.0600 
    229 H229       -5.1245  -17.3582  -54.9537 H         1 UNK         0.0600 
    230 H230       -2.8629  -20.9064  -53.2503 H         1 UNK         0.3000 
    231 H231       -2.5881  -21.9530  -55.8008 H         1 UNK         0.0600 
    232 H232       -2.3028  -23.2517  -53.7057 H         1 UNK         0.0600 
    233 H233       -0.7878  -22.4143  -53.3637 H         1 UNK         0.0600 
    234 H234       -0.9148  -23.4764  -54.7582 H         1 UNK         0.0600 
    235 H235       -1.4584  -21.4192  -57.5124 H         1 UNK         0.3000 
    236 H236        0.0053  -20.7502  -58.9735 H         1 UNK         0.0600 
    237 H237        2.4166  -20.6003  -58.4912 H         1 UNK         0.0600 
    238 H238        2.1174  -20.6177  -56.7616 H         1 UNK         0.0600 
    239 H239        1.7300  -22.0320  -57.7399 H         1 UNK         0.0600 
    240 H240        0.5239  -18.7043  -56.0540 H         1 UNK         0.3000 
    241 H241        1.0349  -16.3563  -57.6957 H         1 UNK         0.0600 
    242 H242       -2.0349  -17.6537  -56.7498 H         1 UNK         0.3800 
    243 H243       -2.8683  -16.1434  -56.9683 H         1 UNK         0.3800 
    244 H244        1.2184  -15.1605  -55.4019 H         1 UNK         0.0800 
    245 H245        2.4219  -16.2985  -55.8932 H         1 UNK         0.0800 
    246 H246       -0.6569  -15.7086  -53.5675 H         1 UNK         0.0800 
    247 H247       -1.1791  -17.2315  -54.2593 H         1 UNK         0.0800 
@<TRIPOS>BOND
     1    1    2 1    
     2    1  127 1    
     3    1  128 1    
     4    1  129 1    
     5    2    3 2    
     6    2    4 am   BACKBONE|DICT|INTERRES
     7    4    5 1    
     8    4  130 1    
     9    5    6 1    
    10    5   65 1    
    11    5  131 1    
    12    6    7 1    
    13    6  132 1    
    14    6  133 1    
    15    7    8 1    
    16    8    9 1    
    17    8  134 1    
    18    8  135 1    
    19    9   10 ar   
    20    9   14 ar   
    21   10   11 ar   
    22   10  136 1    
    23   11   12 ar   
    24   11  126 1    
    25   12   13 ar   
    26   12  137 1    
    27   13   14 ar   
    28   13   15 1    
    29   14  138 1    
    30   15   16 1    
    31   15  139 1    
    32   15  140 1    
    33   16   17 1    
    34   17   18 1    
    35   17  141 1    
    36   17  142 1    
    37   18   19 1    
    38   18   67 1    
    39   18  143 1    
    40   19   20 am   BACKBONE|DICT|INTERRES
    41   19  144 1    
    42   20   21 2    
    43   20   22 1    
    44   22   23 1    
    45   22   24 1    
    46   22  145 1    
    47   23  146 1    
    48   23  147 1    
    49   23  148 1    
    50   24   25 am   BACKBONE|DICT|INTERRES
    51   24  149 1    
    52   25   26 2    
    53   25   27 1    
    54   27   28 1    
    55   27   29 1    
    56   27  150 1    
    57   28  151 1    
    58   28  152 1    
    59   28  153 1    
    60   29   30 am   BACKBONE|DICT|INTERRES
    61   29  154 1    
    62   30   31 2    
    63   30   32 1    
    64   32   33 1    
    65   32   34 1    
    66   32  155 1    
    67   33  156 1    
    68   33  157 1    
    69   33  158 1    
    70   34   35 am   BACKBONE|DICT|INTERRES
    71   34  159 1    
    72   35   36 2    
    73   35   37 1    
    74   37   38 1    
    75   37   39 1    
    76   37  160 1    
    77   38  161 1    
    78   38  162 1    
    79   38  163 1    
    80   39   40 am   BACKBONE|DICT|INTERRES
    81   39  164 1    
    82   40   41 2    
    83   40   42 1    
    84   42   43 1    
    85   42   44 1    
    86   42  165 1    
    87   43  166 1    
    88   43  167 1    
    89   43  168 1    
    90   44   45 am   BACKBONE|DICT|INTERRES
    91   44  169 1    
    92   45   46 2    
    93   45   47 1    
    94   47   48 1    
    95   47   49 1    
    96   47  170 1    
    97   48  171 1    
    98   48  172 1    
    99   48  173 1    
   100   49   50 am   BACKBONE|DICT|INTERRES
   101   49  174 1    
   102   50   51 2    
   103   50   52 1    
   104   52   53 1    
   105   52   54 1    
   106   52  175 1    
   107   53  176 1    
   108   53  177 1    
   109   53  178 1    
   110   54   55 am   BACKBONE|DICT|INTERRES
   111   54  179 1    
   112   55   56 2    
   113   55   57 1    
   114   57   58 1    
   115   57   59 1    
   116   57  180 1    
   117   58  181 1    
   118   58  182 1    
   119   58  183 1    
   120   59   60 am   BACKBONE|DICT|INTERRES
   121   59  184 1    
   122   60   61 2    
   123   60   62 1    
   124   62   63 1    
   125   62   64 1    
   126   62  185 1    
   127   63  186 1    
   128   63  187 1    
   129   63  188 1    
   130   64   65 am   BACKBONE|DICT|INTERRES
   131   64  189 1    
   132   65   66 2    
   133   67   68 2    
   134   67   69 am   BACKBONE|DICT|INTERRES
   135   69   70 1    
   136   69  190 1    
   137   70   71 1    
   138   70   72 1    
   139   70  191 1    
   140   71  192 1    
   141   71  193 1    
   142   71  194 1    
   143   72   73 2    
   144   72   74 am   BACKBONE|DICT|INTERRES
   145   74   75 1    
   146   74  195 1    
   147   75   76 1    
   148   75   77 1    
   149   75  196 1    
   150   76  197 1    
   151   76  198 1    
   152   76  199 1    
   153   77   78 2    
   154   77   79 am   BACKBONE|DICT|INTERRES
   155   79   80 1    
   156   79  200 1    
   157   80   81 1    
   158   80   82 1    
   159   80  201 1    
   160   81  202 1    
   161   81  203 1    
   162   81  204 1    
   163   82   83 2    
   164   82   84 am   BACKBONE|DICT|INTERRES
   165   84   85 1    
   166   84  205 1    
   167   85   86 1    
   168   85   87 1    
   169   85  206 1    
   170   86  207 1    
   171   86  208 1    
   172   86  209 1    
   173   87   88 2    
   174   87   89 am   BACKBONE|DICT|INTERRES
   175   89   90 1    
   176   89  210 1    
   177   90   91 1    
   178   90   92 1    
   179   90  211 1    
   180   91  212 1    
   181   91  213 1    
   182   91  214 1    
   183   92   93 2    
   184   92   94 am   BACKBONE|DICT|INTERRES
   185   94   95 1    
   186   94  215 1    
   187   95   96 1    
   188   95   97 1    
   189   95  216 1    
   190   96  217 1    
   191   96  218 1    
   192   96  219 1    
   193   97   98 2    
   194   97   99 am   BACKBONE|DICT|INTERRES
   195   99  100 1    
   196   99  220 1    
   197  100  101 1    
   198  100  102 1    
   199  100  221 1    
   200  101  222 1    
   201  101  223 1    
   202  101  224 1    
   203  102  103 2    
   204  102  104 am   BACKBONE|DICT|INTERRES
   205  104  105 1    
   206  104  225 1    
   207  105  106 1    
   208  105  107 1    
   209  105  226 1    
   210  106  227 1    
   211  106  228 1    
   212  106  229 1    
   213  107  108 2    
   214  107  109 am   BACKBONE|DICT|INTERRES
   215  109  110 1    
   216  109  230 1    
   217  110  111 1    
   218  110  112 1    
   219  110  231 1    
   220  111  232 1    
   221  111  233 1    
   222  111  234 1    
   223  112  113 2    
   224  112  114 am   BACKBONE|DICT|INTERRES
   225  114  115 1    
   226  114  235 1    
   227  115  116 1    
   228  115  117 1    
   229  115  236 1    
   230  116  237 1    
   231  116  238 1    
   232  116  239 1    
   233  117  118 2    
   234  117  119 am   BACKBONE|DICT|INTERRES
   235  119  120 1    
   236  119  240 1    
   237  120  121 1    
   238  120  124 1    
   239  120  241 1    
   240  121  122 am   BACKBONE|DICT|INTERRES
   241  121  123 2    
   242  122  242 1    
   243  122  243 1    
   244  124  125 1    
   245  124  244 1    
   246  124  245 1    
   247  125  126 1    
   248  126  246 1    
   249  126  247 1    
@<TRIPOS>SUBSTRUCTURE
     1 UNK         1 GROUP             0       ****    0 ROOT    
