@<TRIPOS>MOLECULE
3R540
247   249    1
SMALL
USER_CHARGES


@<TRIPOS>ATOM
      1 CA         -0.5865  -10.0503  -50.4719 C.3       0 UNK        -0.1800 
      2 C          -0.1496  -11.4139  -49.9541 C.2       0 UNK         0.5000 
      3 O          -0.3614  -11.7146  -48.7792 O.2       0 UNK        -0.5000 
      4 N           0.4484  -12.2331  -50.8306 N.am      1 UNK        -0.5000 
      5 CA          1.0004  -13.5658  -50.5508 C.3       1 UNK         0.1400 
      6 C6         -0.0627  -14.5485  -49.9802 C.3       23 UNK        -0.0398 
      7 S7          0.2764  -16.2952  -50.3932 S.3       23 UNK        -0.2404 
      8 C8         -0.0296  -17.0992  -48.7838 C.3       23 UNK        -0.0205 
      9 C9         -1.4834  -17.0102  -48.3286 C.ar      23 UNK        -0.0193 
     10 C10        -2.5330  -17.2294  -49.2287 C.ar      23 UNK        -0.1150 
     11 C11        -3.8632  -17.1684  -48.8068 C.ar      23 UNK        -0.0193 
     12 C12        -4.1413  -16.9201  -47.4612 C.ar      23 UNK        -0.1150 
     13 C13        -3.1053  -16.7175  -46.5443 C.ar      23 UNK        -0.0193 
     14 C14        -1.7789  -16.7370  -46.9885 C.ar      23 UNK        -0.1150 
     15 C15        -3.4299  -16.5033  -45.0710 C.3       23 UNK        -0.0205 
     16 S16        -2.9774  -17.9295  -44.0213 S.3       23 UNK        -0.2404 
     17 C17        -3.5533  -19.3656  -44.9943 C.3       23 UNK        -0.0398 
     18 CA         -2.3623  -20.0297  -45.7368 C.3       11 UNK         0.1400 
     19 N          -1.4118  -20.6366  -44.8003 N.am      11 UNK        -0.5000 
     20 C          -1.4764  -21.8426  -44.2171 C.2       10 UNK         0.5000 
     21 O          -2.2948  -22.7182  -44.4962 O.2       10 UNK        -0.5000 
     22 CA         -0.4793  -22.0729  -43.0735 C.3       10 UNK         0.1400 
     23 CB          0.9457  -22.2785  -43.6100 C.3       10 UNK        -0.1800 
     24 N          -0.4974  -20.9385  -42.1535 N.am      10 UNK        -0.5000 
     25 C          -1.4799  -20.6779  -41.2794 C.2       9 UNK         0.5000 
     26 O          -2.4412  -21.4254  -41.0897 O.2       9 UNK        -0.5000 
     27 CA         -1.3546  -19.3561  -40.4931 C.3       9 UNK         0.1400 
     28 CB         -2.2052  -19.3260  -39.2067 C.3       9 UNK        -0.1800 
     29 N           0.0392  -19.0018  -40.2127 N.am      9 UNK        -0.5000 
     30 C           0.9332  -19.6920  -39.4880 C.2       8 UNK         0.5000 
     31 O           0.6703  -20.7214  -38.8652 O.2       8 UNK        -0.5000 
     32 CA          2.3807  -19.1613  -39.4814 C.3       8 UNK         0.1400 
     33 CB          3.2682  -20.0516  -40.3657 C.3       8 UNK        -0.1800 
     34 N           2.4910  -17.7749  -39.9417 N.am      8 UNK        -0.5000 
     35 C           2.0954  -16.7063  -39.2360 C.2       7 UNK         0.5000 
     36 O           1.6642  -16.7690  -38.0841 O.2       7 UNK        -0.5000 
     37 CA          2.1591  -15.3440  -39.9488 C.3       7 UNK         0.1400 
     38 CB          3.5741  -14.7537  -39.8552 C.3       7 UNK        -0.1800 
     39 N           1.7425  -15.4084  -41.3527 N.am      7 UNK        -0.5000 
     40 C           0.5032  -15.7009  -41.7745 C.2       6 UNK         0.5000 
     41 O          -0.4325  -15.9551  -41.0170 O.2       6 UNK        -0.5000 
     42 CA          0.2768  -15.7593  -43.2964 C.3       6 UNK         0.1400 
     43 CB          0.1523  -14.3533  -43.9014 C.3       6 UNK        -0.1800 
     44 N           1.3335  -16.4958  -43.9835 N.am      6 UNK        -0.5000 
     45 C           1.5280  -17.8174  -43.8792 C.2       5 UNK         0.5000 
     46 O           0.7886  -18.5829  -43.2583 O.2       5 UNK        -0.5000 
     47 CA          2.7790  -18.3772  -44.5728 C.3       5 UNK         0.1400 
     48 CB          2.4736  -18.6884  -46.0438 C.3       5 UNK        -0.1800 
     49 N           3.9231  -17.4675  -44.4840 N.am      5 UNK        -0.5000 
     50 C           4.5685  -17.1773  -43.3446 C.2       4 UNK         0.5000 
     51 O           4.2724  -17.6549  -42.2504 O.2       4 UNK        -0.5000 
     52 CA          5.7060  -16.1446  -43.4350 C.3       4 UNK         0.1400 
     53 CB          6.9965  -16.8009  -43.9479 C.3       4 UNK        -0.1800 
     54 N           5.3665  -15.0054  -44.2878 N.am      4 UNK        -0.5000 
     55 C           4.3898  -14.1249  -44.0264 C.2       3 UNK         0.5000 
     56 O           3.6837  -14.1656  -43.0212 O.2       3 UNK        -0.5000 
     57 CA          4.1239  -13.0458  -45.0897 C.3       3 UNK         0.1400 
     58 CB          5.0029  -11.8118  -44.8392 C.3       3 UNK        -0.1800 
     59 N           4.3326  -13.5231  -46.4579 N.am      3 UNK        -0.5000 
     60 C           3.6259  -14.5020  -47.0364 C.2       2 UNK         0.5000 
     61 O           2.7338  -15.1380  -46.4684 O.2       2 UNK        -0.5000 
     62 CA          3.9948  -14.8416  -48.4890 C.3       2 UNK         0.1400 
     63 CB          4.5091  -16.2854  -48.6016 C.3       2 UNK        -0.1800 
     64 N           2.8366  -14.6748  -49.3594 N.am      2 UNK        -0.5000 
     65 C           2.2948  -13.5001  -49.7016 C.2       1 UNK         0.5000 
     66 O           2.8023  -12.4142  -49.4059 O.2       1 UNK        -0.5000 
     67 C          -2.7786  -20.9764  -46.8805 C.2       11 UNK         0.5000 
     68 O          -1.9955  -21.1687  -47.8113 O.2       11 UNK        -0.5000 
     69 N          -3.9650  -21.5918  -46.7764 N.am      12 UNK        -0.5000 
     70 CA         -4.4965  -22.5596  -47.7368 C.3       12 UNK         0.1400 
     71 CB         -5.8972  -22.9980  -47.2864 C.3       12 UNK        -0.1800 
     72 C          -3.5974  -23.7927  -47.9573 C.2       12 UNK         0.5000 
     73 O          -3.5987  -24.3337  -49.0615 O.2       12 UNK        -0.5000 
     74 N          -2.8420  -24.1977  -46.9260 N.am      13 UNK        -0.5000 
     75 CA         -1.8915  -25.3093  -46.9820 C.3       13 UNK         0.1400 
     76 CB         -1.7009  -25.8802  -45.5679 C.3       13 UNK        -0.1800 
     77 C          -0.5315  -24.9101  -47.5866 C.2       13 UNK         0.5000 
     78 O           0.1920  -25.7893  -48.0561 O.2       13 UNK        -0.5000 
     79 N          -0.1969  -23.6111  -47.5622 N.am      14 UNK        -0.5000 
     80 CA          0.9751  -23.0574  -48.2455 C.3       14 UNK         0.1400 
     81 CB          1.4037  -21.7501  -47.5642 C.3       14 UNK        -0.1800 
     82 C           0.6764  -22.8304  -49.7376 C.2       14 UNK         0.5000 
     83 O           1.5322  -23.0903  -50.5846 O.2       14 UNK        -0.5000 
     84 N          -0.5526  -22.3839  -50.0236 N.am      15 UNK        -0.5000 
     85 CA         -1.1639  -22.3409  -51.3477 C.3       15 UNK         0.1400 
     86 CB         -2.4284  -21.4731  -51.2449 C.3       15 UNK        -0.1800 
     87 C          -1.4898  -23.7550  -51.8800 C.2       15 UNK         0.5000 
     88 O          -1.3395  -24.7517  -51.1689 O.2       15 UNK        -0.5000 
     89 N          -1.9544  -23.8269  -53.1319 N.am      16 UNK        -0.5000 
     90 CA         -2.3282  -25.0590  -53.8318 C.3       16 UNK         0.1400 
     91 CB         -2.2637  -24.7880  -55.3466 C.3       16 UNK        -0.1800 
     92 C          -3.7078  -25.5920  -53.3825 C.2       16 UNK         0.5000 
     93 O          -4.6099  -25.7274  -54.2103 O.2       16 UNK        -0.5000 
     94 N          -3.8496  -25.8582  -52.0737 N.am      17 UNK        -0.5000 
     95 CA         -5.0942  -26.1835  -51.3622 C.3       17 UNK         0.1400 
     96 CB         -5.6609  -27.5452  -51.8165 C.3       17 UNK        -0.1800 
     97 C          -6.1035  -25.0233  -51.4858 C.2       17 UNK         0.5000 
     98 O          -7.2406  -25.2231  -51.9171 O.2       17 UNK        -0.5000 
     99 N          -5.6150  -23.8163  -51.1615 N.am      18 UNK        -0.5000 
    100 CA        -6.1699  -22.5075  -51.5120 C.3       18 UNK         0.1400 
    101 CB        -7.5139  -22.2413  -50.7983 C.3       18 UNK        -0.1800 
    102 C         -6.2135  -22.3544  -53.0451 C.2       18 UNK         0.5000 
    103 O         -5.1549  -22.1950  -53.6553 O.2       18 UNK        -0.5000 
    104 N         -7.4156  -22.4394  -53.6321 N.am      19 UNK        -0.5000 
    105 CA        -7.6943  -22.4428  -55.0708 C.3       19 UNK         0.1400 
    106 CB        -7.1929  -23.7627  -55.7003 C.3       19 UNK        -0.1800 
    107 C         -7.1709  -21.1744  -55.7794 C.2       19 UNK         0.5000 
    108 O         -7.2366  -20.0869  -55.2019 O.2       19 UNK        -0.5000 
    109 N         -6.6619  -21.3270  -57.0102 N.am      20 UNK        -0.5000 
    110 CA        -6.1330  -20.2504  -57.8520 C.3       20 UNK         0.1400 
    111 CB        -5.7803  -20.8207  -59.2339 C.3       20 UNK        -0.1800 
    112 C         -4.9195  -19.5207  -57.2449 C.2       20 UNK         0.5000 
    113 O         -4.7454  -18.3280  -57.4965 O.2       20 UNK        -0.5000 
    114 N         -4.1332  -20.2241  -56.4177 N.am      21 UNK        -0.5000 
    115 CA        -3.0011  -19.6678  -55.6717 C.3       21 UNK         0.1400 
    116 CB        -2.1689  -20.8194  -55.0897 C.3       21 UNK        -0.1800 
    117 C         -3.4194  -18.6620  -54.5770 C.2       21 UNK         0.5000 
    118 O         -2.6072  -17.8171  -54.1999 O.2       21 UNK        -0.5000 
    119 N         -4.6780  -18.7407  -54.1268 N.am      22 UNK        -0.5000 
    120 CA        -5.3422  -17.7450  -53.2724 C.3       22 UNK         0.1400 
    121 C         -6.2475  -16.7601  -54.0742 C.2       22 UNK         0.5000 
    122 N         -6.2241  -16.7424  -55.4022 N.am      22 UNK        -0.7600 
    123 O         -6.9696  -15.9638  -53.4805 O.2       22 UNK        -0.5000 
    124 C124       -6.0990  -18.4236  -52.0963 C.3       23 UNK        -0.0398 
    125 S125       -4.9639  -18.8720  -50.7399 S.3       23 UNK        -0.2404 
    126 C126       -4.9980  -17.3029  -49.8124 C.3       23 UNK        -0.0205 
    127 H127       -0.3490   -9.9212  -51.5282 H         1 UNK         0.0600 
    128 H128       -0.0868   -9.2595  -49.9123 H         1 UNK         0.0600 
    129 H129       -1.6627   -9.9290  -50.3484 H         1 UNK         0.0600 
    130 H130        0.6075  -11.8989  -51.7708 H         1 UNK         0.3000 
    131 H131        1.3095  -13.9386  -51.5287 H         1 UNK         0.0600 
    132 H132       -1.0442  -14.3210  -50.3986 H         1 UNK         0.0800 
    133 H133       -0.1688  -14.4239  -48.9007 H         1 UNK         0.0800 
    134 H134        0.2448  -18.1524  -48.8580 H         1 UNK         0.0800 
    135 H135        0.6339  -16.6561  -48.0391 H         1 UNK         0.0800 
    136 H136       -2.3189  -17.4366  -50.2679 H         1 UNK         0.1150 
    137 H137       -5.1683  -16.8827  -47.1256 H         1 UNK         0.1150 
    138 H138       -0.9778  -16.5810  -46.2791 H         1 UNK         0.1150 
    139 H139       -2.9048  -15.6176  -44.7109 H         1 UNK         0.0800 
    140 H140       -4.4936  -16.2988  -44.9398 H         1 UNK         0.0800 
    141 H141       -4.3348  -19.0442  -45.6835 H         1 UNK         0.0800 
    142 H142       -4.0241  -20.0735  -44.3104 H         1 UNK         0.0800 
    143 H143       -1.7948  -19.2471  -46.2353 H         1 UNK         0.0600 
    144 H144       -0.7047  -20.0020  -44.4541 H         1 UNK         0.3000 
    145 H145       -0.7781  -22.9738  -42.5334 H         1 UNK         0.0600 
    146 H146        1.6388  -22.5088  -42.8006 H         1 UNK         0.0600 
    147 H147        0.9808  -23.1098  -44.3155 H         1 UNK         0.0600 
    148 H148        1.3187  -21.3919  -44.1236 H         1 UNK         0.0600 
    149 H149        0.2049  -20.2200  -42.2965 H         1 UNK         0.3000 
    150 H150       -1.7337  -18.5764  -41.1553 H         1 UNK         0.0600 
    151 H151       -3.2648  -19.4413  -39.4373 H         1 UNK         0.0600 
    152 H152       -2.0898  -18.3775  -38.6820 H         1 UNK         0.0600 
    153 H153       -1.9318  -20.1266  -38.5190 H         1 UNK         0.0600 
    154 H154        0.3676  -18.1690  -40.6832 H         1 UNK         0.3000 
    155 H155        2.7500  -19.2180  -38.4554 H         1 UNK         0.0600 
    156 H156        2.9460  -20.0294  -41.4078 H         1 UNK         0.0600 
    157 H157        3.2377  -21.0904  -40.0347 H         1 UNK         0.0600 
    158 H158        4.3094  -19.7306  -40.3297 H         1 UNK         0.0600 
    159 H159        2.9065  -17.6351  -40.8587 H         1 UNK         0.3000 
    160 H160        1.4758  -14.6681  -39.4304 H         1 UNK         0.0600 
    161 H161        4.2992  -15.3608  -40.3983 H         1 UNK         0.0600 
    162 H162        3.9060  -14.6928  -38.8180 H         1 UNK         0.0600 
    163 H163        3.6076  -13.7447  -40.2662 H         1 UNK         0.0600 
    164 H164        2.4488  -15.1564  -42.0402 H         1 UNK         0.3000 
    165 H165       -0.6637  -16.2822  -43.4704 H         1 UNK         0.0600 
    166 H166       -0.0575  -14.4022  -44.9703 H         1 UNK         0.0600 
    167 H167       -0.6627  -13.7996  -43.4340 H         1 UNK         0.0600 
    168 H168        1.0645  -13.7721  -43.7668 H         1 UNK         0.0600 
    169 H169        1.9724  -15.9564  -44.5553 H         1 UNK         0.3000 
    170 H170        3.0447  -19.3113  -44.0731 H         1 UNK         0.0600 
    171 H171        1.6030  -19.3385  -46.1264 H         1 UNK         0.0600 
    172 H172        2.2537  -17.7837  -46.6090 H         1 UNK         0.0600 
    173 H173        3.3103  -19.1941  -46.5257 H         1 UNK         0.0600 
    174 H174        4.1923  -16.9903  -45.3312 H         1 UNK         0.3000 
    175 H175        5.8926  -15.7671  -42.4274 H         1 UNK         0.0600 
    176 H176        6.8848  -17.1716  -44.9675 H         1 UNK         0.0600 
    177 H177        7.8284  -16.0964  -43.9358 H         1 UNK         0.0600 
    178 H178        7.2796  -17.6468  -43.3199 H         1 UNK         0.0600 
    179 H179        5.8973  -14.8954  -45.1389 H         1 UNK         0.3000 
    180 H180        3.0782  -12.7446  -44.9984 H         1 UNK         0.0600 
    181 H181        6.0635  -12.0428  -44.9460 H         1 UNK         0.0600 
    182 H182        4.8513  -11.4233  -43.8311 H         1 UNK         0.0600 
    183 H183        4.7617  -11.0079  -45.5350 H         1 UNK         0.0600 
    184 H184        5.0363  -13.0417  -46.9992 H         1 UNK         0.3000 
    185 H185        4.7866  -14.1705  -48.8288 H         1 UNK         0.0600 
    186 H186        3.7397  -17.0117  -48.3388 H         1 UNK         0.0600 
    187 H187        4.8401  -16.5055  -49.6166 H         1 UNK         0.0600 
    188 H188        5.3599  -16.4518  -47.9397 H         1 UNK         0.0600 
    189 H189        2.3516  -15.5200  -49.6290 H         1 UNK         0.3000 
    190 H190       -4.5259  -21.4322  -45.9532 H         1 UNK         0.3000 
    191 H191       -4.5947  -22.0465  -48.6947 H         1 UNK         0.0600 
    192 H192       -6.5787  -22.1488  -47.2318 H         1 UNK         0.0600 
    193 H193       -6.3271  -23.7148  -47.9876 H         1 UNK         0.0600 
    194 H194       -5.8729  -23.4744  -46.3055 H         1 UNK         0.0600 
    195 H195       -2.8721  -23.6746  -46.0542 H         1 UNK         0.3000 
    196 H196       -2.3114  -26.0984  -47.6097 H         1 UNK         0.0600 
    197 H197       -1.0618  -26.7638  -45.5881 H         1 UNK         0.0600 
    198 H198       -2.6536  -26.1783  -45.1300 H         1 UNK         0.0600 
    199 H199       -1.2348  -25.1565  -44.8988 H         1 UNK         0.0600 
    200 H200       -0.8710  -22.9449  -47.2097 H         1 UNK         0.3000 
    201 H201        1.8053  -23.7629  -48.1696 H         1 UNK         0.0600 
    202 H202        1.6612  -21.9184  -46.5194 H         1 UNK         0.0600 
    203 H203        0.6184  -20.9953  -47.6015 H         1 UNK         0.0600 
    204 H204        2.2841  -21.3290  -48.0511 H         1 UNK         0.0600 
    205 H205       -1.1620  -22.1459  -49.2475 H         1 UNK         0.3000 
    206 H206       -0.4643  -21.8689  -52.0403 H         1 UNK         0.0600 
    207 H207       -3.1443  -21.9015  -50.5458 H         1 UNK         0.0600 
    208 H208       -2.1880  -20.4685  -50.8950 H         1 UNK         0.0600 
    209 H209       -2.9333  -21.3642  -52.2030 H         1 UNK         0.0600 
    210 H210       -2.1090  -22.9713  -53.6430 H         1 UNK         0.3000 
    211 H211       -1.5927  -25.8327  -53.6018 H         1 UNK         0.0600 
    212 H212       -2.9788  -24.0213  -55.6486 H         1 UNK         0.0600 
    213 H213       -2.4885  -25.6907  -55.9161 H         1 UNK         0.0600 
    214 H214       -1.2696  -24.4564  -55.6469 H         1 UNK         0.0600 
    215 H215       -3.0438  -25.6700  -51.4822 H         1 UNK         0.3000 
    216 H216       -4.8421  -26.2742  -50.3053 H         1 UNK         0.0600 
    217 H217       -6.5194  -27.8290  -51.2070 H         1 UNK         0.0600 
    218 H218       -4.9160  -28.3345  -51.7161 H         1 UNK         0.0600 
    219 H219       -5.9925  -27.5270  -52.8548 H         1 UNK         0.0600 
    220 H220       -4.6776  -23.8051  -50.7767 H         1 UNK         0.3000 
    221 H221       -5.4599  -21.7639  -51.1525 H         1 UNK         0.0600 
    222 H222       -8.2810  -22.9721  -51.0535 H         1 UNK         0.0600 
    223 H223       -7.3890  -22.2628  -49.7168 H         1 UNK         0.0600 
    224 H224       -7.8995  -21.2533  -51.0529 H         1 UNK         0.0600 
    225 H225       -8.2191  -22.5667  -53.0341 H         1 UNK         0.3000 
    226 H226       -8.7801  -22.4185  -55.1706 H         1 UNK         0.0600 
    227 H227       -7.5486  -24.6239  -55.1340 H         1 UNK         0.0600 
    228 H228       -7.5556  -23.8838  -56.7215 H         1 UNK         0.0600 
    229 H229       -6.1034  -23.8160  -55.7207 H         1 UNK         0.0600 
    230 H230       -6.6395  -22.2559  -57.4053 H         1 UNK         0.3000 
    231 H231       -6.9265  -19.5110  -57.9792 H         1 UNK         0.0600 
    232 H232       -5.0102  -21.5903  -59.1672 H         1 UNK         0.0600 
    233 H233       -5.4061  -20.0383  -59.8958 H         1 UNK         0.0600 
    234 H234       -6.6544  -21.2598  -59.7151 H         1 UNK         0.0600 
    235 H235       -4.3724  -21.1869  -56.2281 H         1 UNK         0.3000 
    236 H236       -2.3695  -19.1229  -56.3766 H         1 UNK         0.0600 
    237 H237       -1.7169  -21.4159  -55.8824 H         1 UNK         0.0600 
    238 H238       -1.3599  -20.4464  -54.4599 H         1 UNK         0.0600 
    239 H239       -2.7849  -21.4816  -54.4862 H         1 UNK         0.0600 
    240 H240       -5.2888  -19.4518  -54.5114 H         1 UNK         0.3000 
    241 H241       -4.5836  -17.0911  -52.8394 H         1 UNK         0.0600 
    242 H242       -5.6188  -17.3563  -55.9329 H         1 UNK         0.3800 
    243 H243       -6.8130  -16.0871  -55.8909 H         1 UNK         0.3800 
    244 H244       -6.6197  -19.3178  -52.4408 H         1 UNK         0.0800 
    245 H245       -6.8736  -17.7786  -51.6784 H         1 UNK         0.0800 
    246 H246       -5.9666  -17.2113  -49.3186 H         1 UNK         0.0800 
    247 H247       -4.9285  -16.4656  -50.5079 H         1 UNK         0.0800 
@<TRIPOS>BOND
     1    1    2 1    
     2    1  127 1    
     3    1  128 1    
     4    1  129 1    
     5    2    3 2    
     6    2    4 am   BACKBONE|DICT|INTERRES
     7    4    5 1    
     8    4  130 1    
     9    5    6 1    
    10    5   65 1    
    11    5  131 1    
    12    6    7 1    
    13    6  132 1    
    14    6  133 1    
    15    7    8 1    
    16    8    9 1    
    17    8  134 1    
    18    8  135 1    
    19    9   10 ar   
    20    9   14 ar   
    21   10   11 ar   
    22   10  136 1    
    23   11   12 ar   
    24   11  126 1    
    25   12   13 ar   
    26   12  137 1    
    27   13   14 ar   
    28   13   15 1    
    29   14  138 1    
    30   15   16 1    
    31   15  139 1    
    32   15  140 1    
    33   16   17 1    
    34   17   18 1    
    35   17  141 1    
    36   17  142 1    
    37   18   19 1    
    38   18   67 1    
    39   18  143 1    
    40   19   20 am   BACKBONE|DICT|INTERRES
    41   19  144 1    
    42   20   21 2    
    43   20   22 1    
    44   22   23 1    
    45   22   24 1    
    46   22  145 1    
    47   23  146 1    
    48   23  147 1    
    49   23  148 1    
    50   24   25 am   BACKBONE|DICT|INTERRES
    51   24  149 1    
    52   25   26 2    
    53   25   27 1    
    54   27   28 1    
    55   27   29 1    
    56   27  150 1    
    57   28  151 1    
    58   28  152 1    
    59   28  153 1    
    60   29   30 am   BACKBONE|DICT|INTERRES
    61   29  154 1    
    62   30   31 2    
    63   30   32 1    
    64   32   33 1    
    65   32   34 1    
    66   32  155 1    
    67   33  156 1    
    68   33  157 1    
    69   33  158 1    
    70   34   35 am   BACKBONE|DICT|INTERRES
    71   34  159 1    
    72   35   36 2    
    73   35   37 1    
    74   37   38 1    
    75   37   39 1    
    76   37  160 1    
    77   38  161 1    
    78   38  162 1    
    79   38  163 1    
    80   39   40 am   BACKBONE|DICT|INTERRES
    81   39  164 1    
    82   40   41 2    
    83   40   42 1    
    84   42   43 1    
    85   42   44 1    
    86   42  165 1    
    87   43  166 1    
    88   43  167 1    
    89   43  168 1    
    90   44   45 am   BACKBONE|DICT|INTERRES
    91   44  169 1    
    92   45   46 2    
    93   45   47 1    
    94   47   48 1    
    95   47   49 1    
    96   47  170 1    
    97   48  171 1    
    98   48  172 1    
    99   48  173 1    
   100   49   50 am   BACKBONE|DICT|INTERRES
   101   49  174 1    
   102   50   51 2    
   103   50   52 1    
   104   52   53 1    
   105   52   54 1    
   106   52  175 1    
   107   53  176 1    
   108   53  177 1    
   109   53  178 1    
   110   54   55 am   BACKBONE|DICT|INTERRES
   111   54  179 1    
   112   55   56 2    
   113   55   57 1    
   114   57   58 1    
   115   57   59 1    
   116   57  180 1    
   117   58  181 1    
   118   58  182 1    
   119   58  183 1    
   120   59   60 am   BACKBONE|DICT|INTERRES
   121   59  184 1    
   122   60   61 2    
   123   60   62 1    
   124   62   63 1    
   125   62   64 1    
   126   62  185 1    
   127   63  186 1    
   128   63  187 1    
   129   63  188 1    
   130   64   65 am   BACKBONE|DICT|INTERRES
   131   64  189 1    
   132   65   66 2    
   133   67   68 2    
   134   67   69 am   BACKBONE|DICT|INTERRES
   135   69   70 1    
   136   69  190 1    
   137   70   71 1    
   138   70   72 1    
   139   70  191 1    
   140   71  192 1    
   141   71  193 1    
   142   71  194 1    
   143   72   73 2    
   144   72   74 am   BACKBONE|DICT|INTERRES
   145   74   75 1    
   146   74  195 1    
   147   75   76 1    
   148   75   77 1    
   149   75  196 1    
   150   76  197 1    
   151   76  198 1    
   152   76  199 1    
   153   77   78 2    
   154   77   79 am   BACKBONE|DICT|INTERRES
   155   79   80 1    
   156   79  200 1    
   157   80   81 1    
   158   80   82 1    
   159   80  201 1    
   160   81  202 1    
   161   81  203 1    
   162   81  204 1    
   163   82   83 2    
   164   82   84 am   BACKBONE|DICT|INTERRES
   165   84   85 1    
   166   84  205 1    
   167   85   86 1    
   168   85   87 1    
   169   85  206 1    
   170   86  207 1    
   171   86  208 1    
   172   86  209 1    
   173   87   88 2    
   174   87   89 am   BACKBONE|DICT|INTERRES
   175   89   90 1    
   176   89  210 1    
   177   90   91 1    
   178   90   92 1    
   179   90  211 1    
   180   91  212 1    
   181   91  213 1    
   182   91  214 1    
   183   92   93 2    
   184   92   94 am   BACKBONE|DICT|INTERRES
   185   94   95 1    
   186   94  215 1    
   187   95   96 1    
   188   95   97 1    
   189   95  216 1    
   190   96  217 1    
   191   96  218 1    
   192   96  219 1    
   193   97   98 2    
   194   97   99 am   BACKBONE|DICT|INTERRES
   195   99  100 1    
   196   99  220 1    
   197  100  101 1    
   198  100  102 1    
   199  100  221 1    
   200  101  222 1    
   201  101  223 1    
   202  101  224 1    
   203  102  103 2    
   204  102  104 am   BACKBONE|DICT|INTERRES
   205  104  105 1    
   206  104  225 1    
   207  105  106 1    
   208  105  107 1    
   209  105  226 1    
   210  106  227 1    
   211  106  228 1    
   212  106  229 1    
   213  107  108 2    
   214  107  109 am   BACKBONE|DICT|INTERRES
   215  109  110 1    
   216  109  230 1    
   217  110  111 1    
   218  110  112 1    
   219  110  231 1    
   220  111  232 1    
   221  111  233 1    
   222  111  234 1    
   223  112  113 2    
   224  112  114 am   BACKBONE|DICT|INTERRES
   225  114  115 1    
   226  114  235 1    
   227  115  116 1    
   228  115  117 1    
   229  115  236 1    
   230  116  237 1    
   231  116  238 1    
   232  116  239 1    
   233  117  118 2    
   234  117  119 am   BACKBONE|DICT|INTERRES
   235  119  120 1    
   236  119  240 1    
   237  120  121 1    
   238  120  124 1    
   239  120  241 1    
   240  121  122 am   BACKBONE|DICT|INTERRES
   241  121  123 2    
   242  122  242 1    
   243  122  243 1    
   244  124  125 1    
   245  124  244 1    
   246  124  245 1    
   247  125  126 1    
   248  126  246 1    
   249  126  247 1    
@<TRIPOS>SUBSTRUCTURE
     1 UNK         1 GROUP             0       ****    0 ROOT    
