@<TRIPOS>MOLECULE
3R540
247   249    1
SMALL
USER_CHARGES


@<TRIPOS>ATOM
      1 CA          1.7446  -13.4452  -52.2946 C.3       0 UNK        -0.1800 
      2 C           1.3099  -13.4990  -50.8365 C.2       0 UNK         0.5000 
      3 O           0.7601  -12.5236  -50.3241 O.2       0 UNK        -0.5000 
      4 N           1.5610  -14.6312  -50.1691 N.am      1 UNK        -0.5000 
      5 CA          1.1258  -14.9119  -48.7985 C.3       1 UNK         0.1400 
      6 C6          2.0174  -16.0079  -48.1517 C.3       23 UNK        -0.0398 
      7 S7          1.6494  -17.7319  -48.6264 S.3       23 UNK        -0.2404 
      8 C8          2.7562  -18.0767  -50.0231 C.3       23 UNK        -0.0205 
      9 C9          2.3068  -19.3715  -50.6797 C.ar      23 UNK        -0.0193 
     10 C10         1.2310  -19.3539  -51.5701 C.ar      23 UNK        -0.1150 
     11 C11         0.7068  -20.5447  -52.0766 C.ar      23 UNK        -0.0193 
     12 C12         1.3008  -21.7567  -51.7131 C.ar      23 UNK        -0.1150 
     13 C13         2.3874  -21.7983  -50.8339 C.ar      23 UNK        -0.0193 
     14 C14         2.8933  -20.5912  -50.3289 C.ar      23 UNK        -0.1150 
     15 C15         2.9358  -23.1774  -50.4492 C.3       23 UNK        -0.0205 
     16 S16         4.2269  -23.2219  -49.1577 S.3       23 UNK        -0.2404 
     17 C17         3.3132  -22.6650  -47.6794 C.3       23 UNK        -0.0398 
     18 CA          3.2432  -23.7297  -46.5503 C.3       11 UNK         0.1400 
     19 N           3.3549  -23.0991  -45.2296 N.am      11 UNK        -0.5000 
     20 C           3.7798  -23.7011  -44.1111 C.2       10 UNK         0.5000 
     21 O           4.1755  -24.8662  -44.0688 O.2       10 UNK        -0.5000 
     22 CA          3.7119  -22.8703  -42.8144 C.3       10 UNK         0.1400 
     23 CB          4.9434  -21.9615  -42.6854 C.3       10 UNK        -0.1800 
     24 N           2.4962  -22.0574  -42.7100 N.am      10 UNK        -0.5000 
     25 C           1.2498  -22.5474  -42.6318 C.2       9 UNK         0.5000 
     26 O           0.9833  -23.7482  -42.6536 O.2       9 UNK        -0.5000 
     27 CA          0.1050  -21.5234  -42.5658 C.3       9 UNK         0.1400 
     28 CB         -0.0528  -20.9610  -41.1453 C.3       9 UNK        -0.1800 
     29 N           0.3220  -20.4322  -43.5131 N.am      9 UNK        -0.5000 
     30 C           0.0850  -20.5299  -44.8285 C.2       8 UNK         0.5000 
     31 O          -0.4234  -21.5189  -45.3596 O.2       8 UNK        -0.5000 
     32 CA          0.5086  -19.3368  -45.7043 C.3       8 UNK         0.1400 
     33 CB         -0.6466  -18.3415  -45.8650 C.3       8 UNK        -0.1800 
     34 N           1.6818  -18.6241  -45.1969 N.am      8 UNK        -0.5000 
     35 C           2.9104  -19.1515  -45.1227 C.2       7 UNK         0.5000 
     36 O           3.1789  -20.3024  -45.4562 O.2       7 UNK        -0.5000 
     37 CA          4.0077  -18.2683  -44.5063 C.3       7 UNK         0.1400 
     38 CB          4.6294  -17.3521  -45.5703 C.3       7 UNK        -0.1800 
     39 N           3.5393  -17.4616  -43.3762 N.am      7 UNK        -0.5000 
     40 C           3.0050  -17.9519  -42.2482 C.2       6 UNK         0.5000 
     41 O           2.7730  -19.1470  -42.0613 O.2       6 UNK        -0.5000 
     42 CA          2.6067  -16.9240  -41.1854 C.3       6 UNK         0.1400 
     43 CB          3.6931  -15.8469  -40.9699 C.3       6 UNK        -0.1800 
     44 N           1.3360  -16.3314  -41.5910 N.am      6 UNK        -0.5000 
     45 C           0.5498  -15.5695  -40.8231 C.2       5 UNK         0.5000 
     46 O           0.8221  -15.2376  -39.6686 O.2       5 UNK        -0.5000 
     47 CA         -0.7791  -15.1118  -41.4516 C.3       5 UNK         0.1400 
     48 CB         -0.5648  -13.8687  -42.3285 C.3       5 UNK        -0.1800 
     49 N          -1.4578  -16.1442  -42.2405 N.am      5 UNK        -0.5000 
     50 C          -1.9539  -17.2876  -41.7394 C.2       4 UNK         0.5000 
     51 O          -1.7589  -17.6625  -40.5825 O.2       4 UNK        -0.5000 
     52 CA         -2.8440  -18.1353  -42.6806 C.3       4 UNK         0.1400 
     53 CB         -3.8179  -19.0555  -41.9161 C.3       4 UNK        -0.1800 
     54 N          -3.5785  -17.3380  -43.6717 N.am      4 UNK        -0.5000 
     55 C          -4.4122  -16.3138  -43.4343 C.2       3 UNK         0.5000 
     56 O          -4.7030  -15.9193  -42.3035 O.2       3 UNK        -0.5000 
     57 CA         -5.0229  -15.6091  -44.6649 C.3       3 UNK         0.1400 
     58 CB         -5.4097  -14.1459  -44.3645 C.3       3 UNK        -0.1800 
     59 N          -4.2147  -15.6576  -45.8906 N.am      3 UNK        -0.5000 
     60 C          -2.9597  -15.2226  -46.0756 C.2       2 UNK         0.5000 
     61 O          -2.1904  -14.8782  -45.1740 O.2       2 UNK        -0.5000 
     62 CA         -2.5232  -15.1285  -47.5435 C.3       2 UNK         0.1400 
     63 CB         -3.2583  -13.9801  -48.2633 C.3       2 UNK        -0.1800 
     64 N          -1.0775  -14.9428  -47.6661 N.am      2 UNK        -0.5000 
     65 C          -0.3889  -15.2337  -48.7773 C.2       1 UNK         0.5000 
     66 O          -0.9089  -15.7466  -49.7716 O.2       1 UNK        -0.5000 
     67 C           1.9821  -24.6209  -46.6743 C.2       11 UNK         0.5000 
     68 O           1.8476  -25.3355  -47.6677 O.2       11 UNK        -0.5000 
     69 N           1.0858  -24.5637  -45.6734 N.am      12 UNK        -0.5000 
     70 CA         -0.1890  -25.2834  -45.5606 C.3       12 UNK         0.1400 
     71 CB          0.0517  -26.7990  -45.4032 C.3       12 UNK        -0.1800 
     72 C          -1.1777  -24.9386  -46.6943 C.2       12 UNK         0.5000 
     73 O          -1.9158  -25.8065  -47.1641 O.2       12 UNK        -0.5000 
     74 N          -1.1610  -23.6687  -47.1130 N.am      13 UNK        -0.5000 
     75 CA         -1.9592  -23.1284  -48.2106 C.3       13 UNK         0.1400 
     76 CB         -1.0261  -22.2936  -49.0975 C.3       13 UNK        -0.1800 
     77 C          -3.1680  -22.3128  -47.7068 C.2       13 UNK         0.5000 
     78 O          -4.0993  -22.0855  -48.4801 O.2       13 UNK        -0.5000 
     79 N          -3.1527  -21.9172  -46.4225 N.am      14 UNK        -0.5000 
     80 CA         -4.2218  -21.2555  -45.6648 C.3       14 UNK         0.1400 
     81 CB         -5.4063  -22.2195  -45.4420 C.3       14 UNK        -0.1800 
     82 C          -4.6406  -19.9058  -46.2781 C.2       14 UNK         0.5000 
     83 O          -3.9995  -18.8945  -45.9958 O.2       14 UNK        -0.5000 
     84 N          -5.6868  -19.9019  -47.1164 N.am      15 UNK        -0.5000 
     85 CA         -6.1000  -18.7428  -47.9139 C.3       15 UNK         0.1400 
     86 CB         -7.4280  -19.0546  -48.6172 C.3       15 UNK        -0.1800 
     87 C          -5.0279  -18.3247  -48.9394 C.2       15 UNK         0.5000 
     88 O          -4.8837  -17.1331  -49.2143 O.2       15 UNK        -0.5000 
     89 N          -4.2729  -19.3188  -49.4293 N.am      16 UNK        -0.5000 
     90 CA         -3.0693  -19.2141  -50.2465 C.3       16 UNK         0.1400 
     91 CB         -1.8720  -18.8408  -49.3564 C.3       16 UNK        -0.1800 
     92 C          -3.2557  -18.3414  -51.4994 C.2       16 UNK         0.5000 
     93 O          -4.1687  -18.6264  -52.2758 O.2       16 UNK        -0.5000 
     94 N          -2.4021  -17.3295  -51.7110 N.am      17 UNK        -0.5000 
     95 CA         -2.3505  -16.5351  -52.9425 C.3       17 UNK         0.1400 
     96 CB         -1.0852  -15.6651  -52.9466 C.3       17 UNK        -0.1800 
     97 C          -3.6005  -15.6715  -53.1938 C.2       17 UNK         0.5000 
     98 O          -3.8475  -15.3041  -54.3424 O.2       17 UNK        -0.5000 
     99 N          -4.3862  -15.3924  -52.1433 N.am      18 UNK        -0.5000 
    100 CA        -5.6684  -14.6916  -52.2451 C.3       18 UNK         0.1400 
    101 CB        -6.1162  -14.2384  -50.8478 C.3       18 UNK        -0.1800 
    102 C         -6.7647  -15.5417  -52.9187 C.2       18 UNK         0.5000 
    103 O         -7.6719  -14.9777  -53.5315 O.2       18 UNK        -0.5000 
    104 N         -6.6566  -16.8719  -52.8022 N.am      19 UNK        -0.5000 
    105 CA        -7.5744  -17.8468  -53.3962 C.3       19 UNK         0.1400 
    106 CB        -8.0094  -18.8210  -52.2896 C.3       19 UNK        -0.1800 
    107 C         -6.9383  -18.6220  -54.5672 C.2       19 UNK         0.5000 
    108 O         -7.6486  -19.3603  -55.2503 O.2       19 UNK        -0.5000 
    109 N         -5.6164  -18.4758  -54.7497 N.am      20 UNK        -0.5000 
    110 CA        -4.7306  -19.2882  -55.5942 C.3       20 UNK         0.1400 
    111 CB        -5.0651  -19.1170  -57.0900 C.3       20 UNK        -0.1800 
    112 C         -4.6911  -20.7657  -55.1411 C.2       20 UNK         0.5000 
    113 O         -4.5513  -21.6721  -55.9640 O.2       20 UNK        -0.5000 
    114 N         -4.8155  -20.9820  -53.8252 N.am      21 UNK        -0.5000 
    115 CA        -4.9411  -22.2824  -53.1679 C.3       21 UNK         0.1400 
    116 CB        -5.7703  -22.0977  -51.8834 C.3       21 UNK        -0.1800 
    117 C         -3.5711  -22.9377  -52.9015 C.2       21 UNK         0.5000 
    118 O         -3.3112  -23.3958  -51.7882 O.2       21 UNK        -0.5000 
    119 N         -2.7023  -22.9507  -53.9196 N.am      22 UNK        -0.5000 
    120 CA        -1.3414  -23.5087  -53.8387 C.3       22 UNK         0.1400 
    121 C         -1.2648  -25.0483  -54.0603 C.2       22 UNK         0.5000 
    122 N         -2.3467  -25.7279  -54.4207 N.am      22 UNK        -0.7600 
    123 O         -0.2024  -25.6405  -53.8925 O.2       22 UNK        -0.5000 
    124 C124       -0.3364  -22.7665  -54.7642 C.3       23 UNK        -0.0398 
    125 S125       -0.2914  -20.9356  -54.6750 S.3       23 UNK        -0.2404 
    126 C126       -0.5592  -20.5114  -52.9235 C.3       23 UNK        -0.0205 
    127 H127        0.8949  -13.1959  -52.9302 H         1 UNK         0.0600 
    128 H128        2.1509  -14.3991  -52.6320 H         1 UNK         0.0600 
    129 H129        2.5095  -12.6808  -52.4306 H         1 UNK         0.0600 
    130 H130        1.9693  -15.4114  -50.6596 H         1 UNK         0.3000 
    131 H131        1.2699  -13.9980  -48.2179 H         1 UNK         0.0600 
    132 H132        1.8972  -15.9552  -47.0693 H         1 UNK         0.0800 
    133 H133        3.0728  -15.8006  -48.3347 H         1 UNK         0.0800 
    134 H134        3.7859  -18.1517  -49.6705 H         1 UNK         0.0800 
    135 H135        2.7225  -17.2617  -50.7461 H         1 UNK         0.0800 
    136 H136        0.7619  -18.4114  -51.8148 H         1 UNK         0.1150 
    137 H137        0.9027  -22.6854  -52.0878 H         1 UNK         0.1150 
    138 H138        3.7175  -20.5871  -49.6319 H         1 UNK         0.1150 
    139 H139        2.1101  -23.8133  -50.1255 H         1 UNK         0.0800 
    140 H140        3.3454  -23.6422  -51.3469 H         1 UNK         0.0800 
    141 H141        3.8694  -21.7931  -47.3375 H         1 UNK         0.0800 
    142 H142        2.3230  -22.2892  -47.9455 H         1 UNK         0.0800 
    143 H143        4.1028  -24.3951  -46.6560 H         1 UNK         0.0600 
    144 H144        3.1182  -22.1093  -45.1881 H         1 UNK         0.3000 
    145 H145        3.7154  -23.5673  -41.9739 H         1 UNK         0.0600 
    146 H146        4.9227  -21.3970  -41.7530 H         1 UNK         0.0600 
    147 H147        5.0043  -21.2487  -43.5075 H         1 UNK         0.0600 
    148 H148        5.8629  -22.5481  -42.6918 H         1 UNK         0.0600 
    149 H149        2.6257  -21.0522  -42.6540 H         1 UNK         0.3000 
    150 H150       -0.8232  -22.0378  -42.8253 H         1 UNK         0.0600 
    151 H151       -0.2492  -21.7614  -40.4309 H         1 UNK         0.0600 
    152 H152       -0.8882  -20.2650  -41.0880 H         1 UNK         0.0600 
    153 H153        0.8414  -20.4365  -40.8091 H         1 UNK         0.0600 
    154 H154        0.8196  -19.6251  -43.1646 H         1 UNK         0.3000 
    155 H155        0.7532  -19.7406  -46.6889 H         1 UNK         0.0600 
    156 H156       -1.5349  -18.8501  -46.2316 H         1 UNK         0.0600 
    157 H157       -0.4072  -17.5639  -46.5877 H         1 UNK         0.0600 
    158 H158       -0.8976  -17.8493  -44.9271 H         1 UNK         0.0600 
    159 H159        1.5512  -17.6668  -44.9115 H         1 UNK         0.3000 
    160 H160        4.7901  -18.9324  -44.1347 H         1 UNK         0.0600 
    161 H161        3.9240  -16.5965  -45.9143 H         1 UNK         0.0600 
    162 H162        4.9505  -17.9238  -46.4424 H         1 UNK         0.0600 
    163 H163        5.5070  -16.8365  -45.1802 H         1 UNK         0.0600 
    164 H164        3.6873  -16.4651  -43.4437 H         1 UNK         0.3000 
    165 H165        2.4589  -17.4648  -40.2482 H         1 UNK         0.0600 
    166 H166        3.4869  -15.2496  -40.0820 H         1 UNK         0.0600 
    167 H167        4.6735  -16.3024  -40.8239 H         1 UNK         0.0600 
    168 H168        3.7667  -15.1621  -41.8152 H         1 UNK         0.0600 
    169 H169        1.0087  -16.5713  -42.5146 H         1 UNK         0.3000 
    170 H170       -1.4474  -14.8343  -40.6338 H         1 UNK         0.0600 
    171 H171       -0.0730  -13.0727  -41.7679 H         1 UNK         0.0600 
    172 H172        0.0539  -14.0906  -43.1989 H         1 UNK         0.0600 
    173 H173       -1.5152  -13.4731  -42.6881 H         1 UNK         0.0600 
    174 H174       -1.7016  -15.8912  -43.1910 H         1 UNK         0.3000 
    175 H175       -2.1687  -18.7819  -43.2400 H         1 UNK         0.0600 
    176 H176       -4.4931  -18.4855  -41.2773 H         1 UNK         0.0600 
    177 H177       -4.4255  -19.6439  -42.6034 H         1 UNK         0.0600 
    178 H178       -3.2806  -19.7581  -41.2788 H         1 UNK         0.0600 
    179 H179       -3.4826  -17.6416  -44.6375 H         1 UNK         0.3000 
    180 H180       -5.9412  -16.1534  -44.8894 H         1 UNK         0.0600 
    181 H181       -5.8678  -13.6724  -45.2330 H         1 UNK         0.0600 
    182 H182       -4.5402  -13.5524  -44.0791 H         1 UNK         0.0600 
    183 H183       -6.1313  -14.0855  -43.5489 H         1 UNK         0.0600 
    184 H184       -4.7161  -15.9662  -46.7118 H         1 UNK         0.3000 
    185 H185       -2.8045  -16.0697  -48.0112 H         1 UNK         0.0600 
    186 H186       -2.9896  -13.0097  -47.8448 H         1 UNK         0.0600 
    187 H187       -3.0226  -13.9628  -49.3276 H         1 UNK         0.0600 
    188 H188       -4.3403  -14.0867  -48.1800 H         1 UNK         0.0600 
    189 H189       -0.6239  -14.5671  -46.8435 H         1 UNK         0.3000 
    190 H190        1.3039  -23.9655  -44.8874 H         1 UNK         0.3000 
    191 H191       -0.6551  -24.9293  -44.6401 H         1 UNK         0.0600 
    192 H192       -0.8788  -27.3217  -45.1792 H         1 UNK         0.0600 
    193 H193        0.7426  -27.0039  -44.5853 H         1 UNK         0.0600 
    194 H194        0.4646  -27.2407  -46.3105 H         1 UNK         0.0600 
    195 H195       -0.5733  -23.0064  -46.6164 H         1 UNK         0.3000 
    196 H196       -2.3572  -23.9399  -48.8235 H         1 UNK         0.0600 
    197 H197       -0.5616  -21.4751  -48.5479 H         1 UNK         0.0600 
    198 H198       -1.5592  -21.8796  -49.9511 H         1 UNK         0.0600 
    199 H199       -0.2245  -22.9140  -49.4974 H         1 UNK         0.0600 
    200 H200       -2.2941  -22.0722  -45.9061 H         1 UNK         0.3000 
    201 H201       -3.8010  -21.0252  -44.6849 H         1 UNK         0.0600 
    202 H202       -5.8348  -22.5779  -46.3783 H         1 UNK         0.0600 
    203 H203       -6.2037  -21.7364  -44.8756 H         1 UNK         0.0600 
    204 H204       -5.0912  -23.0933  -44.8716 H         1 UNK         0.0600 
    205 H205       -6.1384  -20.7816  -47.3209 H         1 UNK         0.3000 
    206 H206       -6.2583  -17.9025  -47.2350 H         1 UNK         0.0600 
    207 H207       -8.2085  -19.2993  -47.8966 H         1 UNK         0.0600 
    208 H208       -7.7741  -18.1929  -49.1892 H         1 UNK         0.0600 
    209 H209       -7.3321  -19.8937  -49.3075 H         1 UNK         0.0600 
    210 H210       -4.4851  -20.2618  -49.1169 H         1 UNK         0.3000 
    211 H211       -2.8926  -20.2170  -50.6325 H         1 UNK         0.0600 
    212 H212       -1.9974  -17.8654  -48.9004 H         1 UNK         0.0600 
    213 H213       -0.9370  -18.8371  -49.9141 H         1 UNK         0.0600 
    214 H214       -1.7602  -19.5510  -48.5400 H         1 UNK         0.0600 
    215 H215       -1.7486  -17.0589  -50.9800 H         1 UNK         0.3000 
    216 H216       -2.2726  -17.2374  -53.7752 H         1 UNK         0.0600 
    217 H217       -0.9417  -15.1923  -53.9188 H         1 UNK         0.0600 
    218 H218       -0.1927  -16.2541  -52.7360 H         1 UNK         0.0600 
    219 H219       -1.1468  -14.8676  -52.2060 H         1 UNK         0.0600 
    220 H220       -4.1281  -15.7510  -51.2329 H         1 UNK         0.3000 
    221 H221       -5.5221  -13.7992  -52.8574 H         1 UNK         0.0600 
    222 H222       -7.0590  -13.6924  -50.8986 H         1 UNK         0.0600 
    223 H223       -6.2645  -15.0837  -50.1757 H         1 UNK         0.0600 
    224 H224       -5.3817  -13.5715  -50.3972 H         1 UNK         0.0600 
    225 H225       -5.8725  -17.2513  -52.2852 H         1 UNK         0.3000 
    226 H226       -8.4667  -17.3531  -53.7860 H         1 UNK         0.0600 
    227 H227       -8.5667  -18.3013  -51.5106 H         1 UNK         0.0600 
    228 H228       -8.6584  -19.6051  -52.6815 H         1 UNK         0.0600 
    229 H229       -7.1505  -19.3044  -51.8227 H         1 UNK         0.0600 
    230 H230       -5.1374  -17.8714  -54.0971 H         1 UNK         0.3000 
    231 H231       -3.7235  -18.8997  -55.4363 H         1 UNK         0.0600 
    232 H232       -4.3111  -19.5974  -57.7145 H         1 UNK         0.0600 
    233 H233       -5.0935  -18.0638  -57.3689 H         1 UNK         0.0600 
    234 H234       -6.0281  -19.5591  -57.3459 H         1 UNK         0.0600 
    235 H235       -4.8235  -20.1690  -53.2163 H         1 UNK         0.3000 
    236 H236       -5.4936  -22.9585  -53.8234 H         1 UNK         0.0600 
    237 H237       -5.2858  -21.4130  -51.1868 H         1 UNK         0.0600 
    238 H238       -6.7609  -21.7038  -52.1091 H         1 UNK         0.0600 
    239 H239       -5.9138  -23.0464  -51.3647 H         1 UNK         0.0600 
    240 H240       -2.9930  -22.5660  -54.8106 H         1 UNK         0.3000 
    241 H241       -0.9987  -23.3772  -52.8139 H         1 UNK         0.0600 
    242 H242       -2.2846  -26.7250  -54.5561 H         1 UNK         0.3800 
    243 H243       -3.2255  -25.2566  -54.5628 H         1 UNK         0.3800 
    244 H244       -0.5407  -23.0246  -55.8046 H         1 UNK         0.0800 
    245 H245        0.6774  -23.1199  -54.5686 H         1 UNK         0.0800 
    246 H246       -1.3221  -21.1358  -52.4654 H         1 UNK         0.0800 
    247 H247       -0.9728  -19.5037  -52.9134 H         1 UNK         0.0800 
@<TRIPOS>BOND
     1    1    2 1    
     2    1  127 1    
     3    1  128 1    
     4    1  129 1    
     5    2    3 2    
     6    2    4 am   BACKBONE|DICT|INTERRES
     7    4    5 1    
     8    4  130 1    
     9    5    6 1    
    10    5   65 1    
    11    5  131 1    
    12    6    7 1    
    13    6  132 1    
    14    6  133 1    
    15    7    8 1    
    16    8    9 1    
    17    8  134 1    
    18    8  135 1    
    19    9   10 ar   
    20    9   14 ar   
    21   10   11 ar   
    22   10  136 1    
    23   11   12 ar   
    24   11  126 1    
    25   12   13 ar   
    26   12  137 1    
    27   13   14 ar   
    28   13   15 1    
    29   14  138 1    
    30   15   16 1    
    31   15  139 1    
    32   15  140 1    
    33   16   17 1    
    34   17   18 1    
    35   17  141 1    
    36   17  142 1    
    37   18   19 1    
    38   18   67 1    
    39   18  143 1    
    40   19   20 am   BACKBONE|DICT|INTERRES
    41   19  144 1    
    42   20   21 2    
    43   20   22 1    
    44   22   23 1    
    45   22   24 1    
    46   22  145 1    
    47   23  146 1    
    48   23  147 1    
    49   23  148 1    
    50   24   25 am   BACKBONE|DICT|INTERRES
    51   24  149 1    
    52   25   26 2    
    53   25   27 1    
    54   27   28 1    
    55   27   29 1    
    56   27  150 1    
    57   28  151 1    
    58   28  152 1    
    59   28  153 1    
    60   29   30 am   BACKBONE|DICT|INTERRES
    61   29  154 1    
    62   30   31 2    
    63   30   32 1    
    64   32   33 1    
    65   32   34 1    
    66   32  155 1    
    67   33  156 1    
    68   33  157 1    
    69   33  158 1    
    70   34   35 am   BACKBONE|DICT|INTERRES
    71   34  159 1    
    72   35   36 2    
    73   35   37 1    
    74   37   38 1    
    75   37   39 1    
    76   37  160 1    
    77   38  161 1    
    78   38  162 1    
    79   38  163 1    
    80   39   40 am   BACKBONE|DICT|INTERRES
    81   39  164 1    
    82   40   41 2    
    83   40   42 1    
    84   42   43 1    
    85   42   44 1    
    86   42  165 1    
    87   43  166 1    
    88   43  167 1    
    89   43  168 1    
    90   44   45 am   BACKBONE|DICT|INTERRES
    91   44  169 1    
    92   45   46 2    
    93   45   47 1    
    94   47   48 1    
    95   47   49 1    
    96   47  170 1    
    97   48  171 1    
    98   48  172 1    
    99   48  173 1    
   100   49   50 am   BACKBONE|DICT|INTERRES
   101   49  174 1    
   102   50   51 2    
   103   50   52 1    
   104   52   53 1    
   105   52   54 1    
   106   52  175 1    
   107   53  176 1    
   108   53  177 1    
   109   53  178 1    
   110   54   55 am   BACKBONE|DICT|INTERRES
   111   54  179 1    
   112   55   56 2    
   113   55   57 1    
   114   57   58 1    
   115   57   59 1    
   116   57  180 1    
   117   58  181 1    
   118   58  182 1    
   119   58  183 1    
   120   59   60 am   BACKBONE|DICT|INTERRES
   121   59  184 1    
   122   60   61 2    
   123   60   62 1    
   124   62   63 1    
   125   62   64 1    
   126   62  185 1    
   127   63  186 1    
   128   63  187 1    
   129   63  188 1    
   130   64   65 am   BACKBONE|DICT|INTERRES
   131   64  189 1    
   132   65   66 2    
   133   67   68 2    
   134   67   69 am   BACKBONE|DICT|INTERRES
   135   69   70 1    
   136   69  190 1    
   137   70   71 1    
   138   70   72 1    
   139   70  191 1    
   140   71  192 1    
   141   71  193 1    
   142   71  194 1    
   143   72   73 2    
   144   72   74 am   BACKBONE|DICT|INTERRES
   145   74   75 1    
   146   74  195 1    
   147   75   76 1    
   148   75   77 1    
   149   75  196 1    
   150   76  197 1    
   151   76  198 1    
   152   76  199 1    
   153   77   78 2    
   154   77   79 am   BACKBONE|DICT|INTERRES
   155   79   80 1    
   156   79  200 1    
   157   80   81 1    
   158   80   82 1    
   159   80  201 1    
   160   81  202 1    
   161   81  203 1    
   162   81  204 1    
   163   82   83 2    
   164   82   84 am   BACKBONE|DICT|INTERRES
   165   84   85 1    
   166   84  205 1    
   167   85   86 1    
   168   85   87 1    
   169   85  206 1    
   170   86  207 1    
   171   86  208 1    
   172   86  209 1    
   173   87   88 2    
   174   87   89 am   BACKBONE|DICT|INTERRES
   175   89   90 1    
   176   89  210 1    
   177   90   91 1    
   178   90   92 1    
   179   90  211 1    
   180   91  212 1    
   181   91  213 1    
   182   91  214 1    
   183   92   93 2    
   184   92   94 am   BACKBONE|DICT|INTERRES
   185   94   95 1    
   186   94  215 1    
   187   95   96 1    
   188   95   97 1    
   189   95  216 1    
   190   96  217 1    
   191   96  218 1    
   192   96  219 1    
   193   97   98 2    
   194   97   99 am   BACKBONE|DICT|INTERRES
   195   99  100 1    
   196   99  220 1    
   197  100  101 1    
   198  100  102 1    
   199  100  221 1    
   200  101  222 1    
   201  101  223 1    
   202  101  224 1    
   203  102  103 2    
   204  102  104 am   BACKBONE|DICT|INTERRES
   205  104  105 1    
   206  104  225 1    
   207  105  106 1    
   208  105  107 1    
   209  105  226 1    
   210  106  227 1    
   211  106  228 1    
   212  106  229 1    
   213  107  108 2    
   214  107  109 am   BACKBONE|DICT|INTERRES
   215  109  110 1    
   216  109  230 1    
   217  110  111 1    
   218  110  112 1    
   219  110  231 1    
   220  111  232 1    
   221  111  233 1    
   222  111  234 1    
   223  112  113 2    
   224  112  114 am   BACKBONE|DICT|INTERRES
   225  114  115 1    
   226  114  235 1    
   227  115  116 1    
   228  115  117 1    
   229  115  236 1    
   230  116  237 1    
   231  116  238 1    
   232  116  239 1    
   233  117  118 2    
   234  117  119 am   BACKBONE|DICT|INTERRES
   235  119  120 1    
   236  119  240 1    
   237  120  121 1    
   238  120  124 1    
   239  120  241 1    
   240  121  122 am   BACKBONE|DICT|INTERRES
   241  121  123 2    
   242  122  242 1    
   243  122  243 1    
   244  124  125 1    
   245  124  244 1    
   246  124  245 1    
   247  125  126 1    
   248  126  246 1    
   249  126  247 1    
@<TRIPOS>SUBSTRUCTURE
     1 UNK         1 GROUP             0       ****    0 ROOT    
