@<TRIPOS>MOLECULE
3R540
247   249    1
SMALL
USER_CHARGES


@<TRIPOS>ATOM
      1 CA          0.9436   -9.9589  -48.8645 C.3       0 UNK        -0.1800 
      2 C           1.3780  -11.4149  -48.7800 C.2       0 UNK         0.5000 
      3 O           2.1987  -11.7593  -47.9295 O.2       0 UNK        -0.5000 
      4 N           0.8158  -12.2734  -49.6437 N.am      1 UNK        -0.5000 
      5 CA          1.1202  -13.7105  -49.7523 C.3       1 UNK         0.1400 
      6 C6          0.4125  -14.3428  -50.9795 C.3       23 UNK        -0.0398 
      7 S7          1.4023  -15.6513  -51.7716 S.3       23 UNK        -0.2404 
      8 C8          0.5587  -17.1661  -51.2174 C.3       23 UNK        -0.0205 
      9 C9          1.1585  -18.3749  -51.9153 C.ar      23 UNK        -0.0193 
     10 C10         0.5926  -18.8517  -53.1006 C.ar      23 UNK        -0.1150 
     11 C11         1.1795  -19.9153  -53.7921 C.ar      23 UNK        -0.0193 
     12 C12         2.3362  -20.5110  -53.2802 C.ar      23 UNK        -0.1150 
     13 C13         2.9177  -20.0362  -52.0993 C.ar      23 UNK        -0.0193 
     14 C14         2.3165  -18.9761  -51.4138 C.ar      23 UNK        -0.1150 
     15 C15         4.2390  -20.6164  -51.6162 C.3       23 UNK        -0.0205 
     16 S16         4.0190  -22.0948  -50.5821 S.3       23 UNK        -0.2404 
     17 C17         3.7559  -21.3737  -48.9257 C.3       23 UNK        -0.0398 
     18 CA          2.5784  -22.0523  -48.1847 C.3       11 UNK         0.1400 
     19 N           2.8016  -22.1357  -46.7379 N.am      11 UNK        -0.5000 
     20 C           2.1406  -22.9835  -45.9377 C.2       10 UNK         0.5000 
     21 O           1.2785  -23.7656  -46.3367 O.2       10 UNK        -0.5000 
     22 CA          2.4723  -22.9296  -44.4366 C.3       10 UNK         0.1400 
     23 CB          3.7218  -23.7685  -44.1297 C.3       10 UNK        -0.1800 
     24 N           2.6529  -21.5756  -43.9062 N.am      10 UNK        -0.5000 
     25 C           1.7199  -20.6151  -43.9286 C.2       9 UNK         0.5000 
     26 O           0.6470  -20.7147  -44.5246 O.2       9 UNK        -0.5000 
     27 CA          2.0255  -19.3367  -43.1317 C.3       9 UNK         0.1400 
     28 CB          2.0319  -18.0947  -44.0334 C.3       9 UNK        -0.1800 
     29 N           1.0340  -19.1565  -42.0758 N.am      9 UNK        -0.5000 
     30 C           0.9528  -19.9156  -40.9747 C.2       8 UNK         0.5000 
     31 O           1.7601  -20.8017  -40.6910 O.2       8 UNK        -0.5000 
     32 CA         -0.2297  -19.6419  -40.0350 C.3       8 UNK         0.1400 
     33 CB          0.0486  -18.4037  -39.1680 C.3       8 UNK        -0.1800 
     34 N          -1.4717  -19.4498  -40.7844 N.am      8 UNK        -0.5000 
     35 C          -2.3256  -20.4341  -41.1016 C.2       7 UNK         0.5000 
     36 O          -2.1447  -21.6132  -40.7957 O.2       7 UNK        -0.5000 
     37 CA         -3.6142  -20.0518  -41.8580 C.3       7 UNK         0.1400 
     38 CB         -4.8179  -20.0719  -40.9025 C.3       7 UNK        -0.1800 
     39 N          -3.5332  -18.7275  -42.4739 N.am      7 UNK        -0.5000 
     40 C          -3.1488  -18.5024  -43.7361 C.2       6 UNK         0.5000 
     41 O          -2.9196  -19.3939  -44.5498 O.2       6 UNK        -0.5000 
     42 CA         -2.9941  -17.0325  -44.1729 C.3       6 UNK         0.1400 
     43 CB         -4.2042  -16.5897  -45.0087 C.3       6 UNK        -0.1800 
     44 N          -2.7992  -16.0776  -43.0765 N.am      6 UNK        -0.5000 
     45 C          -1.7370  -16.0611  -42.2625 C.2       5 UNK         0.5000 
     46 O          -0.8876  -16.9554  -42.2236 O.2       5 UNK        -0.5000 
     47 CA         -1.6133  -14.8636  -41.3155 C.3       5 UNK         0.1400 
     48 CB         -2.1760  -15.2226  -39.9260 C.3       5 UNK        -0.1800 
     49 N          -0.2006  -14.5029  -41.2571 N.am      5 UNK        -0.5000 
     50 C           0.3421  -13.4640  -40.6128 C.2       4 UNK         0.5000 
     51 O          -0.2991  -12.6553  -39.9407 O.2       4 UNK        -0.5000 
     52 CA          1.8660  -13.2882  -40.7599 C.3       4 UNK         0.1400 
     53 CB          2.6130  -14.2520  -39.8241 C.3       4 UNK        -0.1800 
     54 N           2.3368  -13.4881  -42.1321 N.am      4 UNK        -0.5000 
     55 C           2.0579  -12.6794  -43.1645 C.2       3 UNK         0.5000 
     56 O           1.3967  -11.6446  -43.0612 O.2       3 UNK        -0.5000 
     57 CA          2.5994  -13.0815  -44.5546 C.3       3 UNK         0.1400 
     58 CB          3.6642  -14.2007  -44.5261 C.3       3 UNK        -0.1800 
     59 N           1.5134  -13.4294  -45.4746 N.am      3 UNK        -0.5000 
     60 C           0.5749  -14.3712  -45.2868 C.2       2 UNK         0.5000 
     61 O           0.5409  -15.1121  -44.3071 O.2       2 UNK        -0.5000 
     62 CA         -0.5258  -14.5111  -46.3570 C.3       2 UNK         0.1400 
     63 CB         -1.7992  -13.7831  -45.9020 C.3       2 UNK        -0.1800 
     64 N          -0.1479  -13.9957  -47.6708 N.am      2 UNK        -0.5000 
     65 C           0.8066  -14.5032  -48.4625 C.2       1 UNK         0.5000 
     66 O           1.4386  -15.5261  -48.2008 O.2       1 UNK        -0.5000 
     67 C           1.2217  -21.3996  -48.5192 C.2       11 UNK         0.5000 
     68 O           0.5516  -21.8437  -49.4493 O.2       11 UNK        -0.5000 
     69 N           0.8074  -20.4033  -47.7206 N.am      12 UNK        -0.5000 
     70 CA         -0.5132  -19.7812  -47.8214 C.3       12 UNK         0.1400 
     71 CB         -0.5670  -18.5011  -46.9783 C.3       12 UNK        -0.1800 
     72 C          -1.6312  -20.7535  -47.4102 C.2       12 UNK         0.5000 
     73 O          -2.6633  -20.7976  -48.0783 O.2       12 UNK        -0.5000 
     74 N          -1.3909  -21.5462  -46.3573 N.am      13 UNK        -0.5000 
     75 CA         -2.2921  -22.5950  -45.8845 C.3       13 UNK         0.1400 
     76 CB         -1.7999  -23.1328  -44.5330 C.3       13 UNK        -0.1800 
     77 C          -2.4553  -23.7256  -46.9169 C.2       13 UNK         0.5000 
     78 O          -3.5837  -24.1387  -47.1853 O.2       13 UNK        -0.5000 
     79 N          -1.3417  -24.1554  -47.5306 N.am      14 UNK        -0.5000 
     80 CA         -1.3114  -25.1093  -48.6453 C.3       14 UNK         0.1400 
     81 CB          0.1441  -25.4800  -48.9656 C.3       14 UNK        -0.1800 
     82 C          -2.0271  -24.5855  -49.9067 C.2       14 UNK         0.5000 
     83 O          -2.6478  -25.3682  -50.6255 O.2       14 UNK        -0.5000 
     84 N          -1.9765  -23.2642  -50.1167 N.am      15 UNK        -0.5000 
     85 CA         -2.7179  -22.5290  -51.1396 C.3       15 UNK         0.1400 
     86 CB         -1.9924  -21.2021  -51.4234 C.3       15 UNK        -0.1800 
     87 C          -4.1982  -22.2823  -50.7763 C.2       15 UNK         0.5000 
     88 O          -4.8570  -21.5286  -51.4884 O.2       15 UNK        -0.5000 
     89 N          -4.7063  -22.8986  -49.6977 N.am      16 UNK        -0.5000 
     90 CA         -6.0796  -22.8069  -49.1898 C.3       16 UNK         0.1400 
     91 CB         -7.0881  -23.3983  -50.1973 C.3       16 UNK        -0.1800 
     92 C          -6.4353  -21.3789  -48.7317 C.2       16 UNK         0.5000 
     93 O          -7.4633  -20.8305  -49.1315 O.2       16 UNK        -0.5000 
     94 N          -5.5499  -20.8147  -47.8998 N.am      17 UNK        -0.5000 
     95 CA         -5.5561  -19.4497  -47.3707 C.3       17 UNK         0.1400 
     96 CB         -6.8209  -19.1585  -46.5353 C.3       17 UNK        -0.1800 
     97 C          -5.2823  -18.4137  -48.4783 C.2       17 UNK         0.5000 
     98 O          -6.0294  -17.4455  -48.6275 O.2       17 UNK        -0.5000 
     99 N          -4.1913  -18.6517  -49.2219 N.am      18 UNK        -0.5000 
    100 CA        -3.6556  -17.8248  -50.3096 C.3       18 UNK         0.1400 
    101 CB        -3.1142  -16.4875  -49.7585 C.3       18 UNK        -0.1800 
    102 C         -4.6347  -17.6487  -51.4917 C.2       18 UNK         0.5000 
    103 O         -4.7474  -16.5532  -52.0460 O.2       18 UNK        -0.5000 
    104 N         -5.3175  -18.7379  -51.8612 N.am      19 UNK        -0.5000 
    105 CA        -6.1754  -18.8419  -53.0377 C.3       19 UNK         0.1400 
    106 CB        -7.4233  -19.6632  -52.6597 C.3       19 UNK        -0.1800 
    107 C         -5.3919  -19.4726  -54.2090 C.2       19 UNK         0.5000 
    108 O         -4.1648  -19.5770  -54.1596 O.2       19 UNK        -0.5000 
    109 N         -6.1145  -19.8796  -55.2598 N.am      20 UNK        -0.5000 
    110 CA        -5.5577  -20.4785  -56.4771 C.3       20 UNK         0.1400 
    111 CB        -6.5672  -20.2803  -57.6198 C.3       20 UNK        -0.1800 
    112 C         -5.1871  -21.9712  -56.3369 C.2       20 UNK         0.5000 
    113 O         -4.6268  -22.5384  -57.2766 O.2       20 UNK        -0.5000 
    114 N         -5.5073  -22.5944  -55.1921 N.am      21 UNK        -0.5000 
    115 CA        -5.3511  -24.0314  -54.9296 C.3       21 UNK         0.1400 
    116 CB        -6.0027  -24.3702  -53.5814 C.3       21 UNK        -0.1800 
    117 C         -3.8994  -24.5541  -54.9795 C.2       21 UNK         0.5000 
    118 O         -3.7003  -25.7575  -55.1499 O.2       21 UNK        -0.5000 
    119 N         -2.9186  -23.6517  -54.8600 N.am      22 UNK        -0.5000 
    120 CA        -1.4927  -23.9174  -55.1089 C.3       22 UNK         0.1400 
    121 C         -1.1214  -24.1387  -56.6078 C.2       22 UNK         0.5000 
    122 N         -1.9892  -23.8421  -57.5694 N.am      22 UNK        -0.7600 
    123 O         -0.0237  -24.6037  -56.9026 O.2       22 UNK        -0.5000 
    124 C124       -0.5907  -22.8422  -54.4493 C.3       23 UNK        -0.0398 
    125 S125       -1.0288  -21.1404  -54.9549 S.3       23 UNK        -0.2404 
    126 C126        0.6037  -20.3604  -55.1294 C.3       23 UNK        -0.0205 
    127 H127        0.2005   -9.8013  -49.6466 H         1 UNK         0.0600 
    128 H128        1.8031   -9.3239  -49.0788 H         1 UNK         0.0600 
    129 H129        0.5117   -9.6409  -47.9156 H         1 UNK         0.0600 
    130 H130        0.1429  -11.9184  -50.3085 H         1 UNK         0.3000 
    131 H131        2.2004  -13.7719  -49.9023 H         1 UNK         0.0600 
    132 H132       -0.5861  -14.7073  -50.7348 H         1 UNK         0.0800 
    133 H133        0.2594  -13.5878  -51.7520 H         1 UNK         0.0800 
    134 H134        0.6522  -17.2724  -50.1357 H         1 UNK         0.0800 
    135 H135       -0.5075  -17.0970  -51.4369 H         1 UNK         0.0800 
    136 H136       -0.2905  -18.3765  -53.5048 H         1 UNK         0.1150 
    137 H137        2.8082  -21.3199  -53.8200 H         1 UNK         0.1150 
    138 H138        2.7708  -18.5876  -50.5135 H         1 UNK         0.1150 
    139 H139        4.8473  -20.8896  -52.4799 H         1 UNK         0.0800 
    140 H140        4.8159  -19.8645  -51.0756 H         1 UNK         0.0800 
    141 H141        3.6270  -20.2918  -48.9827 H         1 UNK         0.0800 
    142 H142        4.6856  -21.5298  -48.3769 H         1 UNK         0.0800 
    143 H143        2.5196  -23.0851  -48.5366 H         1 UNK         0.0600 
    144 H144        3.4905  -21.5182  -46.3340 H         1 UNK         0.3000 
    145 H145        1.6295  -23.3748  -43.9037 H         1 UNK         0.0600 
    146 H146        3.9007  -23.8317  -43.0561 H         1 UNK         0.0600 
    147 H147        3.6078  -24.7889  -44.4985 H         1 UNK         0.0600 
    148 H148        4.6144  -23.3488  -44.5953 H         1 UNK         0.0600 
    149 H149        3.5012  -21.4133  -43.3832 H         1 UNK         0.3000 
    150 H150        3.0125  -19.4261  -42.6731 H         1 UNK         0.0600 
    151 H151        2.7213  -18.2121  -44.8701 H         1 UNK         0.0600 
    152 H152        2.3426  -17.2140  -43.4725 H         1 UNK         0.0600 
    153 H153        1.0435  -17.8862  -44.4414 H         1 UNK         0.0600 
    154 H154        0.3269  -18.4442  -42.2348 H         1 UNK         0.3000 
    155 H155       -0.3352  -20.4981  -39.3651 H         1 UNK         0.0600 
    156 H156        0.2220  -17.5136  -39.7737 H         1 UNK         0.0600 
    157 H157       -0.7833  -18.1986  -38.4943 H         1 UNK         0.0600 
    158 H158        0.9358  -18.5540  -38.5518 H         1 UNK         0.0600 
    159 H159       -1.6274  -18.5232  -41.1611 H         1 UNK         0.3000 
    160 H160       -3.7809  -20.8110  -42.6255 H         1 UNK         0.0600 
    161 H161       -4.7083  -19.3411  -40.1002 H         1 UNK         0.0600 
    162 H162       -4.9343  -21.0528  -40.4398 H         1 UNK         0.0600 
    163 H163       -5.7449  -19.8525  -41.4328 H         1 UNK         0.0600 
    164 H164       -3.7311  -17.9340  -41.8828 H         1 UNK         0.3000 
    165 H165       -2.1058  -16.9797  -44.8053 H         1 UNK         0.0600 
    166 H166       -4.1180  -15.5508  -45.3244 H         1 UNK         0.0600 
    167 H167       -4.2878  -17.1889  -45.9138 H         1 UNK         0.0600 
    168 H168       -5.1372  -16.6939  -44.4534 H         1 UNK         0.0600 
    169 H169       -3.4746  -15.3295  -43.0135 H         1 UNK         0.3000 
    170 H170       -2.1678  -14.0197  -41.7302 H         1 UNK         0.0600 
    171 H171       -1.5806  -15.9911  -39.4351 H         1 UNK         0.0600 
    172 H172       -2.2059  -14.3553  -39.2673 H         1 UNK         0.0600 
    173 H173       -3.1975  -15.5972  -40.0014 H         1 UNK         0.0600 
    174 H174        0.3906  -15.0900  -41.8349 H         1 UNK         0.3000 
    175 H175        2.1138  -12.2668  -40.4633 H         1 UNK         0.0600 
    176 H176        3.6890  -14.0803  -39.8579 H         1 UNK         0.0600 
    177 H177        2.4303  -15.2947  -40.0878 H         1 UNK         0.0600 
    178 H178        2.2954  -14.1153  -38.7895 H         1 UNK         0.0600 
    179 H179        2.8682  -14.3268  -42.3128 H         1 UNK         0.3000 
    180 H180        3.0745  -12.1896  -44.9658 H         1 UNK         0.0600 
    181 H181        3.2630  -15.1469  -44.1652 H         1 UNK         0.0600 
    182 H182        4.5057  -13.9280  -43.8880 H         1 UNK         0.0600 
    183 H183        4.0643  -14.3770  -45.5248 H         1 UNK         0.0600 
    184 H184        1.4755  -12.8724  -46.3209 H         1 UNK         0.3000 
    185 H185       -0.7509  -15.5739  -46.4585 H         1 UNK         0.0600 
    186 H186       -2.1075  -14.1110  -44.9100 H         1 UNK         0.0600 
    187 H187       -1.6481  -12.7041  -45.8516 H         1 UNK         0.0600 
    188 H188       -2.6283  -13.9755  -46.5832 H         1 UNK         0.0600 
    189 H189       -0.6058  -13.1468  -47.9689 H         1 UNK         0.3000 
    190 H190        1.3746  -20.1396  -46.9289 H         1 UNK         0.3000 
    191 H191       -0.6733  -19.5001  -48.8642 H         1 UNK         0.0600 
    192 H192        0.2339  -17.8125  -47.2467 H         1 UNK         0.0600 
    193 H193       -1.5137  -17.9814  -47.1273 H         1 UNK         0.0600 
    194 H194       -0.4859  -18.7196  -45.9144 H         1 UNK         0.0600 
    195 H195       -0.5543  -21.3786  -45.8040 H         1 UNK         0.3000 
    196 H196       -3.2725  -22.1402  -45.7273 H         1 UNK         0.0600 
    197 H197       -2.4869  -23.8815  -44.1373 H         1 UNK         0.0600 
    198 H198       -1.7291  -22.3324  -43.7957 H         1 UNK         0.0600 
    199 H199       -0.8177  -23.5975  -44.6152 H         1 UNK         0.0600 
    200 H200       -0.4428  -23.8047  -47.2109 H         1 UNK         0.3000 
    201 H201       -1.8309  -26.0136  -48.3219 H         1 UNK         0.0600 
    202 H202        0.6432  -25.9085  -48.0963 H         1 UNK         0.0600 
    203 H203        0.7182  -24.6111  -49.2876 H         1 UNK         0.0600 
    204 H204        0.1917  -26.2195  -49.7659 H         1 UNK         0.0600 
    205 H205       -1.3847  -22.7050  -49.5128 H         1 UNK         0.3000 
    206 H206       -2.7156  -23.1188  -52.0570 H         1 UNK         0.0600 
    207 H207       -0.9480  -21.3615  -51.6898 H         1 UNK         0.0600 
    208 H208       -2.4571  -20.6647  -52.2506 H         1 UNK         0.0600 
    209 H209       -2.0066  -20.5447  -50.5583 H         1 UNK         0.0600 
    210 H210       -4.0821  -23.4645  -49.1355 H         1 UNK         0.3000 
    211 H211       -6.1140  -23.4305  -48.2954 H         1 UNK         0.0600 
    212 H212       -7.1605  -22.7980  -51.1041 H         1 UNK         0.0600 
    213 H213       -8.0867  -23.4487  -49.7622 H         1 UNK         0.0600 
    214 H214       -6.8085  -24.4113  -50.4862 H         1 UNK         0.0600 
    215 H215       -4.6902  -21.3224  -47.7276 H         1 UNK         0.3000 
    216 H216       -4.7059  -19.3981  -46.6897 H         1 UNK         0.0600 
    217 H217       -6.7430  -18.1899  -46.0406 H         1 UNK         0.0600 
    218 H218       -6.9602  -19.9092  -45.7576 H         1 UNK         0.0600 
    219 H219       -7.7222  -19.1358  -47.1478 H         1 UNK         0.0600 
    220 H220       -3.6592  -19.4884  -48.9959 H         1 UNK         0.3000 
    221 H221       -2.8030  -18.3676  -50.7170 H         1 UNK         0.0600 
    222 H222       -3.9059  -15.8773  -49.3232 H         1 UNK         0.0600 
    223 H223       -2.3566  -16.6510  -48.9927 H         1 UNK         0.0600 
    224 H224       -2.6503  -15.8991  -50.5499 H         1 UNK         0.0600 
    225 H225       -5.1103  -19.6278  -51.4168 H         1 UNK         0.3000 
    226 H226       -6.5021  -17.8492  -53.3530 H         1 UNK         0.0600 
    227 H227       -7.8935  -19.2686  -51.7584 H         1 UNK         0.0600 
    228 H228       -8.1754  -19.6357  -53.4483 H         1 UNK         0.0600 
    229 H229       -7.1799  -20.7089  -52.4710 H         1 UNK         0.0600 
    230 H230       -7.1178  -19.7683  -55.2355 H         1 UNK         0.3000 
    231 H231       -4.6413  -19.9463  -56.7412 H         1 UNK         0.0600 
    232 H232       -7.5075  -20.7955  -57.4197 H         1 UNK         0.0600 
    233 H233       -6.1759  -20.6660  -58.5622 H         1 UNK         0.0600 
    234 H234       -6.7880  -19.2237  -57.7725 H         1 UNK         0.0600 
    235 H235       -5.9339  -22.0468  -54.4594 H         1 UNK         0.3000 
    236 H236       -5.9025  -24.5601  -55.7097 H         1 UNK         0.0600 
    237 H237       -7.0465  -24.0571  -53.5522 H         1 UNK         0.0600 
    238 H238       -5.9809  -25.4447  -53.3951 H         1 UNK         0.0600 
    239 H239       -5.4825  -23.8881  -52.7562 H         1 UNK         0.0600 
    240 H240       -3.1685  -22.6792  -54.7478 H         1 UNK         0.3000 
    241 H241       -1.2585  -24.8629  -54.6158 H         1 UNK         0.0600 
    242 H242       -2.8963  -23.4377  -57.3569 H         1 UNK         0.3800 
    243 H243       -1.7312  -23.9983  -58.5306 H         1 UNK         0.3800 
    244 H244       -0.6750  -22.9124  -53.3663 H         1 UNK         0.0800 
    245 H245        0.4609  -23.0380  -54.6652 H         1 UNK         0.0800 
    246 H246        1.2848  -21.0344  -55.6512 H         1 UNK         0.0800 
    247 H247        0.4991  -19.4843  -55.7708 H         1 UNK         0.0800 
@<TRIPOS>BOND
     1    1    2 1    
     2    1  127 1    
     3    1  128 1    
     4    1  129 1    
     5    2    3 2    
     6    2    4 am   BACKBONE|DICT|INTERRES
     7    4    5 1    
     8    4  130 1    
     9    5    6 1    
    10    5   65 1    
    11    5  131 1    
    12    6    7 1    
    13    6  132 1    
    14    6  133 1    
    15    7    8 1    
    16    8    9 1    
    17    8  134 1    
    18    8  135 1    
    19    9   10 ar   
    20    9   14 ar   
    21   10   11 ar   
    22   10  136 1    
    23   11   12 ar   
    24   11  126 1    
    25   12   13 ar   
    26   12  137 1    
    27   13   14 ar   
    28   13   15 1    
    29   14  138 1    
    30   15   16 1    
    31   15  139 1    
    32   15  140 1    
    33   16   17 1    
    34   17   18 1    
    35   17  141 1    
    36   17  142 1    
    37   18   19 1    
    38   18   67 1    
    39   18  143 1    
    40   19   20 am   BACKBONE|DICT|INTERRES
    41   19  144 1    
    42   20   21 2    
    43   20   22 1    
    44   22   23 1    
    45   22   24 1    
    46   22  145 1    
    47   23  146 1    
    48   23  147 1    
    49   23  148 1    
    50   24   25 am   BACKBONE|DICT|INTERRES
    51   24  149 1    
    52   25   26 2    
    53   25   27 1    
    54   27   28 1    
    55   27   29 1    
    56   27  150 1    
    57   28  151 1    
    58   28  152 1    
    59   28  153 1    
    60   29   30 am   BACKBONE|DICT|INTERRES
    61   29  154 1    
    62   30   31 2    
    63   30   32 1    
    64   32   33 1    
    65   32   34 1    
    66   32  155 1    
    67   33  156 1    
    68   33  157 1    
    69   33  158 1    
    70   34   35 am   BACKBONE|DICT|INTERRES
    71   34  159 1    
    72   35   36 2    
    73   35   37 1    
    74   37   38 1    
    75   37   39 1    
    76   37  160 1    
    77   38  161 1    
    78   38  162 1    
    79   38  163 1    
    80   39   40 am   BACKBONE|DICT|INTERRES
    81   39  164 1    
    82   40   41 2    
    83   40   42 1    
    84   42   43 1    
    85   42   44 1    
    86   42  165 1    
    87   43  166 1    
    88   43  167 1    
    89   43  168 1    
    90   44   45 am   BACKBONE|DICT|INTERRES
    91   44  169 1    
    92   45   46 2    
    93   45   47 1    
    94   47   48 1    
    95   47   49 1    
    96   47  170 1    
    97   48  171 1    
    98   48  172 1    
    99   48  173 1    
   100   49   50 am   BACKBONE|DICT|INTERRES
   101   49  174 1    
   102   50   51 2    
   103   50   52 1    
   104   52   53 1    
   105   52   54 1    
   106   52  175 1    
   107   53  176 1    
   108   53  177 1    
   109   53  178 1    
   110   54   55 am   BACKBONE|DICT|INTERRES
   111   54  179 1    
   112   55   56 2    
   113   55   57 1    
   114   57   58 1    
   115   57   59 1    
   116   57  180 1    
   117   58  181 1    
   118   58  182 1    
   119   58  183 1    
   120   59   60 am   BACKBONE|DICT|INTERRES
   121   59  184 1    
   122   60   61 2    
   123   60   62 1    
   124   62   63 1    
   125   62   64 1    
   126   62  185 1    
   127   63  186 1    
   128   63  187 1    
   129   63  188 1    
   130   64   65 am   BACKBONE|DICT|INTERRES
   131   64  189 1    
   132   65   66 2    
   133   67   68 2    
   134   67   69 am   BACKBONE|DICT|INTERRES
   135   69   70 1    
   136   69  190 1    
   137   70   71 1    
   138   70   72 1    
   139   70  191 1    
   140   71  192 1    
   141   71  193 1    
   142   71  194 1    
   143   72   73 2    
   144   72   74 am   BACKBONE|DICT|INTERRES
   145   74   75 1    
   146   74  195 1    
   147   75   76 1    
   148   75   77 1    
   149   75  196 1    
   150   76  197 1    
   151   76  198 1    
   152   76  199 1    
   153   77   78 2    
   154   77   79 am   BACKBONE|DICT|INTERRES
   155   79   80 1    
   156   79  200 1    
   157   80   81 1    
   158   80   82 1    
   159   80  201 1    
   160   81  202 1    
   161   81  203 1    
   162   81  204 1    
   163   82   83 2    
   164   82   84 am   BACKBONE|DICT|INTERRES
   165   84   85 1    
   166   84  205 1    
   167   85   86 1    
   168   85   87 1    
   169   85  206 1    
   170   86  207 1    
   171   86  208 1    
   172   86  209 1    
   173   87   88 2    
   174   87   89 am   BACKBONE|DICT|INTERRES
   175   89   90 1    
   176   89  210 1    
   177   90   91 1    
   178   90   92 1    
   179   90  211 1    
   180   91  212 1    
   181   91  213 1    
   182   91  214 1    
   183   92   93 2    
   184   92   94 am   BACKBONE|DICT|INTERRES
   185   94   95 1    
   186   94  215 1    
   187   95   96 1    
   188   95   97 1    
   189   95  216 1    
   190   96  217 1    
   191   96  218 1    
   192   96  219 1    
   193   97   98 2    
   194   97   99 am   BACKBONE|DICT|INTERRES
   195   99  100 1    
   196   99  220 1    
   197  100  101 1    
   198  100  102 1    
   199  100  221 1    
   200  101  222 1    
   201  101  223 1    
   202  101  224 1    
   203  102  103 2    
   204  102  104 am   BACKBONE|DICT|INTERRES
   205  104  105 1    
   206  104  225 1    
   207  105  106 1    
   208  105  107 1    
   209  105  226 1    
   210  106  227 1    
   211  106  228 1    
   212  106  229 1    
   213  107  108 2    
   214  107  109 am   BACKBONE|DICT|INTERRES
   215  109  110 1    
   216  109  230 1    
   217  110  111 1    
   218  110  112 1    
   219  110  231 1    
   220  111  232 1    
   221  111  233 1    
   222  111  234 1    
   223  112  113 2    
   224  112  114 am   BACKBONE|DICT|INTERRES
   225  114  115 1    
   226  114  235 1    
   227  115  116 1    
   228  115  117 1    
   229  115  236 1    
   230  116  237 1    
   231  116  238 1    
   232  116  239 1    
   233  117  118 2    
   234  117  119 am   BACKBONE|DICT|INTERRES
   235  119  120 1    
   236  119  240 1    
   237  120  121 1    
   238  120  124 1    
   239  120  241 1    
   240  121  122 am   BACKBONE|DICT|INTERRES
   241  121  123 2    
   242  122  242 1    
   243  122  243 1    
   244  124  125 1    
   245  124  244 1    
   246  124  245 1    
   247  125  126 1    
   248  126  246 1    
   249  126  247 1    
@<TRIPOS>SUBSTRUCTURE
     1 UNK         1 GROUP             0       ****    0 ROOT    
