@<TRIPOS>MOLECULE
3R540
247   249    1
SMALL
USER_CHARGES


@<TRIPOS>ATOM
      1 CA          3.3828  -12.8980  -43.5659 C.3       0 UNK        -0.1800 
      2 C           2.1737  -12.0899  -44.0092 C.2       0 UNK         0.5000 
      3 O           2.2605  -10.8658  -44.1079 O.2       0 UNK        -0.5000 
      4 N           1.0456  -12.7630  -44.2675 N.am      1 UNK        -0.5000 
      5 CA         -0.2078  -12.1422  -44.7180 C.3       1 UNK         0.1400 
      6 C6         -1.4496  -12.9487  -44.2612 C.3       23 UNK        -0.0398 
      7 S7         -1.5053  -14.6688  -44.8737 S.3       23 UNK        -0.2404 
      8 C8         -2.7353  -14.5177  -46.2098 C.3       23 UNK        -0.0205 
      9 C9         -2.9899  -15.8544  -46.8879 C.ar      23 UNK        -0.0193 
     10 C10        -4.2360  -16.4785  -46.7842 C.ar      23 UNK        -0.1150 
     11 C11        -4.4641  -17.7171  -47.3915 C.ar      23 UNK        -0.0193 
     12 C12        -3.4273  -18.3405  -48.0927 C.ar      23 UNK        -0.1150 
     13 C13        -2.1748  -17.7264  -48.2022 C.ar      23 UNK        -0.0193 
     14 C14        -1.9723  -16.4731  -47.6171 C.ar      23 UNK        -0.1150 
     15 C15        -1.0356  -18.4336  -48.9271 C.3       23 UNK        -0.0205 
     16 S16         0.5101  -18.5204  -47.9587 S.3       23 UNK        -0.2404 
     17 C17        -0.0570  -19.2030  -46.3643 C.3       23 UNK        -0.0398 
     18 CA          0.1186  -20.7330  -46.2488 C.3       11 UNK         0.1400 
     19 N           0.1123  -21.1535  -44.8508 N.am      11 UNK        -0.5000 
     20 C           0.3719  -22.3865  -44.4014 C.2       10 UNK         0.5000 
     21 O           0.7152  -23.3243  -45.1207 O.2       10 UNK        -0.5000 
     22 CA          0.1590  -22.6108  -42.8953 C.3       10 UNK         0.1400 
     23 CB          1.3782  -22.1374  -42.0892 C.3       10 UNK        -0.1800 
     24 N          -1.0410  -21.9271  -42.4096 N.am      10 UNK        -0.5000 
     25 C          -2.2939  -22.3007  -42.7022 C.2       9 UNK         0.5000 
     26 O          -2.5695  -23.2824  -43.3927 O.2       9 UNK        -0.5000 
     27 CA         -3.4250  -21.4107  -42.1522 C.3       9 UNK         0.1400 
     28 CB         -3.6981  -21.7303  -40.6748 C.3       9 UNK        -0.1800 
     29 N          -3.1522  -19.9783  -42.2975 N.am      9 UNK        -0.5000 
     30 C          -3.0943  -19.3432  -43.4761 C.2       8 UNK         0.5000 
     31 O          -3.2494  -19.9023  -44.5585 O.2       8 UNK        -0.5000 
     32 CA         -2.7630  -17.8403  -43.4540 C.3       8 UNK         0.1400 
     33 CB         -4.0261  -17.0174  -43.1578 C.3       8 UNK        -0.1800 
     34 N          -1.6936  -17.4467  -42.5288 N.am      8 UNK        -0.5000 
     35 C          -0.4788  -18.0064  -42.4607 C.2       7 UNK         0.5000 
     36 O          -0.1665  -19.0444  -43.0477 O.2       7 UNK        -0.5000 
     37 CA          0.5597  -17.3083  -41.5641 C.3       7 UNK         0.1400 
     38 CB          0.3659  -17.7245  -40.0980 C.3       7 UNK        -0.1800 
     39 N           1.9171  -17.6646  -41.9795 N.am      7 UNK        -0.5000 
     40 C           2.4919  -17.2534  -43.1167 C.2       6 UNK         0.5000 
     41 O           2.0188  -16.3840  -43.8530 O.2       6 UNK        -0.5000 
     42 CA          3.7804  -17.9954  -43.5193 C.3       6 UNK         0.1400 
     43 CB          3.4384  -19.2183  -44.3873 C.3       6 UNK        -0.1800 
     44 N           4.7106  -17.1489  -44.2612 N.am      6 UNK        -0.5000 
     45 C           5.3764  -16.0998  -43.7618 C.2       5 UNK         0.5000 
     46 O           5.3195  -15.7567  -42.5802 O.2       5 UNK        -0.5000 
     47 CA          6.2810  -15.3144  -44.7354 C.3       5 UNK         0.1400 
     48 CB          7.7629  -15.5608  -44.4099 C.3       5 UNK        -0.1800 
     49 N           6.0507  -15.6450  -46.1456 N.am      5 UNK        -0.5000 
     50 C           5.0152  -15.2049  -46.8706 C.2       4 UNK         0.5000 
     51 O           4.1325  -14.4654  -46.4313 O.2       4 UNK        -0.5000 
     52 CA          4.9309  -15.7235  -48.3168 C.3       4 UNK         0.1400 
     53 CB          4.0519  -16.9824  -48.3773 C.3       4 UNK        -0.1800 
     54 N           4.3623  -14.7084  -49.1981 N.am      4 UNK        -0.5000 
     55 C           5.0174  -13.6281  -49.6446 C.2       3 UNK         0.5000 
     56 O           6.2228  -13.4391  -49.4754 O.2       3 UNK        -0.5000 
     57 CA          4.1785  -12.5750  -50.3974 C.3       3 UNK         0.1400 
     58 CB          4.2329  -12.8229  -51.9127 C.3       3 UNK        -0.1800 
     59 N           2.7781  -12.5535  -49.9635 N.am      3 UNK        -0.5000 
     60 C           2.3654  -12.1233  -48.7631 C.2       2 UNK         0.5000 
     61 O           3.1164  -11.5961  -47.9392 O.2       2 UNK        -0.5000 
     62 CA          0.8747  -12.3111  -48.4274 C.3       2 UNK         0.1400 
     63 CB          0.2393  -13.5449  -49.1025 C.3       2 UNK        -0.1800 
     64 N           0.7263  -12.4334  -46.9810 N.am      2 UNK        -0.5000 
     65 C          -0.2302  -11.8647  -46.2391 C.2       1 UNK         0.5000 
     66 O          -1.1211  -11.1536  -46.7070 O.2       1 UNK        -0.5000 
     67 C          -0.9360  -21.5045  -47.0684 C.2       11 UNK         0.5000 
     68 O          -0.6035  -22.0382  -48.1261 O.2       11 UNK        -0.5000 
     69 N          -2.1678  -21.6046  -46.5437 N.am      12 UNK        -0.5000 
     70 CA         -3.2591  -22.3849  -47.1267 C.3       12 UNK         0.1400 
     71 CB         -4.5464  -22.1993  -46.3114 C.3       12 UNK        -0.1800 
     72 C          -2.9242  -23.8783  -47.2409 C.2       12 UNK         0.5000 
     73 O          -3.1914  -24.4662  -48.2859 O.2       12 UNK        -0.5000 
     74 N          -2.3186  -24.4548  -46.1934 N.am      13 UNK        -0.5000 
     75 CA         -1.8634  -25.8456  -46.1740 C.3       13 UNK         0.1400 
     76 CB         -1.3879  -26.2169  -44.7613 C.3       13 UNK        -0.1800 
     77 C          -0.7687  -26.1312  -47.2200 C.2       13 UNK         0.5000 
     78 O          -0.8322  -27.1589  -47.8951 O.2       13 UNK        -0.5000 
     79 N           0.1909  -25.2059  -47.3594 N.am      14 UNK        -0.5000 
     80 CA          1.2707  -25.2710  -48.3453 C.3       14 UNK         0.1400 
     81 CB          2.3288  -24.2078  -48.0113 C.3       14 UNK        -0.1800 
     82 C           0.7718  -25.1095  -49.7943 C.2       14 UNK         0.5000 
     83 O           1.2096  -25.8498  -50.6757 O.2       14 UNK        -0.5000 
     84 N          -0.1386  -24.1522  -50.0119 N.am      15 UNK        -0.5000 
     85 CA         -0.7190  -23.8259  -51.3166 C.3       15 UNK         0.1400 
     86 CB         -1.2540  -22.3859  -51.2542 C.3       15 UNK        -0.1800 
     87 C          -1.8474  -24.7784  -51.7585 C.2       15 UNK         0.5000 
     88 O          -2.2949  -24.6856  -52.9033 O.2       15 UNK        -0.5000 
     89 N          -2.3429  -25.6113  -50.8299 N.am      16 UNK        -0.5000 
     90 CA         -3.5734  -26.4100  -50.9211 C.3       16 UNK         0.1400 
     91 CB         -3.4126  -27.5489  -51.9484 C.3       16 UNK        -0.1800 
     92 C          -4.8156  -25.5274  -51.1862 C.2       16 UNK         0.5000 
     93 O          -5.7284  -25.9352  -51.9069 O.2       16 UNK        -0.5000 
     94 N          -4.7805  -24.3015  -50.6399 N.am      17 UNK        -0.5000 
     95 CA         -5.6552  -23.1383  -50.8322 C.3       17 UNK         0.1400 
     96 CB         -7.0682  -23.4204  -50.2954 C.3       17 UNK        -0.1800 
     97 C          -5.7050  -22.5938  -52.2766 C.2       17 UNK         0.5000 
     98 O          -5.6493  -21.3775  -52.4684 O.2       17 UNK        -0.5000 
     99 N          -5.8095  -23.4946  -53.2593 N.am      18 UNK        -0.5000 
    100 CA        -6.0021  -23.2294  -54.6818 C.3       18 UNK         0.1400 
    101 CB        -6.1827  -24.5640  -55.4202 C.3       18 UNK        -0.1800 
    102 C         -4.8831  -22.4009  -55.3312 C.2       18 UNK         0.5000 
    103 O         -5.1904  -21.4739  -56.0808 O.2       18 UNK        -0.5000 
    104 N         -3.6142  -22.7107  -55.0213 N.am      19 UNK        -0.5000 
    105 CA        -2.4548  -22.0166  -55.5994 C.3       19 UNK         0.1400 
    106 CB        -1.1770  -22.8308  -55.3475 C.3       19 UNK        -0.1800 
    107 C         -2.2924  -20.5697  -55.0918 C.2       19 UNK         0.5000 
    108 O         -1.6629  -19.7562  -55.7685 O.2       19 UNK        -0.5000 
    109 N         -2.8811  -20.2734  -53.9266 N.am      20 UNK        -0.5000 
    110 CA        -2.9460  -18.9397  -53.3318 C.3       20 UNK         0.1400 
    111 CB        -2.8887  -19.0953  -51.8045 C.3       20 UNK        -0.1800 
    112 C         -4.2192  -18.1746  -53.7416 C.2       20 UNK         0.5000 
    113 O         -4.3380  -16.9953  -53.4083 O.2       20 UNK        -0.5000 
    114 N         -5.1586  -18.8612  -54.4136 N.am      21 UNK        -0.5000 
    115 CA        -6.5244  -18.4275  -54.7294 C.3       21 UNK         0.1400 
    116 CB        -6.5158  -17.2662  -55.7449 C.3       21 UNK        -0.1800 
    117 C         -7.3563  -18.1241  -53.4621 C.2       21 UNK         0.5000 
    118 O         -8.2154  -17.2406  -53.4810 O.2       21 UNK        -0.5000 
    119 N         -7.0739  -18.8639  -52.3819 N.am      22 UNK        -0.5000 
    120 CA        -7.6869  -18.7167  -51.0537 C.3       22 UNK         0.1400 
    121 C         -8.8566  -19.7160  -50.7991 C.2       22 UNK         0.5000 
    122 N         -9.2108  -20.5797  -51.7439 N.am      22 UNK        -0.7600 
    123 O         -9.4715  -19.7010  -49.7371 O.2       22 UNK        -0.5000 
    124 C124       -6.5953  -18.7694  -49.9478 C.3       23 UNK        -0.0398 
    125 S125       -7.0170  -17.7635  -48.4833 S.3       23 UNK        -0.2404 
    126 C126       -5.8241  -18.3864  -47.2589 C.3       23 UNK        -0.0205 
    127 H127        3.1946  -13.9691  -43.6303 H         1 UNK         0.0600 
    128 H128        4.2380  -12.6662  -44.2002 H         1 UNK         0.0600 
    129 H129        3.6434  -12.6576  -42.5355 H         1 UNK         0.0600 
    130 H130        1.0308  -13.7719  -44.1853 H         1 UNK         0.3000 
    131 H131       -0.2871  -11.1637  -44.2392 H         1 UNK         0.0600 
    132 H132       -2.3674  -12.4275  -44.5389 H         1 UNK         0.0800 
    133 H133       -1.4651  -12.9910  -43.1714 H         1 UNK         0.0800 
    134 H134       -3.6624  -14.1153  -45.7988 H         1 UNK         0.0800 
    135 H135       -2.3878  -13.8005  -46.9535 H         1 UNK         0.0800 
    136 H136       -5.0316  -16.0033  -46.2278 H         1 UNK         0.1150 
    137 H137       -3.5937  -19.3085  -48.5433 H         1 UNK         0.1150 
    138 H138       -1.0058  -15.9952  -47.6928 H         1 UNK         0.1150 
    139 H139       -1.3261  -19.4487  -49.1999 H         1 UNK         0.0800 
    140 H140       -0.8318  -17.9069  -49.8598 H         1 UNK         0.0800 
    141 H141        0.5498  -18.7086  -45.6048 H         1 UNK         0.0800 
    142 H142       -1.0814  -18.9062  -46.1402 H         1 UNK         0.0800 
    143 H143        1.1013  -20.9951  -46.6468 H         1 UNK         0.0600 
    144 H144       -0.1275  -20.4359  -44.1683 H         1 UNK         0.3000 
    145 H145        0.0373  -23.6837  -42.7317 H         1 UNK         0.0600 
    146 H146        1.2745  -22.3943  -41.0349 H         1 UNK         0.0600 
    147 H147        2.2932  -22.6088  -42.4502 H         1 UNK         0.0600 
    148 H148        1.5143  -21.0580  -42.1568 H         1 UNK         0.0600 
    149 H149       -0.8990  -21.0650  -41.9035 H         1 UNK         0.3000 
    150 H150       -4.3292  -21.6405  -42.7201 H         1 UNK         0.0600 
    151 H151       -3.9187  -22.7900  -40.5394 H         1 UNK         0.0600 
    152 H152       -4.5568  -21.1710  -40.3030 H         1 UNK         0.0600 
    153 H153       -2.8416  -21.4899  -40.0437 H         1 UNK         0.0600 
    154 H154       -2.9931  -19.4491  -41.4531 H         1 UNK         0.3000 
    155 H155       -2.4219  -17.5796  -44.4576 H         1 UNK         0.0600 
    156 H156       -3.8416  -15.9505  -43.2825 H         1 UNK         0.0600 
    157 H157       -4.3845  -17.1808  -42.1409 H         1 UNK         0.0600 
    158 H158       -4.8350  -17.2852  -43.8391 H         1 UNK         0.0600 
    159 H159       -1.8659  -16.6082  -41.9940 H         1 UNK         0.3000 
    160 H160        0.4349  -16.2269  -41.6518 H         1 UNK         0.0600 
    161 H161        1.0928  -17.2344  -39.4500 H         1 UNK         0.0600 
    162 H162        0.4726  -18.8024  -39.9673 H         1 UNK         0.0600 
    163 H163       -0.6258  -17.4471  -39.7385 H         1 UNK         0.0600 
    164 H164        2.3576  -18.4050  -41.4545 H         1 UNK         0.3000 
    165 H165        4.2840  -18.3391  -42.6133 H         1 UNK         0.0600 
    166 H166        4.3271  -19.8119  -44.6022 H         1 UNK         0.0600 
    167 H167        2.7256  -19.8727  -43.8851 H         1 UNK         0.0600 
    168 H168        2.9942  -18.9235  -45.3389 H         1 UNK         0.0600 
    169 H169        4.7964  -17.3334  -45.2481 H         1 UNK         0.3000 
    170 H170        6.0747  -14.2526  -44.5879 H         1 UNK         0.0600 
    171 H171        7.9880  -15.2888  -43.3777 H         1 UNK         0.0600 
    172 H172        8.0348  -16.6091  -44.5394 H         1 UNK         0.0600 
    173 H173        8.4123  -14.9628  -45.0495 H         1 UNK         0.0600 
    174 H174        6.7304  -16.2547  -46.5778 H         1 UNK         0.3000 
    175 H175        5.9330  -15.9769  -48.6696 H         1 UNK         0.0600 
    176 H176        3.0420  -16.7827  -48.0166 H         1 UNK         0.0600 
    177 H177        3.9745  -17.3635  -49.3957 H         1 UNK         0.0600 
    178 H178        4.4665  -17.7823  -47.7627 H         1 UNK         0.0600 
    179 H179        3.3669  -14.7562  -49.3507 H         1 UNK         0.3000 
    180 H180        4.6171  -11.5954  -50.1955 H         1 UNK         0.0600 
    181 H181        3.7948  -13.7854  -52.1801 H         1 UNK         0.0600 
    182 H182        5.2630  -12.8203  -52.2714 H         1 UNK         0.0600 
    183 H183        3.6981  -12.0459  -52.4593 H         1 UNK         0.0600 
    184 H184        2.1018  -12.9522  -50.5984 H         1 UNK         0.3000 
    185 H185        0.3627  -11.4140  -48.7809 H         1 UNK         0.0600 
    186 H186        0.2419  -13.4569  -50.1891 H         1 UNK         0.0600 
    187 H187        0.7635  -14.4640  -48.8370 H         1 UNK         0.0600 
    188 H188       -0.8019  -13.6608  -48.8026 H         1 UNK         0.0600 
    189 H189        1.4679  -12.9331  -46.5081 H         1 UNK         0.3000 
    190 H190       -2.3920  -21.0946  -45.6922 H         1 UNK         0.3000 
    191 H191       -3.4340  -22.0014  -48.1338 H         1 UNK         0.0600 
    192 H192       -5.3815  -22.7276  -46.7733 H         1 UNK         0.0600 
    193 H193       -4.8240  -21.1506  -46.2416 H         1 UNK         0.0600 
    194 H194       -4.4386  -22.5777  -45.2947 H         1 UNK         0.0600 
    195 H195       -2.1718  -23.9117  -45.3495 H         1 UNK         0.3000 
    196 H196       -2.7217  -26.4759  -46.4158 H         1 UNK         0.0600 
    197 H197       -1.0756  -27.2609  -44.7168 H         1 UNK         0.0600 
    198 H198       -2.1854  -26.0842  -44.0300 H         1 UNK         0.0600 
    199 H199       -0.5413  -25.6076  -44.4456 H         1 UNK         0.0600 
    200 H200        0.1936  -24.4072  -46.7322 H         1 UNK         0.3000 
    201 H201        1.7418  -26.2528  -48.2637 H         1 UNK         0.0600 
    202 H202        2.7431  -24.3647  -47.0152 H         1 UNK         0.0600 
    203 H203        1.9130  -23.2002  -48.0435 H         1 UNK         0.0600 
    204 H204        3.1578  -24.2448  -48.7190 H         1 UNK         0.0600 
    205 H205       -0.4025  -23.5452  -49.2385 H         1 UNK         0.3000 
    206 H206        0.0652  -23.8702  -52.0749 H         1 UNK         0.0600 
    207 H207       -0.4603  -21.6800  -51.0089 H         1 UNK         0.0600 
    208 H208       -1.6761  -22.0791  -52.2094 H         1 UNK         0.0600 
    209 H209       -2.0387  -22.2806  -50.5038 H         1 UNK         0.0600 
    210 H210       -1.9367  -25.5579  -49.9047 H         1 UNK         0.3000 
    211 H211       -3.7206  -26.8618  -49.9392 H         1 UNK         0.0600 
    212 H212       -3.3281  -27.1685  -52.9668 H         1 UNK         0.0600 
    213 H213       -4.2698  -28.2225  -51.9217 H         1 UNK         0.0600 
    214 H214       -2.5249  -28.1454  -51.7383 H         1 UNK         0.0600 
    215 H215       -4.0083  -24.1481  -49.9978 H         1 UNK         0.3000 
    216 H216       -5.2250  -22.3448  -50.2192 H         1 UNK         0.0600 
    217 H217       -7.5769  -24.1928  -50.8729 H         1 UNK         0.0600 
    218 H218       -7.6855  -22.5233  -50.3337 H         1 UNK         0.0600 
    219 H219       -7.0354  -23.7458  -49.2556 H         1 UNK         0.0600 
    220 H220       -5.8343  -24.4713  -52.9745 H         1 UNK         0.3000 
    221 H221       -6.9284  -22.6599  -54.7803 H         1 UNK         0.0600 
    222 H222       -5.3064  -25.2047  -55.3115 H         1 UNK         0.0600 
    223 H223       -7.0453  -25.1111  -55.0392 H         1 UNK         0.0600 
    224 H224       -6.3448  -24.4041  -56.4870 H         1 UNK         0.0600 
    225 H225       -3.4224  -23.4710  -54.3778 H         1 UNK         0.3000 
    226 H226       -2.6037  -21.9641  -56.6802 H         1 UNK         0.0600 
    227 H227       -1.2865  -23.8588  -55.6932 H         1 UNK         0.0600 
    228 H228       -0.3301  -22.3969  -55.8805 H         1 UNK         0.0600 
    229 H229       -0.9136  -22.8576  -54.2916 H         1 UNK         0.0600 
    230 H230       -3.4042  -20.9990  -53.4566 H         1 UNK         0.3000 
    231 H231       -2.0864  -18.3455  -53.6487 H         1 UNK         0.0600 
    232 H232       -3.7097  -19.7048  -51.4259 H         1 UNK         0.0600 
    233 H233       -2.9431  -18.1261  -51.3071 H         1 UNK         0.0600 
    234 H234       -1.9543  -19.5651  -51.5019 H         1 UNK         0.0600 
    235 H235       -4.9484  -19.8174  -54.6704 H         1 UNK         0.3000 
    236 H236       -7.0073  -19.2796  -55.2096 H         1 UNK         0.0600 
    237 H237       -5.9190  -17.5155  -56.6223 H         1 UNK         0.0600 
    238 H238       -7.5252  -17.0444  -56.0929 H         1 UNK         0.0600 
    239 H239       -6.1118  -16.3504  -55.3127 H         1 UNK         0.0600 
    240 H240       -6.4018  -19.6213  -52.4733 H         1 UNK         0.3000 
    241 H241       -8.1454  -17.7272  -51.0108 H         1 UNK         0.0600 
    242 H242       -8.7292  -20.5958  -52.6278 H         1 UNK         0.3800 
    243 H243       -9.9789  -21.2101  -51.5764 H         1 UNK         0.3800 
    244 H244       -6.3861  -19.7994  -49.6541 H         1 UNK         0.0800 
    245 H245       -5.6540  -18.3705  -50.3296 H         1 UNK         0.0800 
    246 H246       -5.7357  -19.4667  -47.3598 H         1 UNK         0.0800 
    247 H247       -6.2190  -18.2074  -46.2578 H         1 UNK         0.0800 
@<TRIPOS>BOND
     1    1    2 1    
     2    1  127 1    
     3    1  128 1    
     4    1  129 1    
     5    2    3 2    
     6    2    4 am   BACKBONE|DICT|INTERRES
     7    4    5 1    
     8    4  130 1    
     9    5    6 1    
    10    5   65 1    
    11    5  131 1    
    12    6    7 1    
    13    6  132 1    
    14    6  133 1    
    15    7    8 1    
    16    8    9 1    
    17    8  134 1    
    18    8  135 1    
    19    9   10 ar   
    20    9   14 ar   
    21   10   11 ar   
    22   10  136 1    
    23   11   12 ar   
    24   11  126 1    
    25   12   13 ar   
    26   12  137 1    
    27   13   14 ar   
    28   13   15 1    
    29   14  138 1    
    30   15   16 1    
    31   15  139 1    
    32   15  140 1    
    33   16   17 1    
    34   17   18 1    
    35   17  141 1    
    36   17  142 1    
    37   18   19 1    
    38   18   67 1    
    39   18  143 1    
    40   19   20 am   BACKBONE|DICT|INTERRES
    41   19  144 1    
    42   20   21 2    
    43   20   22 1    
    44   22   23 1    
    45   22   24 1    
    46   22  145 1    
    47   23  146 1    
    48   23  147 1    
    49   23  148 1    
    50   24   25 am   BACKBONE|DICT|INTERRES
    51   24  149 1    
    52   25   26 2    
    53   25   27 1    
    54   27   28 1    
    55   27   29 1    
    56   27  150 1    
    57   28  151 1    
    58   28  152 1    
    59   28  153 1    
    60   29   30 am   BACKBONE|DICT|INTERRES
    61   29  154 1    
    62   30   31 2    
    63   30   32 1    
    64   32   33 1    
    65   32   34 1    
    66   32  155 1    
    67   33  156 1    
    68   33  157 1    
    69   33  158 1    
    70   34   35 am   BACKBONE|DICT|INTERRES
    71   34  159 1    
    72   35   36 2    
    73   35   37 1    
    74   37   38 1    
    75   37   39 1    
    76   37  160 1    
    77   38  161 1    
    78   38  162 1    
    79   38  163 1    
    80   39   40 am   BACKBONE|DICT|INTERRES
    81   39  164 1    
    82   40   41 2    
    83   40   42 1    
    84   42   43 1    
    85   42   44 1    
    86   42  165 1    
    87   43  166 1    
    88   43  167 1    
    89   43  168 1    
    90   44   45 am   BACKBONE|DICT|INTERRES
    91   44  169 1    
    92   45   46 2    
    93   45   47 1    
    94   47   48 1    
    95   47   49 1    
    96   47  170 1    
    97   48  171 1    
    98   48  172 1    
    99   48  173 1    
   100   49   50 am   BACKBONE|DICT|INTERRES
   101   49  174 1    
   102   50   51 2    
   103   50   52 1    
   104   52   53 1    
   105   52   54 1    
   106   52  175 1    
   107   53  176 1    
   108   53  177 1    
   109   53  178 1    
   110   54   55 am   BACKBONE|DICT|INTERRES
   111   54  179 1    
   112   55   56 2    
   113   55   57 1    
   114   57   58 1    
   115   57   59 1    
   116   57  180 1    
   117   58  181 1    
   118   58  182 1    
   119   58  183 1    
   120   59   60 am   BACKBONE|DICT|INTERRES
   121   59  184 1    
   122   60   61 2    
   123   60   62 1    
   124   62   63 1    
   125   62   64 1    
   126   62  185 1    
   127   63  186 1    
   128   63  187 1    
   129   63  188 1    
   130   64   65 am   BACKBONE|DICT|INTERRES
   131   64  189 1    
   132   65   66 2    
   133   67   68 2    
   134   67   69 am   BACKBONE|DICT|INTERRES
   135   69   70 1    
   136   69  190 1    
   137   70   71 1    
   138   70   72 1    
   139   70  191 1    
   140   71  192 1    
   141   71  193 1    
   142   71  194 1    
   143   72   73 2    
   144   72   74 am   BACKBONE|DICT|INTERRES
   145   74   75 1    
   146   74  195 1    
   147   75   76 1    
   148   75   77 1    
   149   75  196 1    
   150   76  197 1    
   151   76  198 1    
   152   76  199 1    
   153   77   78 2    
   154   77   79 am   BACKBONE|DICT|INTERRES
   155   79   80 1    
   156   79  200 1    
   157   80   81 1    
   158   80   82 1    
   159   80  201 1    
   160   81  202 1    
   161   81  203 1    
   162   81  204 1    
   163   82   83 2    
   164   82   84 am   BACKBONE|DICT|INTERRES
   165   84   85 1    
   166   84  205 1    
   167   85   86 1    
   168   85   87 1    
   169   85  206 1    
   170   86  207 1    
   171   86  208 1    
   172   86  209 1    
   173   87   88 2    
   174   87   89 am   BACKBONE|DICT|INTERRES
   175   89   90 1    
   176   89  210 1    
   177   90   91 1    
   178   90   92 1    
   179   90  211 1    
   180   91  212 1    
   181   91  213 1    
   182   91  214 1    
   183   92   93 2    
   184   92   94 am   BACKBONE|DICT|INTERRES
   185   94   95 1    
   186   94  215 1    
   187   95   96 1    
   188   95   97 1    
   189   95  216 1    
   190   96  217 1    
   191   96  218 1    
   192   96  219 1    
   193   97   98 2    
   194   97   99 am   BACKBONE|DICT|INTERRES
   195   99  100 1    
   196   99  220 1    
   197  100  101 1    
   198  100  102 1    
   199  100  221 1    
   200  101  222 1    
   201  101  223 1    
   202  101  224 1    
   203  102  103 2    
   204  102  104 am   BACKBONE|DICT|INTERRES
   205  104  105 1    
   206  104  225 1    
   207  105  106 1    
   208  105  107 1    
   209  105  226 1    
   210  106  227 1    
   211  106  228 1    
   212  106  229 1    
   213  107  108 2    
   214  107  109 am   BACKBONE|DICT|INTERRES
   215  109  110 1    
   216  109  230 1    
   217  110  111 1    
   218  110  112 1    
   219  110  231 1    
   220  111  232 1    
   221  111  233 1    
   222  111  234 1    
   223  112  113 2    
   224  112  114 am   BACKBONE|DICT|INTERRES
   225  114  115 1    
   226  114  235 1    
   227  115  116 1    
   228  115  117 1    
   229  115  236 1    
   230  116  237 1    
   231  116  238 1    
   232  116  239 1    
   233  117  118 2    
   234  117  119 am   BACKBONE|DICT|INTERRES
   235  119  120 1    
   236  119  240 1    
   237  120  121 1    
   238  120  124 1    
   239  120  241 1    
   240  121  122 am   BACKBONE|DICT|INTERRES
   241  121  123 2    
   242  122  242 1    
   243  122  243 1    
   244  124  125 1    
   245  124  244 1    
   246  124  245 1    
   247  125  126 1    
   248  126  246 1    
   249  126  247 1    
@<TRIPOS>SUBSTRUCTURE
     1 UNK         1 GROUP             0       ****    0 ROOT    
