@<TRIPOS>MOLECULE
3R540
247   249    1
SMALL
USER_CHARGES


@<TRIPOS>ATOM
      1 CA          4.6081  -14.3676  -44.0753 C.3       0 UNK        -0.1800 
      2 C           3.4788  -13.5313  -44.6571 C.2       0 UNK         0.5000 
      3 O           2.6380  -13.0246  -43.9107 O.2       0 UNK        -0.5000 
      4 N           3.4565  -13.3744  -45.9870 N.am      1 UNK        -0.5000 
      5 CA          2.5023  -12.5167  -46.7037 C.3       1 UNK         0.1400 
      6 C6          2.4074  -12.8536  -48.2094 C.3       23 UNK        -0.0398 
      7 S7          1.5414  -14.4352  -48.4643 S.3       23 UNK        -0.2404 
      8 C8          2.4430  -15.1394  -49.8791 C.3       23 UNK        -0.0205 
      9 C9          1.7075  -16.3313  -50.4796 C.ar      23 UNK        -0.0193 
     10 C10         0.4787  -16.1395  -51.1165 C.ar      23 UNK        -0.1150 
     11 C11        -0.2048  -17.2119  -51.6968 C.ar      23 UNK        -0.0193 
     12 C12         0.3616  -18.4899  -51.6527 C.ar      23 UNK        -0.1150 
     13 C13         1.6091  -18.6920  -51.0509 C.ar      23 UNK        -0.0193 
     14 C14         2.2676  -17.6126  -50.4496 C.ar      23 UNK        -0.1150 
     15 C15         2.2884  -20.0541  -51.1256 C.3       23 UNK        -0.0205 
     16 S16         2.2385  -20.9660  -49.5530 S.3       23 UNK        -0.2404 
     17 C17         0.5035  -21.5178  -49.5184 C.3       23 UNK        -0.0398 
     18 CA          0.2495  -22.5834  -48.4228 C.3       11 UNK         0.1400 
     19 N           0.3194  -22.0308  -47.0658 N.am      11 UNK        -0.5000 
     20 C           0.2088  -22.7409  -45.9338 C.2       10 UNK         0.5000 
     21 O           0.0765  -23.9628  -45.9034 O.2       10 UNK        -0.5000 
     22 CA          0.1943  -21.9600  -44.6083 C.3       10 UNK         0.1400 
     23 CB          1.6205  -21.5942  -44.1724 C.3       10 UNK        -0.1800 
     24 N          -0.6434  -20.7606  -44.6568 N.am      10 UNK        -0.5000 
     25 C          -1.9684  -20.7688  -44.8675 C.2       9 UNK         0.5000 
     26 O          -2.6287  -21.7944  -45.0341 O.2       9 UNK        -0.5000 
     27 CA         -2.6728  -19.4019  -44.9408 C.3       9 UNK         0.1400 
     28 CB         -2.8738  -18.8098  -43.5379 C.3       9 UNK        -0.1800 
     29 N          -1.9531  -18.4430  -45.7754 N.am      9 UNK        -0.5000 
     30 C          -1.7251  -18.5972  -47.0877 C.2       8 UNK         0.5000 
     31 O          -2.1404  -19.5450  -47.7578 O.2       8 UNK        -0.5000 
     32 CA         -0.8248  -17.5338  -47.7404 C.3       8 UNK         0.1400 
     33 CB         -1.5865  -16.2113  -47.9378 C.3       8 UNK        -0.1800 
     34 N           0.3934  -17.2784  -46.9678 N.am      8 UNK        -0.5000 
     35 C           1.3046  -18.2016  -46.6302 C.2       7 UNK         0.5000 
     36 O           1.2330  -19.3833  -46.9502 O.2       7 UNK        -0.5000 
     37 CA          2.4484  -17.7478  -45.7100 C.3       7 UNK         0.1400 
     38 CB          3.5699  -17.0583  -46.4995 C.3       7 UNK        -0.1800 
     39 N           1.9677  -16.8746  -44.6398 N.am      7 UNK        -0.5000 
     40 C           1.1973  -17.2928  -43.6252 C.2       6 UNK         0.5000 
     41 O           0.8403  -18.4603  -43.4710 O.2       6 UNK        -0.5000 
     42 CA          0.7043  -16.2150  -42.6470 C.3       6 UNK         0.1400 
     43 CB          1.7489  -15.9293  -41.5580 C.3       6 UNK        -0.1800 
     44 N           0.3524  -14.9667  -43.3213 N.am      6 UNK        -0.5000 
     45 C          -0.7051  -14.8158  -44.1301 C.2       5 UNK         0.5000 
     46 O          -1.4450  -15.7476  -44.4516 O.2       5 UNK        -0.5000 
     47 CA         -0.9632  -13.3925  -44.6755 C.3       5 UNK         0.1400 
     48 CB         -2.4500  -13.1441  -45.0071 C.3       5 UNK        -0.1800 
     49 N          -0.4253  -12.3234  -43.8139 N.am      5 UNK        -0.5000 
     50 C          -0.8090  -12.0515  -42.5560 C.2       4 UNK         0.5000 
     51 O          -1.6867  -12.6830  -41.9652 O.2       4 UNK        -0.5000 
     52 CA         -0.0856  -10.8997  -41.8321 C.3       4 UNK         0.1400 
     53 CB         -0.2793  -10.9651  -40.2989 C.3       4 UNK        -0.1800 
     54 N           1.3438  -10.8485  -42.1604 N.am      4 UNK        -0.5000 
     55 C           2.1256   -9.7864  -41.9165 C.2       3 UNK         0.5000 
     56 O           1.6991   -8.6987  -41.5256 O.2       3 UNK        -0.5000 
     57 CA          3.6377   -9.9651  -42.1255 C.3       3 UNK         0.1400 
     58 CB          4.1906  -11.1877  -41.3700 C.3       3 UNK        -0.1800 
     59 N           3.9605  -10.0682  -43.5441 N.am      3 UNK        -0.5000 
     60 C           4.1551   -9.0221  -44.3608 C.2       2 UNK         0.5000 
     61 O           4.0999   -7.8478  -43.9937 O.2       2 UNK        -0.5000 
     62 CA          4.4856   -9.3324  -45.8354 C.3       2 UNK         0.1400 
     63 CB          5.9954   -9.1967  -46.0873 C.3       2 UNK        -0.1800 
     64 N           4.0578  -10.6714  -46.2422 N.am      2 UNK        -0.5000 
     65 C           2.7847  -11.0194  -46.4740 C.2       1 UNK         0.5000 
     66 O           1.8456  -10.2236  -46.4589 O.2       1 UNK        -0.5000 
     67 C          -1.0901  -23.2988  -48.6735 C.2       11 UNK         0.5000 
     68 O          -1.0886  -24.4428  -49.1313 O.2       11 UNK        -0.5000 
     69 N          -2.2022  -22.6292  -48.3387 N.am      12 UNK        -0.5000 
     70 CA         -3.5506  -23.1761  -48.4761 C.3       12 UNK         0.1400 
     71 CB         -4.5832  -22.0705  -48.2189 C.3       12 UNK        -0.1800 
     72 C          -3.7957  -24.3954  -47.5682 C.2       12 UNK         0.5000 
     73 O          -4.3684  -25.3859  -48.0236 O.2       12 UNK        -0.5000 
     74 N          -3.3225  -24.3216  -46.3160 N.am      13 UNK        -0.5000 
     75 CA         -3.3977  -25.4051  -45.3357 C.3       13 UNK         0.1400 
     76 CB         -2.9659  -24.8848  -43.9565 C.3       13 UNK        -0.1800 
     77 C          -2.5689  -26.6393  -45.7358 C.2       13 UNK         0.5000 
     78 O          -3.0530  -27.7619  -45.5891 O.2       13 UNK        -0.5000 
     79 N          -1.3497  -26.4139  -46.2460 N.am      14 UNK        -0.5000 
     80 CA         -0.4389  -27.4585  -46.7165 C.3       14 UNK         0.1400 
     81 CB          0.9526  -26.8584  -46.9693 C.3       14 UNK        -0.1800 
     82 C          -0.9549  -28.1741  -47.9759 C.2       14 UNK         0.5000 
     83 O          -0.8495  -29.3983  -48.0630 O.2       14 UNK        -0.5000 
     84 N          -1.5125  -27.4044  -48.9206 N.am      15 UNK        -0.5000 
     85 CA         -2.1176  -27.9257  -50.1462 C.3       15 UNK         0.1400 
     86 CB         -2.3042  -26.7729  -51.1423 C.3       15 UNK        -0.1800 
     87 C          -3.4660  -28.6263  -49.9024 C.2       15 UNK         0.5000 
     88 O          -3.8130  -29.5370  -50.6553 O.2       15 UNK        -0.5000 
     89 N          -4.2059  -28.1613  -48.8833 N.am      16 UNK        -0.5000 
     90 CA         -5.6025  -28.4900  -48.5754 C.3       16 UNK         0.1400 
     91 CB         -5.7494  -29.9647  -48.1474 C.3       16 UNK        -0.1800 
     92 C          -6.5441  -28.0847  -49.7307 C.2       16 UNK         0.5000 
     93 O          -7.4834  -28.8108  -50.0621 O.2       16 UNK        -0.5000 
     94 N          -6.2429  -26.9338  -50.3413 N.am      17 UNK        -0.5000 
     95 CA         -6.8588  -26.3912  -51.5452 C.3       17 UNK         0.1400 
     96 CB         -6.3826  -27.1845  -52.7782 C.3       17 UNK        -0.1800 
     97 C          -6.4662  -24.9113  -51.6605 C.2       17 UNK         0.5000 
     98 O          -5.6084  -24.4409  -50.9083 O.2       17 UNK        -0.5000 
     99 N          -7.0820  -24.1981  -52.6103 N.am      18 UNK        -0.5000 
    100 CA        -6.8567  -22.7759  -52.8752 C.3       18 UNK         0.1400 
    101 CB        -8.0734  -22.2121  -53.6315 C.3       18 UNK        -0.1800 
    102 C         -5.5241  -22.5065  -53.6089 C.2       18 UNK         0.5000 
    103 O         -5.5294  -22.0266  -54.7450 O.2       18 UNK        -0.5000 
    104 N         -4.4083  -22.8293  -52.9414 N.am      19 UNK        -0.5000 
    105 CA        -3.0257  -22.6523  -53.3913 C.3       19 UNK         0.1400 
    106 CB        -2.0775  -23.0571  -52.2533 C.3       19 UNK        -0.1800 
    107 C         -2.7419  -21.2066  -53.8306 C.2       19 UNK         0.5000 
    108 O         -2.7674  -20.3060  -52.9912 O.2       19 UNK        -0.5000 
    109 N         -2.5458  -21.0106  -55.1425 N.am      20 UNK        -0.5000 
    110 CA        -2.3523  -19.7216  -55.8208 C.3       20 UNK         0.1400 
    111 CB        -0.9289  -19.1873  -55.5593 C.3       20 UNK        -0.1800 
    112 C         -3.4688  -18.6907  -55.5257 C.2       20 UNK         0.5000 
    113 O         -3.2011  -17.4909  -55.4540 O.2       20 UNK        -0.5000 
    114 N         -4.6992  -19.1978  -55.3491 N.am      21 UNK        -0.5000 
    115 CA        -5.9353  -18.4846  -55.0127 C.3       21 UNK         0.1400 
    116 CB        -6.2812  -17.4197  -56.0751 C.3       21 UNK        -0.1800 
    117 C         -5.9905  -17.9272  -53.5722 C.2       21 UNK         0.5000 
    118 O         -6.9041  -17.1589  -53.2680 O.2       21 UNK        -0.5000 
    119 N         -5.0675  -18.3453  -52.6939 N.am      22 UNK        -0.5000 
    120 CA        -5.0473  -17.9830  -51.2626 C.3       22 UNK         0.1400 
    121 C         -5.9388  -18.8845  -50.3565 C.2       22 UNK         0.5000 
    122 N         -6.7531  -19.7795  -50.8991 N.am      22 UNK        -0.7600 
    123 O         -5.9236  -18.7479  -49.1368 O.2       22 UNK        -0.5000 
    124 C124       -3.5995  -17.8498  -50.7224 C.3       23 UNK        -0.0398 
    125 S125       -2.8181  -16.3209  -51.3401 S.3       23 UNK        -0.2404 
    126 C126       -1.5155  -16.9637  -52.4313 C.3       23 UNK        -0.0205 
    127 H127        5.0672  -13.8447  -43.2366 H         1 UNK         0.0600 
    128 H128        5.3843  -14.5648  -44.8149 H         1 UNK         0.0600 
    129 H129        4.2316  -15.3238  -43.7159 H         1 UNK         0.0600 
    130 H130        4.1600  -13.8239  -46.5558 H         1 UNK         0.3000 
    131 H131        1.5203  -12.6894  -46.2695 H         1 UNK         0.0600 
    132 H132        1.8428  -12.0906  -48.7490 H         1 UNK         0.0800 
    133 H133        3.3989  -12.8839  -48.6639 H         1 UNK         0.0800 
    134 H134        2.5628  -14.3760  -50.6492 H         1 UNK         0.0800 
    135 H135        3.4470  -15.4222  -49.5593 H         1 UNK         0.0800 
    136 H136        0.0511  -15.1475  -51.1613 H         1 UNK         0.1150 
    137 H137       -0.1502  -19.3189  -52.1217 H         1 UNK         0.1150 
    138 H138        3.2310  -17.7686  -49.9852 H         1 UNK         0.1150 
    139 H139        1.8486  -20.6633  -51.9167 H         1 UNK         0.0800 
    140 H140        3.3327  -19.9111  -51.4066 H         1 UNK         0.0800 
    141 H141        0.2681  -21.9183  -50.5062 H         1 UNK         0.0800 
    142 H142       -0.1415  -20.6490  -49.3748 H         1 UNK         0.0800 
    143 H143        1.0294  -23.3440  -48.4996 H         1 UNK         0.0600 
    144 H144        0.4929  -21.0284  -47.0000 H         1 UNK         0.3000 
    145 H145       -0.2269  -22.6183  -43.8459 H         1 UNK         0.0600 
    146 H146        1.6234  -21.1146  -43.1936 H         1 UNK         0.0600 
    147 H147        2.2457  -22.4849  -44.0995 H         1 UNK         0.0600 
    148 H148        2.0975  -20.9170  -44.8800 H         1 UNK         0.0600 
    149 H149       -0.1737  -19.8747  -44.5006 H         1 UNK         0.3000 
    150 H150       -3.6562  -19.5590  -45.3889 H         1 UNK         0.0600 
    151 H151       -3.4261  -19.4993  -42.8983 H         1 UNK         0.0600 
    152 H152       -3.4406  -17.8795  -43.5812 H         1 UNK         0.0600 
    153 H153       -1.9225  -18.5969  -43.0492 H         1 UNK         0.0600 
    154 H154       -1.5960  -17.6134  -45.3125 H         1 UNK         0.3000 
    155 H155       -0.5313  -17.9135  -48.7211 H         1 UNK         0.0600 
    156 H156       -1.6127  -15.6140  -47.0292 H         1 UNK         0.0600 
    157 H157       -1.1254  -15.6072  -48.7174 H         1 UNK         0.0600 
    158 H158       -2.6210  -16.3756  -48.2334 H         1 UNK         0.0600 
    159 H159        0.5371  -16.3288  -46.6629 H         1 UNK         0.3000 
    160 H160        2.8743  -18.6422  -45.2507 H         1 UNK         0.0600 
    161 H161        3.2490  -16.1046  -46.9116 H         1 UNK         0.0600 
    162 H162        3.8993  -17.6809  -47.3325 H         1 UNK         0.0600 
    163 H163        4.4394  -16.8760  -45.8684 H         1 UNK         0.0600 
    164 H164        2.1795  -15.8923  -44.7103 H         1 UNK         0.3000 
    165 H165       -0.1938  -16.6008  -42.1595 H         1 UNK         0.0600 
    166 H166        1.3522  -15.2485  -40.8046 H         1 UNK         0.0600 
    167 H167        2.6527  -15.4799  -41.9680 H         1 UNK         0.0600 
    168 H168        2.0400  -16.8469  -41.0450 H         1 UNK         0.0600 
    169 H169        0.9457  -14.1650  -43.1496 H         1 UNK         0.3000 
    170 H170       -0.4270  -13.3404  -45.6201 H         1 UNK         0.0600 
    171 H171       -2.8027  -13.8369  -45.7717 H         1 UNK         0.0600 
    172 H172       -3.0903  -13.2742  -44.1345 H         1 UNK         0.0600 
    173 H173       -2.6051  -12.1358  -45.3908 H         1 UNK         0.0600 
    174 H174        0.3116  -11.7607  -44.2162 H         1 UNK         0.3000 
    175 H175       -0.5535   -9.9824  -42.1952 H         1 UNK         0.0600 
    176 H176        0.1732  -11.8645  -39.8798 H         1 UNK         0.0600 
    177 H177        0.1614  -10.1049  -39.7958 H         1 UNK         0.0600 
    178 H178       -1.3370  -10.9726  -40.0326 H         1 UNK         0.0600 
    179 H179        1.7616  -11.6975  -42.5265 H         1 UNK         0.3000 
    180 H180        4.1332   -9.0841  -41.7112 H         1 UNK         0.0600 
    181 H181        3.7754  -12.1276  -41.7310 H         1 UNK         0.0600 
    182 H182        3.9628  -11.1196  -40.3056 H         1 UNK         0.0600 
    183 H183        5.2749  -11.2474  -41.4649 H         1 UNK         0.0600 
    184 H184        3.9717  -10.9973  -43.9370 H         1 UNK         0.3000 
    185 H185        3.9685   -8.5951  -46.4534 H         1 UNK         0.0600 
    186 H186        6.3474   -8.1985  -45.8235 H         1 UNK         0.0600 
    187 H187        6.5686   -9.9132  -45.4975 H         1 UNK         0.0600 
    188 H188        6.2361   -9.3569  -47.1385 H         1 UNK         0.0600 
    189 H189        4.7708  -11.3852  -46.2761 H         1 UNK         0.3000 
    190 H190       -2.1242  -21.6898  -47.9632 H         1 UNK         0.3000 
    191 H191       -3.6606  -23.5082  -49.5091 H         1 UNK         0.0600 
    192 H192       -4.5051  -21.6718  -47.2068 H         1 UNK         0.0600 
    193 H193       -5.5982  -22.4466  -48.3520 H         1 UNK         0.0600 
    194 H194       -4.4497  -21.2420  -48.9146 H         1 UNK         0.0600 
    195 H195       -2.8959  -23.4540  -46.0020 H         1 UNK         0.3000 
    196 H196       -4.4419  -25.7170  -45.2666 H         1 UNK         0.0600 
    197 H197       -3.0279  -25.6719  -43.2040 H         1 UNK         0.0600 
    198 H198       -3.6069  -24.0674  -43.6258 H         1 UNK         0.0600 
    199 H199       -1.9385  -24.5200  -43.9679 H         1 UNK         0.0600 
    200 H200       -0.9988  -25.4595  -46.2833 H         1 UNK         0.3000 
    201 H201       -0.3463  -28.2048  -45.9248 H         1 UNK         0.0600 
    202 H202        1.3711  -26.4373  -46.0552 H         1 UNK         0.0600 
    203 H203        0.9186  -26.0656  -47.7178 H         1 UNK         0.0600 
    204 H204        1.6490  -27.6187  -47.3252 H         1 UNK         0.0600 
    205 H205       -1.5124  -26.3955  -48.8022 H         1 UNK         0.3000 
    206 H206       -1.4347  -28.6539  -50.5890 H         1 UNK         0.0600 
    207 H207       -1.3514  -26.2969  -51.3742 H         1 UNK         0.0600 
    208 H208       -2.7290  -27.1287  -52.0817 H         1 UNK         0.0600 
    209 H209       -2.9759  -26.0100  -50.7455 H         1 UNK         0.0600 
    210 H210       -3.8411  -27.3669  -48.3696 H         1 UNK         0.3000 
    211 H211       -5.8796  -27.8696  -47.7219 H         1 UNK         0.0600 
    212 H212       -5.5559  -30.6508  -48.9722 H         1 UNK         0.0600 
    213 H213       -6.7586  -30.1659  -47.7865 H         1 UNK         0.0600 
    214 H214       -5.0607  -30.2087  -47.3384 H         1 UNK         0.0600 
    215 H215       -5.5083  -26.3473  -49.9578 H         1 UNK         0.3000 
    216 H216       -7.9447  -26.4555  -51.4538 H         1 UNK         0.0600 
    217 H217       -5.2986  -27.1357  -52.8895 H         1 UNK         0.0600 
    218 H218       -6.8259  -26.7979  -53.6963 H         1 UNK         0.0600 
    219 H219       -6.6614  -28.2360  -52.7082 H         1 UNK         0.0600 
    220 H220       -7.7480  -24.6608  -53.2119 H         1 UNK         0.3000 
    221 H221       -6.7998  -22.2632  -51.9145 H         1 UNK         0.0600 
    222 H222       -8.9902  -22.3438  -53.0565 H         1 UNK         0.0600 
    223 H223       -8.2099  -22.7013  -54.5967 H         1 UNK         0.0600 
    224 H224       -7.9611  -21.1435  -53.8177 H         1 UNK         0.0600 
    225 H225       -4.5339  -23.2566  -52.0292 H         1 UNK         0.3000 
    226 H226       -2.8604  -23.3252  -54.2347 H         1 UNK         0.0600 
    227 H227       -2.2428  -24.0888  -51.9514 H         1 UNK         0.0600 
    228 H228       -1.0348  -22.9703  -52.5605 H         1 UNK         0.0600 
    229 H229       -2.2160  -22.4266  -51.3743 H         1 UNK         0.0600 
    230 H230       -2.5932  -21.8140  -55.7538 H         1 UNK         0.3000 
    231 H231       -2.4269  -19.9264  -56.8897 H         1 UNK         0.0600 
    232 H232       -0.7421  -19.0231  -54.5001 H         1 UNK         0.0600 
    233 H233       -0.7554  -18.2430  -56.0765 H         1 UNK         0.0600 
    234 H234       -0.1782  -19.8912  -55.9181 H         1 UNK         0.0600 
    235 H235       -4.7971  -20.2082  -55.3849 H         1 UNK         0.3000 
    236 H236       -6.7188  -19.2420  -55.0575 H         1 UNK         0.0600 
    237 H237       -7.2906  -17.0340  -55.9277 H         1 UNK         0.0600 
    238 H238       -5.6016  -16.5684  -56.0349 H         1 UNK         0.0600 
    239 H239       -6.2402  -17.8369  -57.0812 H         1 UNK         0.0600 
    240 H240       -4.3384  -18.9820  -52.9978 H         1 UNK         0.3000 
    241 H241       -5.5066  -16.9979  -51.1608 H         1 UNK         0.0600 
    242 H242       -7.3455  -20.3283  -50.2969 H         1 UNK         0.3800 
    243 H243       -6.8383  -19.8433  -51.8979 H         1 UNK         0.3800 
    244 H244       -2.9984  -18.7250  -50.9685 H         1 UNK         0.0800 
    245 H245       -3.5940  -17.7934  -49.6350 H         1 UNK         0.0800 
    246 H246       -1.3382  -16.2392  -53.2271 H         1 UNK         0.0800 
    247 H247       -1.8758  -17.8659  -52.9213 H         1 UNK         0.0800 
@<TRIPOS>BOND
     1    1    2 1    
     2    1  127 1    
     3    1  128 1    
     4    1  129 1    
     5    2    3 2    
     6    2    4 am   BACKBONE|DICT|INTERRES
     7    4    5 1    
     8    4  130 1    
     9    5    6 1    
    10    5   65 1    
    11    5  131 1    
    12    6    7 1    
    13    6  132 1    
    14    6  133 1    
    15    7    8 1    
    16    8    9 1    
    17    8  134 1    
    18    8  135 1    
    19    9   10 ar   
    20    9   14 ar   
    21   10   11 ar   
    22   10  136 1    
    23   11   12 ar   
    24   11  126 1    
    25   12   13 ar   
    26   12  137 1    
    27   13   14 ar   
    28   13   15 1    
    29   14  138 1    
    30   15   16 1    
    31   15  139 1    
    32   15  140 1    
    33   16   17 1    
    34   17   18 1    
    35   17  141 1    
    36   17  142 1    
    37   18   19 1    
    38   18   67 1    
    39   18  143 1    
    40   19   20 am   BACKBONE|DICT|INTERRES
    41   19  144 1    
    42   20   21 2    
    43   20   22 1    
    44   22   23 1    
    45   22   24 1    
    46   22  145 1    
    47   23  146 1    
    48   23  147 1    
    49   23  148 1    
    50   24   25 am   BACKBONE|DICT|INTERRES
    51   24  149 1    
    52   25   26 2    
    53   25   27 1    
    54   27   28 1    
    55   27   29 1    
    56   27  150 1    
    57   28  151 1    
    58   28  152 1    
    59   28  153 1    
    60   29   30 am   BACKBONE|DICT|INTERRES
    61   29  154 1    
    62   30   31 2    
    63   30   32 1    
    64   32   33 1    
    65   32   34 1    
    66   32  155 1    
    67   33  156 1    
    68   33  157 1    
    69   33  158 1    
    70   34   35 am   BACKBONE|DICT|INTERRES
    71   34  159 1    
    72   35   36 2    
    73   35   37 1    
    74   37   38 1    
    75   37   39 1    
    76   37  160 1    
    77   38  161 1    
    78   38  162 1    
    79   38  163 1    
    80   39   40 am   BACKBONE|DICT|INTERRES
    81   39  164 1    
    82   40   41 2    
    83   40   42 1    
    84   42   43 1    
    85   42   44 1    
    86   42  165 1    
    87   43  166 1    
    88   43  167 1    
    89   43  168 1    
    90   44   45 am   BACKBONE|DICT|INTERRES
    91   44  169 1    
    92   45   46 2    
    93   45   47 1    
    94   47   48 1    
    95   47   49 1    
    96   47  170 1    
    97   48  171 1    
    98   48  172 1    
    99   48  173 1    
   100   49   50 am   BACKBONE|DICT|INTERRES
   101   49  174 1    
   102   50   51 2    
   103   50   52 1    
   104   52   53 1    
   105   52   54 1    
   106   52  175 1    
   107   53  176 1    
   108   53  177 1    
   109   53  178 1    
   110   54   55 am   BACKBONE|DICT|INTERRES
   111   54  179 1    
   112   55   56 2    
   113   55   57 1    
   114   57   58 1    
   115   57   59 1    
   116   57  180 1    
   117   58  181 1    
   118   58  182 1    
   119   58  183 1    
   120   59   60 am   BACKBONE|DICT|INTERRES
   121   59  184 1    
   122   60   61 2    
   123   60   62 1    
   124   62   63 1    
   125   62   64 1    
   126   62  185 1    
   127   63  186 1    
   128   63  187 1    
   129   63  188 1    
   130   64   65 am   BACKBONE|DICT|INTERRES
   131   64  189 1    
   132   65   66 2    
   133   67   68 2    
   134   67   69 am   BACKBONE|DICT|INTERRES
   135   69   70 1    
   136   69  190 1    
   137   70   71 1    
   138   70   72 1    
   139   70  191 1    
   140   71  192 1    
   141   71  193 1    
   142   71  194 1    
   143   72   73 2    
   144   72   74 am   BACKBONE|DICT|INTERRES
   145   74   75 1    
   146   74  195 1    
   147   75   76 1    
   148   75   77 1    
   149   75  196 1    
   150   76  197 1    
   151   76  198 1    
   152   76  199 1    
   153   77   78 2    
   154   77   79 am   BACKBONE|DICT|INTERRES
   155   79   80 1    
   156   79  200 1    
   157   80   81 1    
   158   80   82 1    
   159   80  201 1    
   160   81  202 1    
   161   81  203 1    
   162   81  204 1    
   163   82   83 2    
   164   82   84 am   BACKBONE|DICT|INTERRES
   165   84   85 1    
   166   84  205 1    
   167   85   86 1    
   168   85   87 1    
   169   85  206 1    
   170   86  207 1    
   171   86  208 1    
   172   86  209 1    
   173   87   88 2    
   174   87   89 am   BACKBONE|DICT|INTERRES
   175   89   90 1    
   176   89  210 1    
   177   90   91 1    
   178   90   92 1    
   179   90  211 1    
   180   91  212 1    
   181   91  213 1    
   182   91  214 1    
   183   92   93 2    
   184   92   94 am   BACKBONE|DICT|INTERRES
   185   94   95 1    
   186   94  215 1    
   187   95   96 1    
   188   95   97 1    
   189   95  216 1    
   190   96  217 1    
   191   96  218 1    
   192   96  219 1    
   193   97   98 2    
   194   97   99 am   BACKBONE|DICT|INTERRES
   195   99  100 1    
   196   99  220 1    
   197  100  101 1    
   198  100  102 1    
   199  100  221 1    
   200  101  222 1    
   201  101  223 1    
   202  101  224 1    
   203  102  103 2    
   204  102  104 am   BACKBONE|DICT|INTERRES
   205  104  105 1    
   206  104  225 1    
   207  105  106 1    
   208  105  107 1    
   209  105  226 1    
   210  106  227 1    
   211  106  228 1    
   212  106  229 1    
   213  107  108 2    
   214  107  109 am   BACKBONE|DICT|INTERRES
   215  109  110 1    
   216  109  230 1    
   217  110  111 1    
   218  110  112 1    
   219  110  231 1    
   220  111  232 1    
   221  111  233 1    
   222  111  234 1    
   223  112  113 2    
   224  112  114 am   BACKBONE|DICT|INTERRES
   225  114  115 1    
   226  114  235 1    
   227  115  116 1    
   228  115  117 1    
   229  115  236 1    
   230  116  237 1    
   231  116  238 1    
   232  116  239 1    
   233  117  118 2    
   234  117  119 am   BACKBONE|DICT|INTERRES
   235  119  120 1    
   236  119  240 1    
   237  120  121 1    
   238  120  124 1    
   239  120  241 1    
   240  121  122 am   BACKBONE|DICT|INTERRES
   241  121  123 2    
   242  122  242 1    
   243  122  243 1    
   244  124  125 1    
   245  124  244 1    
   246  124  245 1    
   247  125  126 1    
   248  126  246 1    
   249  126  247 1    
@<TRIPOS>SUBSTRUCTURE
     1 UNK         1 GROUP             0       ****    0 ROOT    
