@<TRIPOS>MOLECULE
3R540
247   249    1
SMALL
USER_CHARGES


@<TRIPOS>ATOM
      1 CA         -4.2796  -16.8190  -45.0630 C.3       0 UNK        -0.1800 
      2 C          -4.2470  -15.4064  -45.6262 C.2       0 UNK         0.5000 
      3 O          -4.4064  -14.4414  -44.8796 O.2       0 UNK        -0.5000 
      4 N          -4.0513  -15.2852  -46.9441 N.am      1 UNK        -0.5000 
      5 CA         -4.0010  -14.0140  -47.6777 C.3       1 UNK         0.1400 
      6 C6         -4.3478  -14.1980  -49.1811 C.3       23 UNK        -0.0398 
      7 S7         -3.4397  -15.5527  -50.0091 S.3       23 UNK        -0.2404 
      8 C8         -2.0413  -14.6505  -50.7566 C.3       23 UNK        -0.0205 
      9 C9         -0.8414  -15.5488  -51.0302 C.ar      23 UNK        -0.0193 
     10 C10        -0.1489  -15.4466  -52.2413 C.ar      23 UNK        -0.1150 
     11 C11         0.9792  -16.2370  -52.4831 C.ar      23 UNK        -0.0193 
     12 C12         1.4047  -17.1452  -51.5089 C.ar      23 UNK        -0.1150 
     13 C13         0.7266  -17.2523  -50.2917 C.ar      23 UNK        -0.0193 
     14 C14        -0.3877  -16.4455  -50.0564 C.ar      23 UNK        -0.1150 
     15 C15         1.2120  -18.2197  -49.2235 C.3       23 UNK        -0.0205 
     16 S16         0.3379  -19.8126  -49.3127 S.3       23 UNK        -0.2404 
     17 C17        -1.1696  -19.4960  -48.3269 C.3       23 UNK        -0.0398 
     18 CA         -1.5197  -20.7029  -47.4174 C.3       11 UNK         0.1400 
     19 N          -0.4633  -21.0035  -46.4486 N.am      11 UNK        -0.5000 
     20 C          -0.0186  -22.2256  -46.1340 C.2       10 UNK         0.5000 
     21 O          -0.4501  -23.2644  -46.6284 O.2       10 UNK        -0.5000 
     22 CA          1.0444  -22.3052  -45.0246 C.3       10 UNK         0.1400 
     23 CB          2.4365  -21.9678  -45.5791 C.3       10 UNK        -0.1800 
     24 N           0.7408  -21.4406  -43.8819 N.am      10 UNK        -0.5000 
     25 C          -0.3598  -21.5412  -43.1208 C.2       9 UNK         0.5000 
     26 O          -1.2431  -22.3832  -43.3020 O.2       9 UNK        -0.5000 
     27 CA         -0.5140  -20.5040  -41.9928 C.3       9 UNK         0.1400 
     28 CB          0.4098  -20.8333  -40.8106 C.3       9 UNK        -0.1800 
     29 N          -0.2525  -19.1411  -42.4560 N.am      9 UNK        -0.5000 
     30 C          -1.0350  -18.4792  -43.3202 C.2       8 UNK         0.5000 
     31 O          -2.0968  -18.9173  -43.7500 O.2       8 UNK        -0.5000 
     32 CA         -0.5354  -17.1173  -43.8285 C.3       8 UNK         0.1400 
     33 CB         -0.8899  -15.9996  -42.8382 C.3       8 UNK        -0.1800 
     34 N           0.9016  -17.1110  -44.0929 N.am      8 UNK        -0.5000 
     35 C           1.5106  -17.8777  -45.0075 C.2       7 UNK         0.5000 
     36 O           0.9147  -18.6508  -45.7538 O.2       7 UNK        -0.5000 
     37 CA          3.0441  -17.8002  -45.0700 C.3       7 UNK         0.1400 
     38 CB          3.5020  -16.5999  -45.9097 C.3       7 UNK        -0.1800 
     39 N           3.6387  -17.7251  -43.7370 N.am      7 UNK        -0.5000 
     40 C           3.6333  -18.7309  -42.8514 C.2       6 UNK         0.5000 
     41 O           3.1574  -19.8437  -43.0784 O.2       6 UNK        -0.5000 
     42 CA          4.2164  -18.4175  -41.4624 C.3       6 UNK         0.1400 
     43 CB          5.7511  -18.4771  -41.4878 C.3       6 UNK        -0.1800 
     44 N           3.7858  -17.1101  -40.9628 N.am      6 UNK        -0.5000 
     45 C           2.5217  -16.8133  -40.6305 C.2       5 UNK         0.5000 
     46 O           1.5928  -17.6187  -40.6912 O.2       5 UNK        -0.5000 
     47 CA          2.2420  -15.3651  -40.1877 C.3       5 UNK         0.1400 
     48 CB          2.5292  -15.1961  -38.6883 C.3       5 UNK        -0.1800 
     49 N           2.9864  -14.3510  -40.9422 N.am      5 UNK        -0.5000 
     50 C           2.8808  -14.1500  -42.2621 C.2       4 UNK         0.5000 
     51 O           2.2286  -14.8725  -43.0164 O.2       4 UNK        -0.5000 
     52 CA          3.6535  -12.9603  -42.8507 C.3       4 UNK         0.1400 
     53 CB          4.9080  -13.4439  -43.5942 C.3       4 UNK        -0.1800 
     54 N           2.8021  -12.2113  -43.7744 N.am      4 UNK        -0.5000 
     55 C           1.8638  -11.3334  -43.3931 C.2       3 UNK         0.5000 
     56 O           1.6583  -11.0217  -42.2192 O.2       3 UNK        -0.5000 
     57 CA          1.0212  -10.6816  -44.5060 C.3       3 UNK         0.1400 
     58 CB          1.7095   -9.4091  -45.0240 C.3       3 UNK        -0.1800 
     59 N           0.7656  -11.5813  -45.6332 N.am      3 UNK        -0.5000 
     60 C          -0.1613  -12.5478  -45.6272 C.2       2 UNK         0.5000 
     61 O          -0.8958  -12.7868  -44.6666 O.2       2 UNK        -0.5000 
     62 CA         -0.2598  -13.3983  -46.9081 C.3       2 UNK         0.1400 
     63 CB          0.7601  -14.5436  -46.8679 C.3       2 UNK        -0.1800 
     64 N          -1.5970  -13.9593  -47.1068 N.am      2 UNK        -0.5000 
     65 C          -2.6688  -13.2520  -47.4914 C.2       1 UNK         0.5000 
     66 O          -2.6327  -12.0436  -47.7299 O.2       1 UNK        -0.5000 
     67 C          -2.8988  -20.5710  -46.7304 C.2       11 UNK         0.5000 
     68 O          -3.7709  -19.8732  -47.2475 O.2       11 UNK        -0.5000 
     69 N          -3.1000  -21.2894  -45.6177 N.am      12 UNK        -0.5000 
     70 CA         -4.4036  -21.5834  -45.0185 C.3       12 UNK         0.1400 
     71 CB         -4.5201  -20.9660  -43.6174 C.3       12 UNK        -0.1800 
     72 C          -4.6060  -23.1055  -44.9700 C.2       12 UNK         0.5000 
     73 O          -5.6760  -23.5866  -45.3465 O.2       12 UNK        -0.5000 
     74 N          -3.5593  -23.8439  -44.5729 N.am      13 UNK        -0.5000 
     75 CA         -3.4788  -25.3029  -44.6696 C.3       13 UNK         0.1400 
     76 CB         -2.1898  -25.7590  -43.9684 C.3       13 UNK        -0.1800 
     77 C          -3.4959  -25.8005  -46.1312 C.2       13 UNK         0.5000 
     78 O          -3.1806  -25.0356  -47.0434 O.2       13 UNK        -0.5000 
     79 N          -3.8467  -27.0806  -46.3264 N.am      14 UNK        -0.5000 
     80 CA         -3.8368  -27.8057  -47.6073 C.3       14 UNK         0.1400 
     81 CB         -2.3835  -28.0576  -48.0622 C.3       14 UNK        -0.1800 
     82 C          -4.6923  -27.1268  -48.6999 C.2       14 UNK         0.5000 
     83 O          -4.2096  -26.8831  -49.8082 O.2       14 UNK        -0.5000 
     84 N          -5.9415  -26.7922  -48.3404 N.am      15 UNK        -0.5000 
     85 CA         -6.9194  -26.0571  -49.1556 C.3       15 UNK         0.1400 
     86 CB         -7.3803  -26.9060  -50.3597 C.3       15 UNK        -0.1800 
     87 C          -6.3963  -24.6647  -49.5660 C.2       15 UNK         0.5000 
     88 O          -6.4762  -24.2841  -50.7357 O.2       15 UNK        -0.5000 
     89 N          -5.8184  -23.9552  -48.5866 N.am      16 UNK        -0.5000 
     90 CA         -5.1282  -22.6720  -48.7227 C.3       16 UNK         0.1400 
     91 CB         -6.1272  -21.5487  -49.0726 C.3       16 UNK        -0.1800 
     92 C          -3.9257  -22.7449  -49.6845 C.2       16 UNK         0.5000 
     93 O          -3.7673  -21.8675  -50.5287 O.2       16 UNK        -0.5000 
     94 N          -3.1248  -23.8132  -49.5640 N.am      17 UNK        -0.5000 
     95 CA         -2.0348  -24.2183  -50.4601 C.3       17 UNK         0.1400 
     96 CB         -0.8235  -23.2762  -50.3119 C.3       17 UNK        -0.1800 
     97 C          -2.5051  -24.3672  -51.9232 C.2       17 UNK         0.5000 
     98 O          -1.8574  -23.8553  -52.8377 O.2       17 UNK        -0.5000 
     99 N          -3.6553  -25.0359  -52.0985 N.am      18 UNK        -0.5000 
    100 CA        -4.4190  -25.1789  -53.3432 C.3       18 UNK         0.1400 
    101 CB        -3.6747  -26.0981  -54.3336 C.3       18 UNK        -0.1800 
    102 C         -4.8047  -23.8110  -53.9508 C.2       18 UNK         0.5000 
    103 O         -4.5502  -23.5596  -55.1305 O.2       18 UNK        -0.5000 
    104 N         -5.3930  -22.9479  -53.1081 N.am      19 UNK        -0.5000 
    105 CA        -5.7596  -21.5504  -53.3725 C.3       19 UNK         0.1400 
    106 CB        -6.9341  -21.4764  -54.3697 C.3       19 UNK        -0.1800 
    107 C         -4.5488  -20.6870  -53.7934 C.2       19 UNK         0.5000 
    108 O         -4.6091  -19.9671  -54.7924 O.2       19 UNK        -0.5000 
    109 N         -3.4551  -20.8139  -53.0311 N.am      20 UNK        -0.5000 
    110 CA        -2.1289  -20.1921  -53.1365 C.3       20 UNK         0.1400 
    111 CB        -2.2223  -18.6670  -52.9408 C.3       20 UNK        -0.1800 
    112 C         -1.3223  -20.5333  -54.4069 C.2       20 UNK         0.5000 
    113 O         -0.0951  -20.5933  -54.3333 O.2       20 UNK        -0.5000 
    114 N         -2.0112  -20.7165  -55.5424 N.am      21 UNK        -0.5000 
    115 CA        -1.4907  -20.8627  -56.9070 C.3       21 UNK         0.1400 
    116 CB        -0.6057  -22.1191  -57.0435 C.3       21 UNK        -0.1800 
    117 C         -0.8078  -19.5760  -57.4257 C.2       21 UNK         0.5000 
    118 O          0.0129  -19.6391  -58.3429 O.2       21 UNK        -0.5000 
    119 N         -1.1771  -18.4330  -56.8341 N.am      22 UNK        -0.5000 
    120 CA        -0.6415  -17.0914  -57.1162 C.3       22 UNK         0.1400 
    121 C         -1.6307  -16.1889  -57.9108 C.2       22 UNK         0.5000 
    122 N         -2.8028  -16.6690  -58.3098 N.am      22 UNK        -0.7600 
    123 O         -1.3241  -15.0330  -58.1901 O.2       22 UNK        -0.5000 
    124 C124       -0.1642  -16.3984  -55.8115 C.3       23 UNK        -0.0398 
    125 S125        1.2353  -17.2809  -55.0421 S.3       23 UNK        -0.2404 
    126 C126        1.7667  -16.0885  -53.7763 C.3       23 UNK        -0.0205 
    127 H127       -3.8598  -16.8375  -44.0578 H         1 UNK         0.0600 
    128 H128       -3.7054  -17.5102  -45.6807 H         1 UNK         0.0600 
    129 H129       -5.3065  -17.1798  -45.0081 H         1 UNK         0.0600 
    130 H130       -3.9449  -16.1133  -47.5142 H         1 UNK         0.3000 
    131 H131       -4.7719  -13.3642  -47.2574 H         1 UNK         0.0600 
    132 H132       -5.4096  -14.4321  -49.2671 H         1 UNK         0.0800 
    133 H133       -4.2162  -13.2677  -49.7371 H         1 UNK         0.0800 
    134 H134       -2.3882  -14.1766  -51.6761 H         1 UNK         0.0800 
    135 H135       -1.7125  -13.8465  -50.0992 H         1 UNK         0.0800 
    136 H136       -0.4767  -14.7405  -52.9911 H         1 UNK         0.1150 
    137 H137        2.2731  -17.7615  -51.6949 H         1 UNK         0.1150 
    138 H138       -0.9036  -16.5169  -49.1101 H         1 UNK         0.1150 
    139 H139        2.2799  -18.4035  -49.3486 H         1 UNK         0.0800 
    140 H140        1.0994  -17.7774  -48.2338 H         1 UNK         0.0800 
    141 H141       -1.9768  -19.2910  -49.0328 H         1 UNK         0.0800 
    142 H142       -1.0475  -18.5949  -47.7247 H         1 UNK         0.0800 
    143 H143       -1.6312  -21.5598  -48.0824 H         1 UNK         0.0600 
    144 H144       -0.0209  -20.1940  -46.0166 H         1 UNK         0.3000 
    145 H145        1.0655  -23.3341  -44.6596 H         1 UNK         0.0600 
    146 H146        3.2057  -22.0882  -44.8161 H         1 UNK         0.0600 
    147 H147        2.6951  -22.6258  -46.4095 H         1 UNK         0.0600 
    148 H148        2.4856  -20.9429  -45.9465 H         1 UNK         0.0600 
    149 H149        1.4329  -20.7341  -43.6529 H         1 UNK         0.3000 
    150 H150       -1.5457  -20.5493  -41.6378 H         1 UNK         0.0600 
    151 H151        0.2270  -21.8431  -40.4414 H         1 UNK         0.0600 
    152 H152        0.2435  -20.1472  -39.9799 H         1 UNK         0.0600 
    153 H153        1.4622  -20.7692  -41.0886 H         1 UNK         0.0600 
    154 H154        0.5787  -18.6836  -42.0966 H         1 UNK         0.3000 
    155 H155       -1.0440  -16.9074  -44.7717 H         1 UNK         0.0600 
    156 H156       -1.9679  -15.9386  -42.6867 H         1 UNK         0.0600 
    157 H157       -0.5582  -15.0284  -43.2043 H         1 UNK         0.0600 
    158 H158       -0.4307  -16.1644  -41.8642 H         1 UNK         0.0600 
    159 H159        1.4576  -16.4434  -43.5629 H         1 UNK         0.3000 
    160 H160        3.4061  -18.7089  -45.5548 H         1 UNK         0.0600 
    161 H161        3.1819  -15.6570  -45.4678 H         1 UNK         0.0600 
    162 H162        3.0887  -16.6483  -46.9178 H         1 UNK         0.0600 
    163 H163        4.5877  -16.5751  -46.0041 H         1 UNK         0.0600 
    164 H164        3.9983  -16.8277  -43.4490 H         1 UNK         0.3000 
    165 H165        3.8568  -19.1823  -40.7705 H         1 UNK         0.0600 
    166 H166        6.1672  -18.3336  -40.4905 H         1 UNK         0.0600 
    167 H167        6.0972  -19.4474  -41.8467 H         1 UNK         0.0600 
    168 H168        6.1757  -17.7145  -42.1418 H         1 UNK         0.0600 
    169 H169        4.4887  -16.3901  -40.8849 H         1 UNK         0.3000 
    170 H170        1.1793  -15.1751  -40.3491 H         1 UNK         0.0600 
    171 H171        1.9721  -15.9260  -38.0992 H         1 UNK         0.0600 
    172 H172        3.5877  -15.3310  -38.4624 H         1 UNK         0.0600 
    173 H173        2.2340  -14.2065  -38.3389 H         1 UNK         0.0600 
    174 H174        3.5554  -13.7190  -40.3974 H         1 UNK         0.3000 
    175 H175        3.9690  -12.2993  -42.0404 H         1 UNK         0.0600 
    176 H176        4.6584  -14.0886  -44.4368 H         1 UNK         0.0600 
    177 H177        5.4850  -12.6024  -43.9781 H         1 UNK         0.0600 
    178 H178        5.5628  -14.0096  -42.9301 H         1 UNK         0.0600 
    179 H179        2.8748  -12.4486  -44.7517 H         1 UNK         0.3000 
    180 H180        0.0642  -10.3895  -44.0677 H         1 UNK         0.0600 
    181 H181        2.6706   -9.6302  -45.4899 H         1 UNK         0.0600 
    182 H182        1.8935   -8.7062  -44.2103 H         1 UNK         0.0600 
    183 H183        1.0891   -8.8968  -45.7596 H         1 UNK         0.0600 
    184 H184        1.3287  -11.4411  -46.4597 H         1 UNK         0.3000 
    185 H185       -0.0274  -12.7624  -47.7652 H         1 UNK         0.0600 
    186 H186        0.7387  -15.1309  -47.7846 H         1 UNK         0.0600 
    187 H187        1.7740  -14.1588  -46.7564 H         1 UNK         0.0600 
    188 H188        0.5678  -15.2132  -46.0315 H         1 UNK         0.0600 
    189 H189       -1.7225  -14.9345  -46.8857 H         1 UNK         0.3000 
    190 H190       -2.3137  -21.8015  -45.2415 H         1 UNK         0.3000 
    191 H191       -5.2068  -21.1719  -45.6335 H         1 UNK         0.0600 
    192 H192       -4.5301  -19.8778  -43.6730 H         1 UNK         0.0600 
    193 H193       -5.4476  -21.2703  -43.1309 H         1 UNK         0.0600 
    194 H194       -3.6951  -21.2629  -42.9703 H         1 UNK         0.0600 
    195 H195       -2.7239  -23.3783  -44.2355 H         1 UNK         0.3000 
    196 H196       -4.3385  -25.7276  -44.1477 H         1 UNK         0.0600 
    197 H197       -2.0948  -26.8454  -43.9807 H         1 UNK         0.0600 
    198 H198       -2.1752  -25.4435  -42.9249 H         1 UNK         0.0600 
    199 H199       -1.3044  -25.3453  -44.4541 H         1 UNK         0.0600 
    200 H200       -4.1070  -27.6325  -45.5206 H         1 UNK         0.3000 
    201 H201       -4.2956  -28.7777  -47.4209 H         1 UNK         0.0600 
    202 H202       -1.8152  -28.5802  -47.2930 H         1 UNK         0.0600 
    203 H203       -1.8620  -27.1268  -48.2884 H         1 UNK         0.0600 
    204 H204       -2.3557  -28.6749  -48.9609 H         1 UNK         0.0600 
    205 H205       -6.2358  -27.0160  -47.4000 H         1 UNK         0.3000 
    206 H206       -7.7897  -25.8836  -48.5212 H         1 UNK         0.0600 
    207 H207       -7.7585  -27.8755  -50.0362 H         1 UNK         0.0600 
    208 H208       -8.1855  -26.4082  -50.9012 H         1 UNK         0.0600 
    209 H209       -6.5716  -27.0817  -51.0696 H         1 UNK         0.0600 
    210 H210       -5.7776  -24.3655  -47.6629 H         1 UNK         0.3000 
    211 H211       -4.7130  -22.4534  -47.7447 H         1 UNK         0.0600 
    212 H212       -6.5906  -21.7022  -50.0468 H         1 UNK         0.0600 
    213 H213       -5.6325  -20.5773  -49.0983 H         1 UNK         0.0600 
    214 H214       -6.9215  -21.4861  -48.3291 H         1 UNK         0.0600 
    215 H215       -3.2895  -24.4385  -48.7767 H         1 UNK         0.3000 
    216 H216       -1.7232  -25.2120  -50.1357 H         1 UNK         0.0600 
    217 H217        0.0054  -23.5979  -50.9430 H         1 UNK         0.0600 
    218 H218       -0.4566  -23.2661  -49.2870 H         1 UNK         0.0600 
    219 H219       -1.0696  -22.2524  -50.5920 H         1 UNK         0.0600 
    220 H220       -4.0814  -25.4502  -51.2749 H         1 UNK         0.3000 
    221 H221       -5.3545  -25.6717  -53.0744 H         1 UNK         0.0600 
    222 H222       -2.7383  -25.6552  -54.6743 H         1 UNK         0.0600 
    223 H223       -3.4444  -27.0614  -53.8788 H         1 UNK         0.0600 
    224 H224       -4.2842  -26.2932  -55.2167 H         1 UNK         0.0600 
    225 H225       -5.5893  -23.2805  -52.1676 H         1 UNK         0.3000 
    226 H226       -6.1080  -21.1413  -52.4235 H         1 UNK         0.0600 
    227 H227       -7.7812  -22.0689  -54.0243 H         1 UNK         0.0600 
    228 H228       -7.2825  -20.4495  -54.4859 H         1 UNK         0.0600 
    229 H229       -6.6515  -21.8392  -55.3583 H         1 UNK         0.0600 
    230 H230       -3.5511  -21.4103  -52.2090 H         1 UNK         0.3000 
    231 H231       -1.5571  -20.5915  -52.2977 H         1 UNK         0.0600 
    232 H232       -2.8092  -18.1880  -53.7245 H         1 UNK         0.0600 
    233 H233       -1.2302  -18.2142  -52.9531 H         1 UNK         0.0600 
    234 H234       -2.6755  -18.4192  -51.9806 H         1 UNK         0.0600 
    235 H235       -3.0207  -20.6120  -55.4698 H         1 UNK         0.3000 
    236 H236       -2.3656  -21.0122  -57.5410 H         1 UNK         0.0600 
    237 H237       -1.1090  -23.0001  -56.6447 H         1 UNK         0.0600 
    238 H238       -0.3763  -22.3223  -58.0901 H         1 UNK         0.0600 
    239 H239        0.3436  -22.0077  -56.5193 H         1 UNK         0.0600 
    240 H240       -1.8657  -18.4858  -56.0985 H         1 UNK         0.3000 
    241 H241        0.2288  -17.1856  -57.7681 H         1 UNK         0.0600 
    242 H242       -3.4302  -16.0759  -58.8305 H         1 UNK         0.3800 
    243 H243       -3.0641  -17.6214  -58.1110 H         1 UNK         0.3800 
    244 H244       -0.9802  -16.3274  -55.0906 H         1 UNK         0.0800 
    245 H245        0.1599  -15.3765  -56.0158 H         1 UNK         0.0800 
    246 H246        2.8267  -16.2493  -53.5741 H         1 UNK         0.0800 
    247 H247        1.6881  -15.0701  -54.1598 H         1 UNK         0.0800 
@<TRIPOS>BOND
     1    1    2 1    
     2    1  127 1    
     3    1  128 1    
     4    1  129 1    
     5    2    3 2    
     6    2    4 am   BACKBONE|DICT|INTERRES
     7    4    5 1    
     8    4  130 1    
     9    5    6 1    
    10    5   65 1    
    11    5  131 1    
    12    6    7 1    
    13    6  132 1    
    14    6  133 1    
    15    7    8 1    
    16    8    9 1    
    17    8  134 1    
    18    8  135 1    
    19    9   10 ar   
    20    9   14 ar   
    21   10   11 ar   
    22   10  136 1    
    23   11   12 ar   
    24   11  126 1    
    25   12   13 ar   
    26   12  137 1    
    27   13   14 ar   
    28   13   15 1    
    29   14  138 1    
    30   15   16 1    
    31   15  139 1    
    32   15  140 1    
    33   16   17 1    
    34   17   18 1    
    35   17  141 1    
    36   17  142 1    
    37   18   19 1    
    38   18   67 1    
    39   18  143 1    
    40   19   20 am   BACKBONE|DICT|INTERRES
    41   19  144 1    
    42   20   21 2    
    43   20   22 1    
    44   22   23 1    
    45   22   24 1    
    46   22  145 1    
    47   23  146 1    
    48   23  147 1    
    49   23  148 1    
    50   24   25 am   BACKBONE|DICT|INTERRES
    51   24  149 1    
    52   25   26 2    
    53   25   27 1    
    54   27   28 1    
    55   27   29 1    
    56   27  150 1    
    57   28  151 1    
    58   28  152 1    
    59   28  153 1    
    60   29   30 am   BACKBONE|DICT|INTERRES
    61   29  154 1    
    62   30   31 2    
    63   30   32 1    
    64   32   33 1    
    65   32   34 1    
    66   32  155 1    
    67   33  156 1    
    68   33  157 1    
    69   33  158 1    
    70   34   35 am   BACKBONE|DICT|INTERRES
    71   34  159 1    
    72   35   36 2    
    73   35   37 1    
    74   37   38 1    
    75   37   39 1    
    76   37  160 1    
    77   38  161 1    
    78   38  162 1    
    79   38  163 1    
    80   39   40 am   BACKBONE|DICT|INTERRES
    81   39  164 1    
    82   40   41 2    
    83   40   42 1    
    84   42   43 1    
    85   42   44 1    
    86   42  165 1    
    87   43  166 1    
    88   43  167 1    
    89   43  168 1    
    90   44   45 am   BACKBONE|DICT|INTERRES
    91   44  169 1    
    92   45   46 2    
    93   45   47 1    
    94   47   48 1    
    95   47   49 1    
    96   47  170 1    
    97   48  171 1    
    98   48  172 1    
    99   48  173 1    
   100   49   50 am   BACKBONE|DICT|INTERRES
   101   49  174 1    
   102   50   51 2    
   103   50   52 1    
   104   52   53 1    
   105   52   54 1    
   106   52  175 1    
   107   53  176 1    
   108   53  177 1    
   109   53  178 1    
   110   54   55 am   BACKBONE|DICT|INTERRES
   111   54  179 1    
   112   55   56 2    
   113   55   57 1    
   114   57   58 1    
   115   57   59 1    
   116   57  180 1    
   117   58  181 1    
   118   58  182 1    
   119   58  183 1    
   120   59   60 am   BACKBONE|DICT|INTERRES
   121   59  184 1    
   122   60   61 2    
   123   60   62 1    
   124   62   63 1    
   125   62   64 1    
   126   62  185 1    
   127   63  186 1    
   128   63  187 1    
   129   63  188 1    
   130   64   65 am   BACKBONE|DICT|INTERRES
   131   64  189 1    
   132   65   66 2    
   133   67   68 2    
   134   67   69 am   BACKBONE|DICT|INTERRES
   135   69   70 1    
   136   69  190 1    
   137   70   71 1    
   138   70   72 1    
   139   70  191 1    
   140   71  192 1    
   141   71  193 1    
   142   71  194 1    
   143   72   73 2    
   144   72   74 am   BACKBONE|DICT|INTERRES
   145   74   75 1    
   146   74  195 1    
   147   75   76 1    
   148   75   77 1    
   149   75  196 1    
   150   76  197 1    
   151   76  198 1    
   152   76  199 1    
   153   77   78 2    
   154   77   79 am   BACKBONE|DICT|INTERRES
   155   79   80 1    
   156   79  200 1    
   157   80   81 1    
   158   80   82 1    
   159   80  201 1    
   160   81  202 1    
   161   81  203 1    
   162   81  204 1    
   163   82   83 2    
   164   82   84 am   BACKBONE|DICT|INTERRES
   165   84   85 1    
   166   84  205 1    
   167   85   86 1    
   168   85   87 1    
   169   85  206 1    
   170   86  207 1    
   171   86  208 1    
   172   86  209 1    
   173   87   88 2    
   174   87   89 am   BACKBONE|DICT|INTERRES
   175   89   90 1    
   176   89  210 1    
   177   90   91 1    
   178   90   92 1    
   179   90  211 1    
   180   91  212 1    
   181   91  213 1    
   182   91  214 1    
   183   92   93 2    
   184   92   94 am   BACKBONE|DICT|INTERRES
   185   94   95 1    
   186   94  215 1    
   187   95   96 1    
   188   95   97 1    
   189   95  216 1    
   190   96  217 1    
   191   96  218 1    
   192   96  219 1    
   193   97   98 2    
   194   97   99 am   BACKBONE|DICT|INTERRES
   195   99  100 1    
   196   99  220 1    
   197  100  101 1    
   198  100  102 1    
   199  100  221 1    
   200  101  222 1    
   201  101  223 1    
   202  101  224 1    
   203  102  103 2    
   204  102  104 am   BACKBONE|DICT|INTERRES
   205  104  105 1    
   206  104  225 1    
   207  105  106 1    
   208  105  107 1    
   209  105  226 1    
   210  106  227 1    
   211  106  228 1    
   212  106  229 1    
   213  107  108 2    
   214  107  109 am   BACKBONE|DICT|INTERRES
   215  109  110 1    
   216  109  230 1    
   217  110  111 1    
   218  110  112 1    
   219  110  231 1    
   220  111  232 1    
   221  111  233 1    
   222  111  234 1    
   223  112  113 2    
   224  112  114 am   BACKBONE|DICT|INTERRES
   225  114  115 1    
   226  114  235 1    
   227  115  116 1    
   228  115  117 1    
   229  115  236 1    
   230  116  237 1    
   231  116  238 1    
   232  116  239 1    
   233  117  118 2    
   234  117  119 am   BACKBONE|DICT|INTERRES
   235  119  120 1    
   236  119  240 1    
   237  120  121 1    
   238  120  124 1    
   239  120  241 1    
   240  121  122 am   BACKBONE|DICT|INTERRES
   241  121  123 2    
   242  122  242 1    
   243  122  243 1    
   244  124  125 1    
   245  124  244 1    
   246  124  245 1    
   247  125  126 1    
   248  126  246 1    
   249  126  247 1    
@<TRIPOS>SUBSTRUCTURE
     1 UNK         1 GROUP             0       ****    0 ROOT    
