@<TRIPOS>MOLECULE
3R540
247   249    1
SMALL
USER_CHARGES


@<TRIPOS>ATOM
      1 CA          4.2687  -10.3172  -48.5018 C.3       0 UNK        -0.1800 
      2 C           3.2293  -11.3263  -48.0387 C.2       0 UNK         0.5000 
      3 O           2.7371  -11.2242  -46.9127 O.2       0 UNK        -0.5000 
      4 N           2.8767  -12.2891  -48.9026 N.am      1 UNK        -0.5000 
      5 CA          1.9070  -13.3666  -48.6579 C.3       1 UNK         0.1400 
      6 C6          2.1602  -14.5768  -49.5964 C.3       23 UNK        -0.0398 
      7 S7          1.6063  -16.1468  -48.8493 S.3       23 UNK        -0.2404 
      8 C8          0.1276  -16.5413  -49.8345 C.3       23 UNK        -0.0205 
      9 C9          0.3615  -17.7517  -50.7206 C.ar      23 UNK        -0.0193 
     10 C10         0.7251  -17.5916  -52.0602 C.ar      23 UNK        -0.1150 
     11 C11         0.9369  -18.7081  -52.8741 C.ar      23 UNK        -0.0193 
     12 C12         0.8085  -19.9894  -52.3300 C.ar      23 UNK        -0.1150 
     13 C13         0.4397  -20.1616  -50.9935 C.ar      23 UNK        -0.0193 
     14 C14         0.2051  -19.0378  -50.1976 C.ar      23 UNK        -0.1150 
     15 C15         0.2886  -21.5612  -50.4202 C.3       23 UNK        -0.0205 
     16 S16         1.7851  -22.0801  -49.5186 S.3       23 UNK        -0.2404 
     17 C17         1.3834  -21.5599  -47.8129 C.3       23 UNK        -0.0398 
     18 CA          0.9284  -22.7291  -46.9070 C.3       11 UNK         0.1400 
     19 N           0.8109  -22.3183  -45.5081 N.am      11 UNK        -0.5000 
     20 C           0.5766  -23.1487  -44.4822 C.2       10 UNK         0.5000 
     21 O           0.5004  -24.3726  -44.5926 O.2       10 UNK        -0.5000 
     22 CA          0.3309  -22.4956  -43.1111 C.3       10 UNK         0.1400 
     23 CB          1.6587  -22.0992  -42.4494 C.3       10 UNK        -0.1800 
     24 N          -0.5522  -21.3302  -43.1959 N.am      10 UNK        -0.5000 
     25 C          -1.8297  -21.3791  -43.6021 C.2       9 UNK         0.5000 
     26 O          -2.4081  -22.4210  -43.9102 O.2       9 UNK        -0.5000 
     27 CA         -2.5799  -20.0410  -43.7207 C.3       9 UNK         0.1400 
     28 CB         -3.0549  -19.5592  -42.3420 C.3       9 UNK        -0.1800 
     29 N          -1.7835  -18.9942  -44.3606 N.am      9 UNK        -0.5000 
     30 C          -1.3386  -19.0346  -45.6250 C.2       8 UNK         0.5000 
     31 O          -1.5681  -19.9572  -46.4067 O.2       8 UNK        -0.5000 
     32 CA         -0.4343  -17.8725  -46.0732 C.3       8 UNK         0.1400 
     33 CB         -1.2594  -16.6048  -46.3446 C.3       8 UNK        -0.1800 
     34 N           0.6179  -17.5823  -45.0995 N.am      8 UNK        -0.5000 
     35 C           1.5597  -18.4564  -44.7146 C.2       7 UNK         0.5000 
     36 O           1.6818  -19.5880  -45.1831 O.2       7 UNK        -0.5000 
     37 CA          2.4838  -18.0119  -43.5701 C.3       7 UNK         0.1400 
     38 CB          3.6337  -17.1424  -44.1000 C.3       7 UNK        -0.1800 
     39 N           1.7470  -17.2928  -42.5300 N.am      7 UNK        -0.5000 
     40 C           0.8624  -17.8676  -41.7014 C.2       6 UNK         0.5000 
     41 O           0.6045  -19.0707  -41.7050 O.2       6 UNK        -0.5000 
     42 CA          0.1078  -16.9352  -40.7364 C.3       6 UNK         0.1400 
     43 CB          0.9558  -16.6412  -39.4901 C.3       6 UNK        -0.1800 
     44 N          -0.2835  -15.6746  -41.3677 N.am      6 UNK        -0.5000 
     45 C          -1.1762  -15.5724  -42.3625 C.2       5 UNK         0.5000 
     46 O          -1.8028  -16.5286  -42.8171 O.2       5 UNK        -0.5000 
     47 CA         -1.3645  -14.1770  -42.9861 C.3       5 UNK         0.1400 
     48 CB         -2.4651  -13.3979  -42.2524 C.3       5 UNK        -0.1800 
     49 N          -0.1388  -13.3759  -43.0062 N.am      5 UNK        -0.5000 
     50 C           0.9874  -13.6988  -43.6543 C.2       4 UNK         0.5000 
     51 O           1.1240  -14.7444  -44.2923 O.2       4 UNK        -0.5000 
     52 CA          2.1309  -12.6659  -43.5820 C.3       4 UNK         0.1400 
     53 CB          3.4265  -13.1696  -44.2422 C.3       4 UNK        -0.1800 
     54 N           1.7326  -11.4123  -44.2191 N.am      4 UNK        -0.5000 
     55 C           0.9452  -10.4737  -43.6740 C.2       3 UNK         0.5000 
     56 O           0.5324  -10.5186  -42.5141 O.2       3 UNK        -0.5000 
     57 CA          0.4888   -9.3385  -44.6076 C.3       3 UNK         0.1400 
     58 CB          1.6046   -8.2989  -44.7936 C.3       3 UNK        -0.1800 
     59 N           0.0890   -9.8627  -45.9138 N.am      3 UNK        -0.5000 
     60 C          -1.0218  -10.5829  -46.1400 C.2       2 UNK         0.5000 
     61 O          -1.9073  -10.7646  -45.3047 O.2       2 UNK        -0.5000 
     62 CA         -1.1146  -11.2692  -47.5090 C.3       2 UNK         0.1400 
     63 CB         -1.4766  -10.2661  -48.6194 C.3       2 UNK        -0.1800 
     64 N           0.1663  -11.9122  -47.7747 N.am      2 UNK        -0.5000 
     65 C           0.4479  -12.8442  -48.6848 C.2       1 UNK         0.5000 
     66 O          -0.3659  -13.2579  -49.5107 O.2       1 UNK        -0.5000 
     67 C          -0.3751  -23.3825  -47.4093 C.2       11 UNK         0.5000 
     68 O          -0.3160  -24.4691  -47.9818 O.2       11 UNK        -0.5000 
     69 N          -1.5242  -22.7378  -47.1587 N.am      12 UNK        -0.5000 
     70 CA         -2.8468  -23.2368  -47.5392 C.3       12 UNK         0.1400 
     71 CB         -3.9166  -22.1866  -47.2041 C.3       12 UNK        -0.1800 
     72 C          -3.1895  -24.5922  -46.8947 C.2       12 UNK         0.5000 
     73 O          -3.6982  -25.4810  -47.5787 O.2       12 UNK        -0.5000 
     74 N          -2.8606  -24.7426  -45.6042 N.am      13 UNK        -0.5000 
     75 CA         -3.0085  -25.9859  -44.8489 C.3       13 UNK         0.1400 
     76 CB         -2.7270  -25.7196  -43.3624 C.3       13 UNK        -0.1800 
     77 C          -2.1131  -27.1205  -45.3811 C.2       13 UNK         0.5000 
     78 O          -2.5760  -28.2573  -45.4794 O.2       13 UNK        -0.5000 
     79 N          -0.8612  -26.7926  -45.7314 N.am      14 UNK        -0.5000 
     80 CA          0.1070  -27.7252  -46.3099 C.3       14 UNK         0.1400 
     81 CB          1.5095  -27.0987  -46.2716 C.3       14 UNK        -0.1800 
     82 C          -0.2614  -28.1548  -47.7422 C.2       14 UNK         0.5000 
     83 O          -0.1571  -29.3383  -48.0673 O.2       14 UNK        -0.5000 
     84 N          -0.6896  -27.1907  -48.5678 N.am      15 UNK        -0.5000 
     85 CA         -1.1066  -27.4008  -49.9548 C.3       15 UNK         0.1400 
     86 CB         -1.1633  -26.0421  -50.6726 C.3       15 UNK        -0.1800 
     87 C          -2.4632  -28.1168  -50.0824 C.2       15 UNK         0.5000 
     88 O          -2.6941  -28.7856  -51.0905 O.2       15 UNK        -0.5000 
     89 N          -3.3333  -27.9388  -49.0767 N.am      16 UNK        -0.5000 
     90 CA         -4.7384  -28.3558  -49.0301 C.3       16 UNK         0.1400 
     91 CB         -4.8679  -29.8933  -49.0325 C.3       16 UNK        -0.1800 
     92 C          -5.5731  -27.6621  -50.1284 C.2       16 UNK         0.5000 
     93 O          -6.4076  -28.2954  -50.7781 O.2       16 UNK        -0.5000 
     94 N          -5.3102  -26.3656  -50.3226 N.am      17 UNK        -0.5000 
     95 CA         -5.9156  -25.5010  -51.3286 C.3       17 UNK         0.1400 
     96 CB         -5.1861  -25.6803  -52.6718 C.3       17 UNK        -0.1800 
     97 C          -5.8198  -24.0506  -50.8386 C.2       17 UNK         0.5000 
     98 O          -4.9792  -23.7502  -49.9894 O.2       17 UNK        -0.5000 
     99 N          -6.6778  -23.1742  -51.3719 N.am      18 UNK        -0.5000 
    100 CA        -6.7280  -21.7578  -51.0111 C.3       18 UNK         0.1400 
    101 CB        -7.9911  -21.1264  -51.6180 C.3       18 UNK        -0.1800 
    102 C         -5.4740  -20.9918  -51.4716 C.2       18 UNK         0.5000 
    103 O         -5.0669  -21.1212  -52.6283 O.2       18 UNK        -0.5000 
    104 N         -4.9275  -20.1585  -50.5760 N.am      19 UNK        -0.5000 
    105 CA        -3.8025  -19.2571  -50.8483 C.3       19 UNK         0.1400 
    106 CB        -3.3001  -18.6685  -49.5220 C.3       19 UNK        -0.1800 
    107 C         -4.1539  -18.1271  -51.8367 C.2       19 UNK         0.5000 
    108 O         -3.2640  -17.5997  -52.5039 O.2       19 UNK        -0.5000 
    109 N         -5.4508  -17.8028  -51.9480 N.am      20 UNK        -0.5000 
    110 CA        -6.0273  -16.7961  -52.8459 C.3       20 UNK         0.1400 
    111 CB        -7.5361  -16.7041  -52.5681 C.3       20 UNK        -0.1800 
    112 C         -5.7699  -17.0391  -54.3494 C.2       20 UNK         0.5000 
    113 O         -5.9640  -16.1220  -55.1480 O.2       20 UNK        -0.5000 
    114 N         -5.3245  -18.2513  -54.7093 N.am      21 UNK        -0.5000 
    115 CA        -4.8785  -18.6271  -56.0495 C.3       21 UNK         0.1400 
    116 CB        -4.6299  -20.1430  -56.0773 C.3       21 UNK        -0.1800 
    117 C         -3.6206  -17.8686  -56.5247 C.2       21 UNK         0.5000 
    118 O         -3.4420  -17.7187  -57.7346 O.2       21 UNK        -0.5000 
    119 N         -2.7796  -17.4027  -55.5906 N.am      22 UNK        -0.5000 
    120 CA        -1.5378  -16.6689  -55.8905 C.3       22 UNK         0.1400 
    121 C         -1.0585  -15.6856  -54.7855 C.2       22 UNK         0.5000 
    122 N         -1.6458  -15.6456  -53.5970 N.am      22 UNK        -0.7600 
    123 O         -0.1433  -14.9029  -55.0256 O.2       22 UNK        -0.5000 
    124 C124       -0.3963  -17.5811  -56.4244 C.3       23 UNK        -0.0398 
    125 S125       -0.0757  -19.0684  -55.4125 S.3       23 UNK        -0.2404 
    126 C126        1.2997  -18.5399  -54.3411 C.3       23 UNK        -0.0205 
    127 H127        3.8497   -9.3113  -48.4782 H         1 UNK         0.0600 
    128 H128        4.6094  -10.5217  -49.5170 H         1 UNK         0.0600 
    129 H129        5.1341  -10.3426  -47.8397 H         1 UNK         0.0600 
    130 H130        3.2929  -12.2863  -49.8230 H         1 UNK         0.3000 
    131 H131        2.0857  -13.7107  -47.6360 H         1 UNK         0.0600 
    132 H132        3.2316  -14.6920  -49.7660 H         1 UNK         0.0800 
    133 H133        1.7266  -14.4287  -50.5866 H         1 UNK         0.0800 
    134 H134       -0.6954  -16.7374  -49.1505 H         1 UNK         0.0800 
    135 H135       -0.1882  -15.6907  -50.4383 H         1 UNK         0.0800 
    136 H136        0.8353  -16.5977  -52.4701 H         1 UNK         0.1150 
    137 H137        0.9818  -20.8535  -52.9560 H         1 UNK         0.1150 
    138 H138       -0.0930  -19.1589  -49.1676 H         1 UNK         0.1150 
    139 H139       -0.5898  -21.6078  -49.7752 H         1 UNK         0.0800 
    140 H140        0.1049  -22.2756  -51.2242 H         1 UNK         0.0800 
    141 H141        0.6370  -20.7671  -47.8187 H         1 UNK         0.0800 
    142 H142        2.2858  -21.1096  -47.3974 H         1 UNK         0.0800 
    143 H143        1.7063  -23.4950  -46.9422 H         1 UNK         0.0600 
    144 H144        0.9005  -21.3227  -45.3217 H         1 UNK         0.3000 
    145 H145       -0.1570  -23.2366  -42.4745 H         1 UNK         0.0600 
    146 H146        1.4975  -21.7188  -41.4406 H         1 UNK         0.0600 
    147 H147        2.3274  -22.9572  -42.3701 H         1 UNK         0.0600 
    148 H148        2.1785  -21.3283  -43.0185 H         1 UNK         0.0600 
    149 H149       -0.1582  -20.4392  -42.9092 H         1 UNK         0.3000 
    150 H150       -3.4617  -20.2105  -44.3416 H         1 UNK         0.0600 
    151 H151       -3.6604  -20.3205  -41.8485 H         1 UNK         0.0600 
    152 H152       -3.6678  -18.6619  -42.4287 H         1 UNK         0.0600 
    153 H153       -2.2161  -19.3278  -41.6848 H         1 UNK         0.0600 
    154 H154       -1.5818  -18.1730  -43.7968 H         1 UNK         0.3000 
    155 H155        0.0540  -18.1686  -47.0029 H         1 UNK         0.0600 
    156 H156       -0.6274  -15.7853  -46.6874 H         1 UNK         0.0600 
    157 H157       -2.0092  -16.7869  -47.1152 H         1 UNK         0.0600 
    158 H158       -1.7883  -16.2668  -45.4550 H         1 UNK         0.0600 
    159 H159        0.6270  -16.6523  -44.6930 H         1 UNK         0.3000 
    160 H160        2.9182  -18.9070  -43.1202 H         1 UNK         0.0600 
    161 H161        3.2677  -16.2619  -44.6275 H         1 UNK         0.0600 
    162 H162        4.2504  -17.7054  -44.8015 H         1 UNK         0.0600 
    163 H163        4.2838  -16.8073  -43.2917 H         1 UNK         0.0600 
    164 H164        1.8539  -16.2896  -42.5101 H         1 UNK         0.3000 
    165 H165       -0.8004  -17.4511  -40.4173 H         1 UNK         0.0600 
    166 H166        0.3996  -16.0446  -38.7668 H         1 UNK         0.0600 
    167 H167        1.2478  -17.5661  -38.9907 H         1 UNK         0.0600 
    168 H168        1.8694  -16.1006  -39.7403 H         1 UNK         0.0600 
    169 H169        0.1831  -14.8372  -41.0522 H         1 UNK         0.3000 
    170 H170       -1.6810  -14.3178  -44.0212 H         1 UNK         0.0600 
    171 H171       -3.4004  -13.9592  -42.2415 H         1 UNK         0.0600 
    172 H172       -2.1916  -13.1924  -41.2168 H         1 UNK         0.0600 
    173 H173       -2.6646  -12.4446  -42.7429 H         1 UNK         0.0600 
    174 H174       -0.1723  -12.4741  -42.5434 H         1 UNK         0.3000 
    175 H175        2.3445  -12.4787  -42.5277 H         1 UNK         0.0600 
    176 H176        3.8036  -14.0559  -43.7318 H         1 UNK         0.0600 
    177 H177        3.2737  -13.4309  -45.2901 H         1 UNK         0.0600 
    178 H178        4.2108  -12.4137  -44.1988 H         1 UNK         0.0600 
    179 H179        2.0456  -11.2891  -45.1783 H         1 UNK         0.3000 
    180 H180       -0.3708   -8.8443  -44.1497 H         1 UNK         0.0600 
    181 H181        2.4861   -8.7311  -45.2695 H         1 UNK         0.0600 
    182 H182        1.9178   -7.8875  -43.8332 H         1 UNK         0.0600 
    183 H183        1.2667   -7.4651  -45.4092 H         1 UNK         0.0600 
    184 H184        0.7579   -9.7466  -46.6615 H         1 UNK         0.3000 
    185 H185       -1.8875  -12.0385  -47.4536 H         1 UNK         0.0600 
    186 H186       -2.4080   -9.7483  -48.3874 H         1 UNK         0.0600 
    187 H187       -0.7018   -9.5096  -48.7491 H         1 UNK         0.0600 
    188 H188       -1.6163  -10.7674  -49.5771 H         1 UNK         0.0600 
    189 H189        0.9329  -11.6344  -47.1692 H         1 UNK         0.3000 
    190 H190       -1.4967  -21.8274  -46.7061 H         1 UNK         0.3000 
    191 H191       -2.8324  -23.3799  -48.6205 H         1 UNK         0.0600 
    192 H192       -3.9383  -21.9575  -46.1389 H         1 UNK         0.0600 
    193 H193       -4.9099  -22.5381  -47.4855 H         1 UNK         0.0600 
    194 H194       -3.7377  -21.2578  -47.7430 H         1 UNK         0.0600 
    195 H195       -2.4891  -23.9427  -45.0985 H         1 UNK         0.3000 
    196 H196       -4.0466  -26.3108  -44.9443 H         1 UNK         0.0600 
    197 H197       -2.8463  -26.6290  -42.7723 H         1 UNK         0.0600 
    198 H198       -3.4151  -24.9767  -42.9588 H         1 UNK         0.0600 
    199 H199       -1.7119  -25.3543  -43.2037 H         1 UNK         0.0600 
    200 H200       -0.5426  -25.8406  -45.5817 H         1 UNK         0.3000 
    201 H201        0.1236  -28.6228  -45.6882 H         1 UNK         0.0600 
    202 H202        1.8095  -26.8686  -45.2491 H         1 UNK         0.0600 
    203 H203        1.5549  -26.1742  -46.8479 H         1 UNK         0.0600 
    204 H204        2.2541  -27.7807  -46.6840 H         1 UNK         0.0600 
    205 H205       -0.6849  -26.2263  -48.2389 H         1 UNK         0.3000 
    206 H206       -0.3547  -28.0190  -50.4496 H         1 UNK         0.0600 
    207 H207       -0.1948  -25.5421  -50.6496 H         1 UNK         0.0600 
    208 H208       -1.4432  -26.1627  -51.7199 H         1 UNK         0.0600 
    209 H209       -1.8943  -25.3755  -50.2122 H         1 UNK         0.0600 
    210 H210       -3.0576  -27.3080  -48.3322 H         1 UNK         0.3000 
    211 H211       -5.1289  -27.9955  -48.0772 H         1 UNK         0.0600 
    212 H212       -4.5594  -30.3283  -49.9832 H         1 UNK         0.0600 
    213 H213       -5.9005  -30.1962  -48.8560 H         1 UNK         0.0600 
    214 H214       -4.2598  -30.3396  -48.2456 H         1 UNK         0.0600 
    215 H215       -4.6663  -25.8897  -49.6980 H         1 UNK         0.3000 
    216 H216       -6.9706  -25.7587  -51.4421 H         1 UNK         0.0600 
    217 H217       -4.1259  -25.4382  -52.5855 H         1 UNK         0.0600 
    218 H218       -5.6105  -25.0328  -53.4399 H         1 UNK         0.0600 
    219 H219       -5.2656  -26.7061  -53.0319 H         1 UNK         0.0600 
    220 H220       -7.3145  -23.4796  -52.0932 H         1 UNK         0.3000 
    221 H221       -6.8034  -21.6920  -49.9233 H         1 UNK         0.0600 
    222 H222       -8.8924  -21.6273  -51.2640 H         1 UNK         0.0600 
    223 H223       -7.9837  -21.1783  -52.7077 H         1 UNK         0.0600 
    224 H224       -8.0758  -20.0749  -51.3409 H         1 UNK         0.0600 
    225 H225       -5.3192  -20.1147  -49.6465 H         1 UNK         0.3000 
    226 H226       -2.9923  -19.8374  -51.2955 H         1 UNK         0.0600 
    227 H227       -2.8346  -19.4330  -48.9009 H         1 UNK         0.0600 
    228 H228       -2.5497  -17.9007  -49.7006 H         1 UNK         0.0600 
    229 H229       -4.1053  -18.2071  -48.9495 H         1 UNK         0.0600 
    230 H230       -6.1049  -18.2954  -51.3592 H         1 UNK         0.3000 
    231 H231       -5.5716  -15.8360  -52.5961 H         1 UNK         0.0600 
    232 H232       -8.0406  -17.6483  -52.7773 H         1 UNK         0.0600 
    233 H233       -8.0036  -15.9379  -53.1880 H         1 UNK         0.0600 
    234 H234       -7.7318  -16.4405  -51.5286 H         1 UNK         0.0600 
    235 H235       -5.2028  -18.9477  -53.9869 H         1 UNK         0.3000 
    236 H236       -5.6856  -18.3976  -56.7481 H         1 UNK         0.0600 
    237 H237       -5.5311  -20.6967  -55.8131 H         1 UNK         0.0600 
    238 H238       -4.3253  -20.4721  -57.0716 H         1 UNK         0.0600 
    239 H239       -3.8429  -20.4325  -55.3793 H         1 UNK         0.0600 
    240 H240       -2.9799  -17.5688  -54.6123 H         1 UNK         0.3000 
    241 H241       -1.7871  -15.9892  -56.7078 H         1 UNK         0.0600 
    242 H242       -1.3224  -14.9659  -52.9293 H         1 UNK         0.3800 
    243 H243       -2.3270  -16.3391  -53.2962 H         1 UNK         0.3800 
    244 H244        0.5278  -17.0205  -56.5734 H         1 UNK         0.0800 
    245 H245       -0.6686  -17.9351  -57.4192 H         1 UNK         0.0800 
    246 H246        2.1799  -19.1428  -54.5683 H         1 UNK         0.0800 
    247 H247        1.5758  -17.5053  -54.5488 H         1 UNK         0.0800 
@<TRIPOS>BOND
     1    1    2 1    
     2    1  127 1    
     3    1  128 1    
     4    1  129 1    
     5    2    3 2    
     6    2    4 am   BACKBONE|DICT|INTERRES
     7    4    5 1    
     8    4  130 1    
     9    5    6 1    
    10    5   65 1    
    11    5  131 1    
    12    6    7 1    
    13    6  132 1    
    14    6  133 1    
    15    7    8 1    
    16    8    9 1    
    17    8  134 1    
    18    8  135 1    
    19    9   10 ar   
    20    9   14 ar   
    21   10   11 ar   
    22   10  136 1    
    23   11   12 ar   
    24   11  126 1    
    25   12   13 ar   
    26   12  137 1    
    27   13   14 ar   
    28   13   15 1    
    29   14  138 1    
    30   15   16 1    
    31   15  139 1    
    32   15  140 1    
    33   16   17 1    
    34   17   18 1    
    35   17  141 1    
    36   17  142 1    
    37   18   19 1    
    38   18   67 1    
    39   18  143 1    
    40   19   20 am   BACKBONE|DICT|INTERRES
    41   19  144 1    
    42   20   21 2    
    43   20   22 1    
    44   22   23 1    
    45   22   24 1    
    46   22  145 1    
    47   23  146 1    
    48   23  147 1    
    49   23  148 1    
    50   24   25 am   BACKBONE|DICT|INTERRES
    51   24  149 1    
    52   25   26 2    
    53   25   27 1    
    54   27   28 1    
    55   27   29 1    
    56   27  150 1    
    57   28  151 1    
    58   28  152 1    
    59   28  153 1    
    60   29   30 am   BACKBONE|DICT|INTERRES
    61   29  154 1    
    62   30   31 2    
    63   30   32 1    
    64   32   33 1    
    65   32   34 1    
    66   32  155 1    
    67   33  156 1    
    68   33  157 1    
    69   33  158 1    
    70   34   35 am   BACKBONE|DICT|INTERRES
    71   34  159 1    
    72   35   36 2    
    73   35   37 1    
    74   37   38 1    
    75   37   39 1    
    76   37  160 1    
    77   38  161 1    
    78   38  162 1    
    79   38  163 1    
    80   39   40 am   BACKBONE|DICT|INTERRES
    81   39  164 1    
    82   40   41 2    
    83   40   42 1    
    84   42   43 1    
    85   42   44 1    
    86   42  165 1    
    87   43  166 1    
    88   43  167 1    
    89   43  168 1    
    90   44   45 am   BACKBONE|DICT|INTERRES
    91   44  169 1    
    92   45   46 2    
    93   45   47 1    
    94   47   48 1    
    95   47   49 1    
    96   47  170 1    
    97   48  171 1    
    98   48  172 1    
    99   48  173 1    
   100   49   50 am   BACKBONE|DICT|INTERRES
   101   49  174 1    
   102   50   51 2    
   103   50   52 1    
   104   52   53 1    
   105   52   54 1    
   106   52  175 1    
   107   53  176 1    
   108   53  177 1    
   109   53  178 1    
   110   54   55 am   BACKBONE|DICT|INTERRES
   111   54  179 1    
   112   55   56 2    
   113   55   57 1    
   114   57   58 1    
   115   57   59 1    
   116   57  180 1    
   117   58  181 1    
   118   58  182 1    
   119   58  183 1    
   120   59   60 am   BACKBONE|DICT|INTERRES
   121   59  184 1    
   122   60   61 2    
   123   60   62 1    
   124   62   63 1    
   125   62   64 1    
   126   62  185 1    
   127   63  186 1    
   128   63  187 1    
   129   63  188 1    
   130   64   65 am   BACKBONE|DICT|INTERRES
   131   64  189 1    
   132   65   66 2    
   133   67   68 2    
   134   67   69 am   BACKBONE|DICT|INTERRES
   135   69   70 1    
   136   69  190 1    
   137   70   71 1    
   138   70   72 1    
   139   70  191 1    
   140   71  192 1    
   141   71  193 1    
   142   71  194 1    
   143   72   73 2    
   144   72   74 am   BACKBONE|DICT|INTERRES
   145   74   75 1    
   146   74  195 1    
   147   75   76 1    
   148   75   77 1    
   149   75  196 1    
   150   76  197 1    
   151   76  198 1    
   152   76  199 1    
   153   77   78 2    
   154   77   79 am   BACKBONE|DICT|INTERRES
   155   79   80 1    
   156   79  200 1    
   157   80   81 1    
   158   80   82 1    
   159   80  201 1    
   160   81  202 1    
   161   81  203 1    
   162   81  204 1    
   163   82   83 2    
   164   82   84 am   BACKBONE|DICT|INTERRES
   165   84   85 1    
   166   84  205 1    
   167   85   86 1    
   168   85   87 1    
   169   85  206 1    
   170   86  207 1    
   171   86  208 1    
   172   86  209 1    
   173   87   88 2    
   174   87   89 am   BACKBONE|DICT|INTERRES
   175   89   90 1    
   176   89  210 1    
   177   90   91 1    
   178   90   92 1    
   179   90  211 1    
   180   91  212 1    
   181   91  213 1    
   182   91  214 1    
   183   92   93 2    
   184   92   94 am   BACKBONE|DICT|INTERRES
   185   94   95 1    
   186   94  215 1    
   187   95   96 1    
   188   95   97 1    
   189   95  216 1    
   190   96  217 1    
   191   96  218 1    
   192   96  219 1    
   193   97   98 2    
   194   97   99 am   BACKBONE|DICT|INTERRES
   195   99  100 1    
   196   99  220 1    
   197  100  101 1    
   198  100  102 1    
   199  100  221 1    
   200  101  222 1    
   201  101  223 1    
   202  101  224 1    
   203  102  103 2    
   204  102  104 am   BACKBONE|DICT|INTERRES
   205  104  105 1    
   206  104  225 1    
   207  105  106 1    
   208  105  107 1    
   209  105  226 1    
   210  106  227 1    
   211  106  228 1    
   212  106  229 1    
   213  107  108 2    
   214  107  109 am   BACKBONE|DICT|INTERRES
   215  109  110 1    
   216  109  230 1    
   217  110  111 1    
   218  110  112 1    
   219  110  231 1    
   220  111  232 1    
   221  111  233 1    
   222  111  234 1    
   223  112  113 2    
   224  112  114 am   BACKBONE|DICT|INTERRES
   225  114  115 1    
   226  114  235 1    
   227  115  116 1    
   228  115  117 1    
   229  115  236 1    
   230  116  237 1    
   231  116  238 1    
   232  116  239 1    
   233  117  118 2    
   234  117  119 am   BACKBONE|DICT|INTERRES
   235  119  120 1    
   236  119  240 1    
   237  120  121 1    
   238  120  124 1    
   239  120  241 1    
   240  121  122 am   BACKBONE|DICT|INTERRES
   241  121  123 2    
   242  122  242 1    
   243  122  243 1    
   244  124  125 1    
   245  124  244 1    
   246  124  245 1    
   247  125  126 1    
   248  126  246 1    
   249  126  247 1    
@<TRIPOS>SUBSTRUCTURE
     1 UNK         1 GROUP             0       ****    0 ROOT    
