@<TRIPOS>MOLECULE
3R540
247   249    1
SMALL
USER_CHARGES


@<TRIPOS>ATOM
      1 CA          7.0063  -15.1476  -46.2466 C.3       0 UNK        -0.1800 
      2 C           6.0463  -14.0635  -46.7139 C.2       0 UNK         0.5000 
      3 O           6.3910  -13.2839  -47.6016 O.2       0 UNK        -0.5000 
      4 N           4.8506  -14.0160  -46.1132 N.am      1 UNK        -0.5000 
      5 CA          3.7753  -13.0496  -46.3741 C.3       1 UNK         0.1400 
      6 C6          3.1910  -13.1098  -47.8112 C.3       23 UNK        -0.0398 
      7 S7          2.3689  -14.6961  -48.1611 S.3       23 UNK        -0.2404 
      8 C8          3.4215  -15.3712  -49.4844 C.3       23 UNK        -0.0205 
      9 C9          2.7621  -16.5638  -50.1626 C.ar      23 UNK        -0.0193 
     10 C10         1.7042  -16.3541  -51.0505 C.ar      23 UNK        -0.1150 
     11 C11         1.0696  -17.4305  -51.6794 C.ar      23 UNK        -0.0193 
     12 C12         1.5320  -18.7281  -51.4379 C.ar      23 UNK        -0.1150 
     13 C13         2.6154  -18.9517  -50.5823 C.ar      23 UNK        -0.0193 
     14 C14         3.2166  -17.8664  -49.9348 C.ar      23 UNK        -0.1150 
     15 C15         3.1801  -20.3557  -50.4112 C.3       23 UNK        -0.0205 
     16 S16         2.6200  -21.1618  -48.8813 S.3       23 UNK        -0.2404 
     17 C17         0.9020  -21.6114  -49.2973 C.3       23 UNK        -0.0398 
     18 CA          0.3152  -22.6562  -48.3172 C.3       11 UNK         0.1400 
     19 N           0.2966  -22.1892  -46.9268 N.am      11 UNK        -0.5000 
     20 C          -0.0289  -22.9428  -45.8673 C.2       10 UNK         0.5000 
     21 O          -0.3063  -24.1397  -45.9388 O.2       10 UNK        -0.5000 
     22 CA         -0.1039  -22.2329  -44.5055 C.3       10 UNK         0.1400 
     23 CB          1.2849  -22.1322  -43.8565 C.3       10 UNK        -0.1800 
     24 N          -0.6973  -20.9013  -44.6227 N.am      10 UNK        -0.5000 
     25 C          -2.0062  -20.6730  -44.7996 C.2       9 UNK         0.5000 
     26 O          -2.8532  -21.5656  -44.8424 O.2       9 UNK        -0.5000 
     27 CA         -2.4367  -19.2054  -44.9997 C.3       9 UNK         0.1400 
     28 CB         -2.6089  -18.4991  -43.6470 C.3       9 UNK        -0.1800 
     29 N          -1.5045  -18.4376  -45.8266 N.am      9 UNK        -0.5000 
     30 C          -1.2323  -18.7162  -47.1098 C.2       8 UNK         0.5000 
     31 O          -1.7621  -19.6327  -47.7325 O.2       8 UNK        -0.5000 
     32 CA         -0.1486  -17.8689  -47.7973 C.3       8 UNK         0.1400 
     33 CB         -0.7684  -16.5684  -48.3302 C.3       8 UNK        -0.1800 
     34 N           1.0013  -17.5606  -46.9399 N.am      8 UNK        -0.5000 
     35 C           1.7335  -18.4514  -46.2514 C.2       7 UNK         0.5000 
     36 O           1.4982  -19.6566  -46.2190 O.2       7 UNK        -0.5000 
     37 CA          2.8569  -17.8908  -45.3737 C.3       7 UNK         0.1400 
     38 CB          4.0909  -17.5372  -46.2249 C.3       7 UNK        -0.1800 
     39 N           2.3010  -16.7721  -44.6148 N.am      7 UNK        -0.5000 
     40 C           2.9016  -15.8375  -43.8795 C.2       6 UNK         0.5000 
     41 O           4.1189  -15.6493  -43.8573 O.2       6 UNK        -0.5000 
     42 CA          1.9583  -14.9606  -43.0246 C.3       6 UNK         0.1400 
     43 CB          2.7270  -13.9257  -42.1833 C.3       6 UNK        -0.1800 
     44 N           0.9115  -14.2677  -43.7864 N.am      6 UNK        -0.5000 
     45 C          -0.1597  -14.8214  -44.3807 C.2       5 UNK         0.5000 
     46 O          -0.3473  -16.0396  -44.4496 O.2       5 UNK        -0.5000 
     47 CA         -1.1935  -13.8514  -45.0002 C.3       5 UNK         0.1400 
     48 CB         -2.5856  -14.4968  -45.1767 C.3       5 UNK        -0.1800 
     49 N          -1.2975  -12.5771  -44.2756 N.am      5 UNK        -0.5000 
     50 C          -1.6353  -12.4052  -42.9873 C.2       4 UNK         0.5000 
     51 O          -2.0252  -13.3197  -42.2593 O.2       4 UNK        -0.5000 
     52 CA         -1.5026  -10.9772  -42.4040 C.3       4 UNK         0.1400 
     53 CB         -1.1071  -11.0061  -40.9126 C.3       4 UNK        -0.1800 
     54 N          -0.6023  -10.0624  -43.1269 N.am      4 UNK        -0.5000 
     55 C           0.6943  -10.2516  -43.4155 C.2       3 UNK         0.5000 
     56 O           1.2632  -11.3390  -43.2939 O.2       3 UNK        -0.5000 
     57 CA          1.4547   -9.0282  -43.9757 C.3       3 UNK         0.1400 
     58 CB          1.3423   -7.7942  -43.0547 C.3       3 UNK        -0.1800 
     59 N           2.8561   -9.3361  -44.2831 N.am      3 UNK        -0.5000 
     60 C           3.8472   -9.6580  -43.4378 C.2       2 UNK         0.5000 
     61 O           3.7738   -9.5643  -42.2109 O.2       2 UNK        -0.5000 
     62 CA          5.1172  -10.2409  -44.0986 C.3       2 UNK         0.1400 
     63 CB          6.2565  -10.4861  -43.0929 C.3       2 UNK        -0.1800 
     64 N           4.8152  -11.5034  -44.7788 N.am      2 UNK        -0.5000 
     65 C           4.1729  -11.6203  -45.9493 C.2       1 UNK         0.5000 
     66 O           3.8658  -10.6506  -46.6469 O.2       1 UNK        -0.5000 
     67 C          -1.0836  -23.1191  -48.7727 C.2       11 UNK         0.5000 
     68 O          -1.2053  -24.1978  -49.3529 O.2       11 UNK        -0.5000 
     69 N          -2.1168  -22.3290  -48.4482 N.am      12 UNK        -0.5000 
     70 CA         -3.5215  -22.6518  -48.6857 C.3       12 UNK         0.1400 
     71 CB         -4.3985  -21.4467  -48.3239 C.3       12 UNK        -0.1800 
     72 C          -3.9794  -23.8956  -47.9099 C.2       12 UNK         0.5000 
     73 O          -4.6666  -24.7374  -48.4842 O.2       12 UNK        -0.5000 
     74 N          -3.5718  -24.0118  -46.6370 N.am      13 UNK        -0.5000 
     75 CA         -3.8558  -25.1696  -45.7866 C.3       13 UNK         0.1400 
     76 CB         -3.4173  -24.8832  -44.3431 C.3       13 UNK        -0.1800 
     77 C          -3.2115  -26.4644  -46.3147 C.2       13 UNK         0.5000 
     78 O          -3.8809  -27.4968  -46.3594 O.2       13 UNK        -0.5000 
     79 N          -1.9497  -26.3774  -46.7600 N.am      14 UNK        -0.5000 
     80 CA         -1.2131  -27.4697  -47.4030 C.3       14 UNK         0.1400 
     81 CB          0.2514  -27.0506  -47.6001 C.3       14 UNK        -0.1800 
     82 C          -1.8402  -27.9134  -48.7400 C.2       14 UNK         0.5000 
     83 O          -1.8432  -29.1057  -49.0468 O.2       14 UNK        -0.5000 
     84 N          -2.3981  -26.9516  -49.4858 N.am      15 UNK        -0.5000 
     85 CA         -3.1540  -27.1611  -50.7215 C.3       15 UNK         0.1400 
     86 CB         -3.0612  -25.8814  -51.5670 C.3       15 UNK        -0.1800 
     87 C          -4.6290  -27.5573  -50.4860 C.2       15 UNK         0.5000 
     88 O          -5.3733  -27.6827  -51.4591 O.2       15 UNK        -0.5000 
     89 N          -5.0452  -27.7170  -49.2189 N.am      16 UNK        -0.5000 
     90 CA         -6.3961  -28.0666  -48.7591 C.3       16 UNK         0.1400 
     91 CB         -6.7306  -29.5241  -49.1380 C.3       16 UNK        -0.1800 
     92 C          -7.4822  -27.0656  -49.2147 C.2       16 UNK         0.5000 
     93 O          -8.6242  -27.4590  -49.4572 O.2       16 UNK        -0.5000 
     94 N          -7.0888  -25.7903  -49.3454 N.am      17 UNK        -0.5000 
     95 CA         -7.8560  -24.6395  -49.8319 C.3       17 UNK         0.1400 
     96 CB         -9.0363  -24.3283  -48.8894 C.3       17 UNK        -0.1800 
     97 C          -8.2913  -24.7329  -51.3118 C.2       17 UNK         0.5000 
     98 O          -9.0916  -23.9074  -51.7546 O.2       17 UNK        -0.5000 
     99 N          -7.7546  -25.7036  -52.0660 N.am      18 UNK        -0.5000 
    100 CA        -8.0410  -25.8959  -53.4899 C.3       18 UNK         0.1400 
    101 CB        -7.7839  -27.3656  -53.8570 C.3       18 UNK        -0.1800 
    102 C         -7.2134  -24.9622  -54.3940 C.2       18 UNK         0.5000 
    103 O         -7.5698  -24.7742  -55.5581 O.2       18 UNK        -0.5000 
    104 N         -6.1280  -24.4011  -53.8517 N.am      19 UNK        -0.5000 
    105 CA        -5.1910  -23.5010  -54.5106 C.3       19 UNK         0.1400 
    106 CB        -4.2545  -24.3093  -55.4323 C.3       19 UNK        -0.1800 
    107 C         -4.4029  -22.7411  -53.4311 C.2       19 UNK         0.5000 
    108 O         -4.6116  -22.9779  -52.2388 O.2       19 UNK        -0.5000 
    109 N         -3.5050  -21.8505  -53.8755 N.am      20 UNK        -0.5000 
    110 CA        -2.4958  -21.1306  -53.0843 C.3       20 UNK         0.1400 
    111 CB        -1.4894  -22.1215  -52.4647 C.3       20 UNK        -0.1800 
    112 C         -3.0498  -20.1343  -52.0421 C.2       20 UNK         0.5000 
    113 O         -2.2949  -19.6851  -51.1806 O.2       20 UNK        -0.5000 
    114 N         -4.3370  -19.7777  -52.1531 N.am      21 UNK        -0.5000 
    115 CA        -4.9996  -18.7881  -51.3007 C.3       21 UNK         0.1400 
    116 CB        -6.5221  -18.9331  -51.4472 C.3       21 UNK        -0.1800 
    117 C         -4.5489  -17.3468  -51.6009 C.2       21 UNK         0.5000 
    118 O         -4.4319  -16.5515  -50.6681 O.2       21 UNK        -0.5000 
    119 N         -4.2974  -17.0692  -52.8904 N.am      22 UNK        -0.5000 
    120 CA        -3.8142  -15.8060  -53.4759 C.3       22 UNK         0.1400 
    121 C         -4.4670  -14.5053  -52.9106 C.2       22 UNK         0.5000 
    122 N         -3.7019  -13.4847  -52.5450 N.am      22 UNK        -0.7600 
    123 O         -5.6903  -14.3953  -52.8639 O.2       22 UNK        -0.5000 
    124 C124       -2.2693  -15.7750  -53.6652 C.3       23 UNK        -0.0398 
    125 S125       -1.2768  -15.9483  -52.1401 S.3       23 UNK        -0.2404 
    126 C126       -0.0629  -17.2015  -52.6756 C.3       23 UNK        -0.0205 
    127 H127        7.9992  -14.7282  -46.0840 H         1 UNK         0.0600 
    128 H128        6.6761  -15.6020  -45.3121 H         1 UNK         0.0600 
    129 H129        7.0830  -15.9305  -47.0009 H         1 UNK         0.0600 
    130 H130        4.6546  -14.6853  -45.3718 H         1 UNK         0.3000 
    131 H131        2.9671  -13.3209  -45.6938 H         1 UNK         0.0600 
    132 H132        2.4291  -12.3405  -47.9475 H         1 UNK         0.0800 
    133 H133        3.9590  -12.9024  -48.5568 H         1 UNK         0.0800 
    134 H134        3.6095  -14.5992  -50.2319 H         1 UNK         0.0800 
    135 H135        4.3931  -15.6455  -49.0709 H         1 UNK         0.0800 
    136 H136        1.3689  -15.3448  -51.2426 H         1 UNK         0.1150 
    137 H137        1.0674  -19.5643  -51.9412 H         1 UNK         0.1150 
    138 H138        4.0526  -18.0365  -49.2720 H         1 UNK         0.1150 
    139 H139        2.9286  -20.9807  -51.2694 H         1 UNK         0.0800 
    140 H140        4.2695  -20.3008  -50.3922 H         1 UNK         0.0800 
    141 H141        0.8989  -22.0128  -50.3113 H         1 UNK         0.0800 
    142 H142        0.2918  -20.7076  -49.3182 H         1 UNK         0.0800 
    143 H143        0.9624  -23.5355  -48.3461 H         1 UNK         0.0600 
    144 H144        0.5778  -21.2248  -46.7688 H         1 UNK         0.3000 
    145 H145       -0.7352  -22.8348  -43.8484 H         1 UNK         0.0600 
    146 H146        1.2292  -21.6545  -42.8783 H         1 UNK         0.0600 
    147 H147        1.7159  -23.1233  -43.7103 H         1 UNK         0.0600 
    148 H148        1.9825  -21.5616  -44.4696 H         1 UNK         0.0600 
    149 H149       -0.0530  -20.1266  -44.7047 H         1 UNK         0.3000 
    150 H150       -3.4036  -19.2120  -45.5070 H         1 UNK         0.0600 
    151 H151       -3.3127  -19.0373  -43.0108 H         1 UNK         0.0600 
    152 H152       -2.9950  -17.4879  -43.7774 H         1 UNK         0.0600 
    153 H153       -1.6637  -18.4272  -43.1075 H         1 UNK         0.0600 
    154 H154       -1.0354  -17.6546  -45.3821 H         1 UNK         0.3000 
    155 H155        0.2255  -18.4385  -48.6492 H         1 UNK         0.0600 
    156 H156       -0.0812  -16.0402  -48.9868 H         1 UNK         0.0600 
    157 H157       -1.0436  -15.8912  -47.5233 H         1 UNK         0.0600 
    158 H158       -1.6668  -16.7723  -48.9155 H         1 UNK         0.0600 
    159 H159        1.2905  -16.5927  -46.9194 H         1 UNK         0.3000 
    160 H160        3.1396  -18.6665  -44.6599 H         1 UNK         0.0600 
    161 H161        3.9277  -16.6522  -46.8337 H         1 UNK         0.0600 
    162 H162        4.3467  -18.3574  -46.8966 H         1 UNK         0.0600 
    163 H163        4.9663  -17.3628  -45.6014 H         1 UNK         0.0600 
    164 H164        1.2824  -16.7599  -44.5783 H         1 UNK         0.3000 
    165 H165        1.4598  -15.6362  -42.3267 H         1 UNK         0.0600 
    166 H166        3.2422  -13.1987  -42.8118 H         1 UNK         0.0600 
    167 H167        2.0546  -13.3775  -41.5229 H         1 UNK         0.0600 
    168 H168        3.4759  -14.4063  -41.5527 H         1 UNK         0.0600 
    169 H169        0.9633  -13.2533  -43.7561 H         1 UNK         0.3000 
    170 H170       -0.8150  -13.6094  -45.9943 H         1 UNK         0.0600 
    171 H171       -3.0103  -14.8135  -44.2240 H         1 UNK         0.0600 
    172 H172       -2.5388  -15.3798  -45.8138 H         1 UNK         0.0600 
    173 H173       -3.2853  -13.8019  -45.6407 H         1 UNK         0.0600 
    174 H174       -0.9854  -11.7596  -44.7798 H         1 UNK         0.3000 
    175 H175       -2.4986  -10.5375  -42.4720 H         1 UNK         0.0600 
    176 H176       -1.0476   -9.9988  -40.5003 H         1 UNK         0.0600 
    177 H177       -1.8394  -11.5527  -40.3173 H         1 UNK         0.0600 
    178 H178       -0.1389  -11.4861  -40.7645 H         1 UNK         0.0600 
    179 H179       -0.9982   -9.1542  -43.3263 H         1 UNK         0.3000 
    180 H180        0.9887   -8.7800  -44.9303 H         1 UNK         0.0600 
    181 H181        1.6510   -8.0178  -42.0331 H         1 UNK         0.0600 
    182 H182        0.3171   -7.4264  -43.0089 H         1 UNK         0.0600 
    183 H183        1.9596   -6.9729  -43.4189 H         1 UNK         0.0600 
    184 H184        3.0439   -9.5195  -45.2642 H         1 UNK         0.3000 
    185 H185        5.4710   -9.5145  -44.8332 H         1 UNK         0.0600 
    186 H186        7.1528  -10.8507  -43.5950 H         1 UNK         0.0600 
    187 H187        6.5268   -9.5641  -42.5767 H         1 UNK         0.0600 
    188 H188        5.9756  -11.2184  -42.3349 H         1 UNK         0.0600 
    189 H189        5.0246  -12.3465  -44.2646 H         1 UNK         0.3000 
    190 H190       -1.9307  -21.4195  -48.0285 H         1 UNK         0.3000 
    191 H191       -3.6390  -22.8533  -49.7515 H         1 UNK         0.0600 
    192 H192       -4.0691  -20.5586  -48.8582 H         1 UNK         0.0600 
    193 H193       -5.4408  -21.6259  -48.5904 H         1 UNK         0.0600 
    194 H194       -4.3595  -21.2224  -47.2573 H         1 UNK         0.0600 
    195 H195       -3.0389  -23.2581  -46.2198 H         1 UNK         0.3000 
    196 H196       -4.9377  -25.3181  -45.7846 H         1 UNK         0.0600 
    197 H197       -3.6544  -25.7239  -43.6901 H         1 UNK         0.0600 
    198 H198       -3.9277  -24.0072  -43.9427 H         1 UNK         0.0600 
    199 H199       -2.3444  -24.7069  -44.2725 H         1 UNK         0.0600 
    200 H200       -1.4510  -25.4984  -46.6452 H         1 UNK         0.3000 
    201 H201       -1.2338  -28.3274  -46.7276 H         1 UNK         0.0600 
    202 H202        0.7222  -26.8050  -46.6480 H         1 UNK         0.0600 
    203 H203        0.3369  -26.1785  -48.2488 H         1 UNK         0.0600 
    204 H204        0.8313  -27.8558  -48.0527 H         1 UNK         0.0600 
    205 H205       -2.2968  -25.9885  -49.1837 H         1 UNK         0.3000 
    206 H206       -2.6915  -27.9726  -51.2863 H         1 UNK         0.0600 
    207 H207       -2.0252  -25.6327  -51.7975 H         1 UNK         0.0600 
    208 H208       -3.5880  -25.9889  -52.5156 H         1 UNK         0.0600 
    209 H209       -3.4965  -25.0317  -51.0417 H         1 UNK         0.0600 
    210 H210       -4.3738  -27.5513  -48.4792 H         1 UNK         0.3000 
    211 H211       -6.3703  -28.0061  -47.6704 H         1 UNK         0.0600 
    212 H212       -6.8319  -29.6484  -50.2166 H         1 UNK         0.0600 
    213 H213       -7.6686  -29.8429  -48.6821 H         1 UNK         0.0600 
    214 H214       -5.9553  -30.2081  -48.7927 H         1 UNK         0.0600 
    215 H215       -6.1242  -25.5706  -49.0960 H         1 UNK         0.3000 
    216 H216       -7.1692  -23.7931  -49.7833 H         1 UNK         0.0600 
    217 H217       -8.7026  -24.2441  -47.8552 H         1 UNK         0.0600 
    218 H218       -9.8051  -25.1000  -48.9335 H         1 UNK         0.0600 
    219 H219       -9.5099  -23.3820  -49.1530 H         1 UNK         0.0600 
    220 H220       -7.0929  -26.3473  -51.6470 H         1 UNK         0.3000 
    221 H221       -9.0968  -25.6839  -53.6717 H         1 UNK         0.0600 
    222 H222       -6.7297  -27.6267  -53.7602 H         1 UNK         0.0600 
    223 H223       -8.3570  -28.0392  -53.2194 H         1 UNK         0.0600 
    224 H224       -8.0759  -27.5660  -54.8886 H         1 UNK         0.0600 
    225 H225       -5.9320  -24.5492  -52.8695 H         1 UNK         0.3000 
    226 H226       -5.7499  -22.7706  -55.0988 H         1 UNK         0.0600 
    227 H227       -4.8159  -24.8630  -56.1847 H         1 UNK         0.0600 
    228 H228       -3.5627  -23.6599  -55.9691 H         1 UNK         0.0600 
    229 H229       -3.6595  -25.0274  -54.8669 H         1 UNK         0.0600 
    230 H230       -3.4402  -21.7067  -54.8738 H         1 UNK         0.3000 
    231 H231       -1.9438  -20.5191  -53.7994 H         1 UNK         0.0600 
    232 H232       -0.6501  -21.5927  -52.0145 H         1 UNK         0.0600 
    233 H233       -1.0796  -22.7937  -53.2184 H         1 UNK         0.0600 
    234 H234       -1.9499  -22.7316  -51.6877 H         1 UNK         0.0600 
    235 H235       -4.8934  -20.2126  -52.8734 H         1 UNK         0.3000 
    236 H236       -4.7414  -18.9937  -50.2621 H         1 UNK         0.0600 
    237 H237       -7.0443  -18.2203  -50.8078 H         1 UNK         0.0600 
    238 H238       -6.8484  -18.7550  -52.4725 H         1 UNK         0.0600 
    239 H239       -6.8515  -19.9313  -51.1573 H         1 UNK         0.0600 
    240 H240       -4.4543  -17.8125  -53.5538 H         1 UNK         0.3000 
    241 H241       -4.2123  -15.8351  -54.4910 H         1 UNK         0.0600 
    242 H242       -2.6969  -13.5645  -52.5427 H         1 UNK         0.3800 
    243 H243       -4.1361  -12.6418  -52.2028 H         1 UNK         0.3800 
    244 H244       -1.9963  -16.5810  -54.3472 H         1 UNK         0.0800 
    245 H245       -1.9622  -14.8624  -54.1782 H         1 UNK         0.0800 
    246 H246       -0.5950  -18.1347  -52.8654 H         1 UNK         0.0800 
    247 H247        0.3781  -16.8912  -53.6237 H         1 UNK         0.0800 
@<TRIPOS>BOND
     1    1    2 1    
     2    1  127 1    
     3    1  128 1    
     4    1  129 1    
     5    2    3 2    
     6    2    4 am   BACKBONE|DICT|INTERRES
     7    4    5 1    
     8    4  130 1    
     9    5    6 1    
    10    5   65 1    
    11    5  131 1    
    12    6    7 1    
    13    6  132 1    
    14    6  133 1    
    15    7    8 1    
    16    8    9 1    
    17    8  134 1    
    18    8  135 1    
    19    9   10 ar   
    20    9   14 ar   
    21   10   11 ar   
    22   10  136 1    
    23   11   12 ar   
    24   11  126 1    
    25   12   13 ar   
    26   12  137 1    
    27   13   14 ar   
    28   13   15 1    
    29   14  138 1    
    30   15   16 1    
    31   15  139 1    
    32   15  140 1    
    33   16   17 1    
    34   17   18 1    
    35   17  141 1    
    36   17  142 1    
    37   18   19 1    
    38   18   67 1    
    39   18  143 1    
    40   19   20 am   BACKBONE|DICT|INTERRES
    41   19  144 1    
    42   20   21 2    
    43   20   22 1    
    44   22   23 1    
    45   22   24 1    
    46   22  145 1    
    47   23  146 1    
    48   23  147 1    
    49   23  148 1    
    50   24   25 am   BACKBONE|DICT|INTERRES
    51   24  149 1    
    52   25   26 2    
    53   25   27 1    
    54   27   28 1    
    55   27   29 1    
    56   27  150 1    
    57   28  151 1    
    58   28  152 1    
    59   28  153 1    
    60   29   30 am   BACKBONE|DICT|INTERRES
    61   29  154 1    
    62   30   31 2    
    63   30   32 1    
    64   32   33 1    
    65   32   34 1    
    66   32  155 1    
    67   33  156 1    
    68   33  157 1    
    69   33  158 1    
    70   34   35 am   BACKBONE|DICT|INTERRES
    71   34  159 1    
    72   35   36 2    
    73   35   37 1    
    74   37   38 1    
    75   37   39 1    
    76   37  160 1    
    77   38  161 1    
    78   38  162 1    
    79   38  163 1    
    80   39   40 am   BACKBONE|DICT|INTERRES
    81   39  164 1    
    82   40   41 2    
    83   40   42 1    
    84   42   43 1    
    85   42   44 1    
    86   42  165 1    
    87   43  166 1    
    88   43  167 1    
    89   43  168 1    
    90   44   45 am   BACKBONE|DICT|INTERRES
    91   44  169 1    
    92   45   46 2    
    93   45   47 1    
    94   47   48 1    
    95   47   49 1    
    96   47  170 1    
    97   48  171 1    
    98   48  172 1    
    99   48  173 1    
   100   49   50 am   BACKBONE|DICT|INTERRES
   101   49  174 1    
   102   50   51 2    
   103   50   52 1    
   104   52   53 1    
   105   52   54 1    
   106   52  175 1    
   107   53  176 1    
   108   53  177 1    
   109   53  178 1    
   110   54   55 am   BACKBONE|DICT|INTERRES
   111   54  179 1    
   112   55   56 2    
   113   55   57 1    
   114   57   58 1    
   115   57   59 1    
   116   57  180 1    
   117   58  181 1    
   118   58  182 1    
   119   58  183 1    
   120   59   60 am   BACKBONE|DICT|INTERRES
   121   59  184 1    
   122   60   61 2    
   123   60   62 1    
   124   62   63 1    
   125   62   64 1    
   126   62  185 1    
   127   63  186 1    
   128   63  187 1    
   129   63  188 1    
   130   64   65 am   BACKBONE|DICT|INTERRES
   131   64  189 1    
   132   65   66 2    
   133   67   68 2    
   134   67   69 am   BACKBONE|DICT|INTERRES
   135   69   70 1    
   136   69  190 1    
   137   70   71 1    
   138   70   72 1    
   139   70  191 1    
   140   71  192 1    
   141   71  193 1    
   142   71  194 1    
   143   72   73 2    
   144   72   74 am   BACKBONE|DICT|INTERRES
   145   74   75 1    
   146   74  195 1    
   147   75   76 1    
   148   75   77 1    
   149   75  196 1    
   150   76  197 1    
   151   76  198 1    
   152   76  199 1    
   153   77   78 2    
   154   77   79 am   BACKBONE|DICT|INTERRES
   155   79   80 1    
   156   79  200 1    
   157   80   81 1    
   158   80   82 1    
   159   80  201 1    
   160   81  202 1    
   161   81  203 1    
   162   81  204 1    
   163   82   83 2    
   164   82   84 am   BACKBONE|DICT|INTERRES
   165   84   85 1    
   166   84  205 1    
   167   85   86 1    
   168   85   87 1    
   169   85  206 1    
   170   86  207 1    
   171   86  208 1    
   172   86  209 1    
   173   87   88 2    
   174   87   89 am   BACKBONE|DICT|INTERRES
   175   89   90 1    
   176   89  210 1    
   177   90   91 1    
   178   90   92 1    
   179   90  211 1    
   180   91  212 1    
   181   91  213 1    
   182   91  214 1    
   183   92   93 2    
   184   92   94 am   BACKBONE|DICT|INTERRES
   185   94   95 1    
   186   94  215 1    
   187   95   96 1    
   188   95   97 1    
   189   95  216 1    
   190   96  217 1    
   191   96  218 1    
   192   96  219 1    
   193   97   98 2    
   194   97   99 am   BACKBONE|DICT|INTERRES
   195   99  100 1    
   196   99  220 1    
   197  100  101 1    
   198  100  102 1    
   199  100  221 1    
   200  101  222 1    
   201  101  223 1    
   202  101  224 1    
   203  102  103 2    
   204  102  104 am   BACKBONE|DICT|INTERRES
   205  104  105 1    
   206  104  225 1    
   207  105  106 1    
   208  105  107 1    
   209  105  226 1    
   210  106  227 1    
   211  106  228 1    
   212  106  229 1    
   213  107  108 2    
   214  107  109 am   BACKBONE|DICT|INTERRES
   215  109  110 1    
   216  109  230 1    
   217  110  111 1    
   218  110  112 1    
   219  110  231 1    
   220  111  232 1    
   221  111  233 1    
   222  111  234 1    
   223  112  113 2    
   224  112  114 am   BACKBONE|DICT|INTERRES
   225  114  115 1    
   226  114  235 1    
   227  115  116 1    
   228  115  117 1    
   229  115  236 1    
   230  116  237 1    
   231  116  238 1    
   232  116  239 1    
   233  117  118 2    
   234  117  119 am   BACKBONE|DICT|INTERRES
   235  119  120 1    
   236  119  240 1    
   237  120  121 1    
   238  120  124 1    
   239  120  241 1    
   240  121  122 am   BACKBONE|DICT|INTERRES
   241  121  123 2    
   242  122  242 1    
   243  122  243 1    
   244  124  125 1    
   245  124  244 1    
   246  124  245 1    
   247  125  126 1    
   248  126  246 1    
   249  126  247 1    
@<TRIPOS>SUBSTRUCTURE
     1 UNK         1 GROUP             0       ****    0 ROOT    
