@<TRIPOS>MOLECULE
3R540
247   249    1
SMALL
USER_CHARGES


@<TRIPOS>ATOM
      1 CA         -2.9739  -13.2642  -45.1016 C.3       0 UNK        -0.1800 
      2 C          -2.0129  -12.4565  -45.9600 C.2       0 UNK         0.5000 
      3 O          -1.3314  -11.5665  -45.4510 O.2       0 UNK        -0.5000 
      4 N          -1.9396  -12.7749  -47.2595 N.am      1 UNK        -0.5000 
      5 CA         -1.1119  -12.0837  -48.2603 C.3       1 UNK         0.1400 
      6 C6         -1.4845  -12.4947  -49.7078 C.3       23 UNK        -0.0398 
      7 S7         -1.3351  -14.2845  -50.0554 S.3       23 UNK        -0.2404 
      8 C8          0.2354  -14.3129  -50.9752 C.3       23 UNK        -0.0205 
      9 C9          0.6427  -15.7236  -51.3715 C.ar      23 UNK        -0.0193 
     10 C10         0.6873  -16.0958  -52.7186 C.ar      23 UNK        -0.1150 
     11 C11         1.1263  -17.3699  -53.0873 C.ar      23 UNK        -0.0193 
     12 C12         1.5082  -18.2749  -52.0919 C.ar      23 UNK        -0.1150 
     13 C13         1.4441  -17.9326  -50.7380 C.ar      23 UNK        -0.0193 
     14 C14         1.0190  -16.6440  -50.3884 C.ar      23 UNK        -0.1150 
     15 C15         1.8790  -18.9838  -49.7138 C.3       23 UNK        -0.0205 
     16 S16         1.6415  -18.5575  -47.9533 S.3       23 UNK        -0.2404 
     17 C17        -0.1337  -18.9060  -47.7154 C.3       23 UNK        -0.0398 
     18 CA         -0.3930  -20.3687  -47.2803 C.3       11 UNK         0.1400 
     19 N           0.2486  -20.7314  -46.0136 N.am      11 UNK        -0.5000 
     20 C           0.3431  -21.9857  -45.5502 C.2       10 UNK         0.5000 
     21 O          -0.0656  -22.9707  -46.1659 O.2       10 UNK        -0.5000 
     22 CA          0.9380  -22.1690  -44.1425 C.3       10 UNK         0.1400 
     23 CB          2.4732  -22.1261  -44.1730 C.3       10 UNK        -0.1800 
     24 N           0.4272  -21.1773  -43.1954 N.am      10 UNK        -0.5000 
     25 C          -0.8454  -21.1277  -42.7757 C.2       9 UNK         0.5000 
     26 O          -1.7041  -21.9468  -43.1052 O.2       9 UNK        -0.5000 
     27 CA         -1.2350  -19.9457  -41.8676 C.3       9 UNK         0.1400 
     28 CB         -0.8467  -20.2306  -40.4093 C.3       9 UNK        -0.1800 
     29 N          -0.6407  -18.6779  -42.2948 N.am      9 UNK        -0.5000 
     30 C          -0.8952  -18.0777  -43.4662 C.2       8 UNK         0.5000 
     31 O          -1.7042  -18.5006  -44.2890 O.2       8 UNK        -0.5000 
     32 CA         -0.0677  -16.8290  -43.8122 C.3       8 UNK         0.1400 
     33 CB         -0.6725  -15.5728  -43.1710 C.3       8 UNK        -0.1800 
     34 N           1.3382  -16.9518  -43.4312 N.am      8 UNK        -0.5000 
     35 C           2.1764  -17.8909  -43.8910 C.2       7 UNK         0.5000 
     36 O           1.8489  -18.7643  -44.6900 O.2       7 UNK        -0.5000 
     37 CA          3.5998  -17.8926  -43.3143 C.3       7 UNK         0.1400 
     38 CB          4.4601  -16.7923  -43.9515 C.3       7 UNK        -0.1800 
     39 N           3.5810  -17.7301  -41.8629 N.am      7 UNK        -0.5000 
     40 C           3.1686  -18.6756  -41.0073 C.2       6 UNK         0.5000 
     41 O           2.8104  -19.8030  -41.3502 O.2       6 UNK        -0.5000 
     42 CA          3.1169  -18.2770  -39.5215 C.3       6 UNK         0.1400 
     43 CB          4.4944  -18.4505  -38.8645 C.3       6 UNK        -0.1800 
     44 N           2.6536  -16.9018  -39.3229 N.am      6 UNK        -0.5000 
     45 C           1.4088  -16.4828  -39.5890 C.2       5 UNK         0.5000 
     46 O           0.5199  -17.2128  -40.0268 O.2       5 UNK        -0.5000 
     47 CA          1.1187  -14.9884  -39.3618 C.3       5 UNK         0.1400 
     48 CB          0.8062  -14.7180  -37.8823 C.3       5 UNK        -0.1800 
     49 N           2.1924  -14.0926  -39.8044 N.am      5 UNK        -0.5000 
     50 C           2.6431  -14.0046  -41.0624 C.2       4 UNK         0.5000 
     51 O           2.2975  -14.7619  -41.9702 O.2       4 UNK        -0.5000 
     52 CA          3.6520  -12.8861  -41.3673 C.3       4 UNK         0.1400 
     53 CB          5.0565  -13.4643  -41.5956 C.3       4 UNK        -0.1800 
     54 N           3.2341  -12.1468  -42.5569 N.am      4 UNK        -0.5000 
     55 C           2.1931  -11.3077  -42.6072 C.2       3 UNK         0.5000 
     56 O           1.5378  -10.9817  -41.6162 O.2       3 UNK        -0.5000 
     57 CA          1.8026  -10.7388  -43.9849 C.3       3 UNK         0.1400 
     58 CB          2.7266   -9.5769  -44.3972 C.3       3 UNK        -0.1800 
     59 N           1.6803  -11.7401  -45.0526 N.am      3 UNK        -0.5000 
     60 C           2.6356  -12.4721  -45.6485 C.2       2 UNK         0.5000 
     61 O           3.8242  -12.4329  -45.3279 O.2       2 UNK        -0.5000 
     62 CA          2.2018  -13.4215  -46.7876 C.3       2 UNK         0.1400 
     63 CB          2.3533  -14.8857  -46.3548 C.3       2 UNK        -0.1800 
     64 N           0.8244  -13.2098  -47.2342 N.am      2 UNK        -0.5000 
     65 C           0.4092  -12.1932  -48.0027 C.2       1 UNK         0.5000 
     66 O           1.1673  -11.3503  -48.4836 O.2       1 UNK        -0.5000 
     67 C          -1.9008  -20.6906  -47.2645 C.2       11 UNK         0.5000 
     68 O          -2.3983  -21.2441  -48.2424 O.2       11 UNK        -0.5000 
     69 N          -2.5967  -20.4028  -46.1558 N.am      12 UNK        -0.5000 
     70 CA         -4.0132  -20.7259  -45.9604 C.3       12 UNK         0.1400 
     71 CB         -4.5123  -20.1038  -44.6480 C.3       12 UNK        -0.1800 
     72 C          -4.3063  -22.2382  -45.9904 C.2       12 UNK         0.5000 
     73 O          -5.3553  -22.6381  -46.4956 O.2       12 UNK        -0.5000 
     74 N          -3.3693  -23.0524  -45.4845 N.am      13 UNK        -0.5000 
     75 CA         -3.4120  -24.5102  -45.5928 C.3       13 UNK         0.1400 
     76 CB         -2.4014  -25.1346  -44.6187 C.3       13 UNK        -0.1800 
     77 C          -3.1648  -24.9857  -47.0372 C.2       13 UNK         0.5000 
     78 O          -3.8881  -25.8566  -47.5213 O.2       13 UNK        -0.5000 
     79 N          -2.1738  -24.3849  -47.7125 N.am      14 UNK        -0.5000 
     80 CA         -1.8222  -24.6676  -49.1069 C.3       14 UNK         0.1400 
     81 CB         -0.5050  -23.9634  -49.4598 C.3       14 UNK        -0.1800 
     82 C          -2.9281  -24.2917  -50.1120 C.2       14 UNK         0.5000 
     83 O          -3.0922  -24.9903  -51.1121 O.2       14 UNK        -0.5000 
     84 N          -3.7036  -23.2403  -49.8095 N.am      15 UNK        -0.5000 
     85 CA         -4.8308  -22.7370  -50.6043 C.3       15 UNK         0.1400 
     86 CB         -5.3899  -21.4660  -49.9446 C.3       15 UNK        -0.1800 
     87 C          -5.9695  -23.7544  -50.8231 C.2       15 UNK         0.5000 
     88 O          -6.7661  -23.5761  -51.7440 O.2       15 UNK        -0.5000 
     89 N          -6.0316  -24.8035  -49.9905 N.am      16 UNK        -0.5000 
     90 CA         -6.9474  -25.9321  -50.1555 C.3       16 UNK         0.1400 
     91 CB         -6.9895  -26.7387  -48.8491 C.3       16 UNK        -0.1800 
     92 C          -6.5675  -26.8439  -51.3408 C.2       16 UNK         0.5000 
     93 O          -7.4475  -27.5071  -51.8911 O.2       16 UNK        -0.5000 
     94 N          -5.2787  -26.8656  -51.7082 N.am      17 UNK        -0.5000 
     95 CA         -4.7367  -27.6425  -52.8215 C.3       17 UNK         0.1400 
     96 CB         -3.4707  -28.3767  -52.3516 C.3       17 UNK        -0.1800 
     97 C          -4.4213  -26.7421  -54.0269 C.2       17 UNK         0.5000 
     98 O          -4.7173  -27.1225  -55.1604 O.2       17 UNK        -0.5000 
     99 N          -3.8237  -25.5708  -53.7696 N.am      18 UNK        -0.5000 
    100 CA        -3.4559  -24.5789  -54.7749 C.3       18 UNK         0.1400 
    101 CB        -2.4399  -23.5963  -54.1676 C.3       18 UNK        -0.1800 
    102 C         -4.7001  -23.8423  -55.2980 C.2       18 UNK         0.5000 
    103 O         -5.2303  -22.9739  -54.6039 O.2       18 UNK        -0.5000 
    104 N         -5.1291  -24.1808  -56.5215 N.am      19 UNK        -0.5000 
    105 CA        -6.3090  -23.6244  -57.1978 C.3       19 UNK         0.1400 
    106 CB        -6.5267  -24.3789  -58.5183 C.3       19 UNK        -0.1800 
    107 C         -6.2462  -22.1027  -57.4504 C.2       19 UNK         0.5000 
    108 O         -7.2908  -21.4650  -57.5845 O.2       19 UNK        -0.5000 
    109 N         -5.0280  -21.5453  -57.4760 N.am      20 UNK        -0.5000 
    110 CA        -4.7489  -20.1090  -57.5429 C.3       20 UNK         0.1400 
    111 CB        -3.2896  -19.9236  -57.9928 C.3       20 UNK        -0.1800 
    112 C         -4.9993  -19.3632  -56.2118 C.2       20 UNK         0.5000 
    113 O         -4.8717  -18.1390  -56.1853 O.2       20 UNK        -0.5000 
    114 N         -5.3117  -20.1035  -55.1351 N.am      21 UNK        -0.5000 
    115 CA        -5.4717  -19.6563  -53.7459 C.3       21 UNK         0.1400 
    116 CB        -6.5766  -18.5890  -53.6032 C.3       21 UNK        -0.1800 
    117 C         -4.1385  -19.2446  -53.0877 C.2       21 UNK         0.5000 
    118 O         -4.1402  -18.5241  -52.0877 O.2       21 UNK        -0.5000 
    119 N         -3.0243  -19.7466  -53.6362 N.am      22 UNK        -0.5000 
    120 CA        -1.6575  -19.6222  -53.1092 C.3       22 UNK         0.1400 
    121 C         -1.4464  -20.4877  -51.8360 C.2       22 UNK         0.5000 
    122 N         -2.1534  -20.1628  -50.7667 N.am      22 UNK        -0.7600 
    123 O         -0.6708  -21.4386  -51.8149 O.2       22 UNK        -0.5000 
    124 C124       -0.6062  -19.8796  -54.2217 C.3       23 UNK        -0.0398 
    125 S125       -0.3538  -18.3842  -55.2340 S.3       23 UNK        -0.2404 
    126 C126        1.2220  -17.7580  -54.5592 C.3       23 UNK        -0.0205 
    127 H127       -3.0891  -14.2799  -45.4805 H         1 UNK         0.0600 
    128 H128       -3.9534  -12.7868  -45.0861 H         1 UNK         0.0600 
    129 H129       -2.6093  -13.3222  -44.0763 H         1 UNK         0.0600 
    130 H130       -2.5094  -13.5281  -47.6192 H         1 UNK         0.3000 
    131 H131       -1.3465  -11.0211  -48.1671 H         1 UNK         0.0600 
    132 H132       -0.8976  -11.9252  -50.4309 H         1 UNK         0.0800 
    133 H133       -2.5206  -12.2133  -49.9004 H         1 UNK         0.0800 
    134 H134        0.1435  -13.6788  -51.8585 H         1 UNK         0.0800 
    135 H135        1.0271  -13.8785  -50.3637 H         1 UNK         0.0800 
    136 H136        0.4008  -15.3883  -53.4841 H         1 UNK         0.1150 
    137 H137        1.8627  -19.2573  -52.3698 H         1 UNK         0.1150 
    138 H138        0.9821  -16.3368  -49.3539 H         1 UNK         0.1150 
    139 H139        1.3630  -19.9227  -49.9214 H         1 UNK         0.0800 
    140 H140        2.9413  -19.1796  -49.8648 H         1 UNK         0.0800 
    141 H141       -0.6598  -18.6762  -48.6442 H         1 UNK         0.0800 
    142 H142       -0.5191  -18.2129  -46.9661 H         1 UNK         0.0800 
    143 H143        0.0487  -21.0094  -48.0459 H         1 UNK         0.0600 
    144 H144        0.6717  -19.9749  -45.4796 H         1 UNK         0.3000 
    145 H145        0.6397  -23.1567  -43.7844 H         1 UNK         0.0600 
    146 H146        2.8917  -22.2915  -43.1800 H         1 UNK         0.0600 
    147 H147        2.8694  -22.9031  -44.8278 H         1 UNK         0.0600 
    148 H148        2.8486  -21.1704  -44.5376 H         1 UNK         0.0600 
    149 H149        1.0738  -20.4618  -42.8892 H         1 UNK         0.3000 
    150 H150       -2.3203  -19.8365  -41.9143 H         1 UNK         0.0600 
    151 H151       -1.2799  -21.1706  -40.0651 H         1 UNK         0.0600 
    152 H152       -1.2070  -19.4444  -39.7457 H         1 UNK         0.0600 
    153 H153        0.2347  -20.3011  -40.2869 H         1 UNK         0.0600 
    154 H154       -0.0024  -18.2307  -41.6435 H         1 UNK         0.3000 
    155 H155       -0.1033  -16.7055  -44.8964 H         1 UNK         0.0600 
    156 H156       -0.6044  -15.6057  -42.0838 H         1 UNK         0.0600 
    157 H157       -1.7270  -15.4752  -43.4294 H         1 UNK         0.0600 
    158 H158       -0.1642  -14.6703  -43.5118 H         1 UNK         0.0600 
    159 H159        1.6971  -16.2441  -42.7925 H         1 UNK         0.3000 
    160 H160        4.0577  -18.8565  -43.5468 H         1 UNK         0.0600 
    161 H161        4.0271  -15.8028  -43.8049 H         1 UNK         0.0600 
    162 H162        4.5554  -16.9536  -45.0258 H         1 UNK         0.0600 
    163 H163        5.4669  -16.7847  -43.5341 H         1 UNK         0.0600 
    164 H164        3.8001  -16.8130  -41.5038 H         1 UNK         0.3000 
    165 H165        2.4139  -18.9478  -39.0228 H         1 UNK         0.0600 
    166 H166        4.4495  -18.2453  -37.7947 H         1 UNK         0.0600 
    167 H167        4.8568  -19.4725  -38.9833 H         1 UNK         0.0600 
    168 H168        5.2386  -17.7850  -39.3037 H         1 UNK         0.0600 
    169 H169        3.3245  -16.2346  -38.9714 H         1 UNK         0.3000 
    170 H170        0.2287  -14.7391  -39.9429 H         1 UNK         0.0600 
    171 H171       -0.0025  -15.3600  -37.5301 H         1 UNK         0.0600 
    172 H172        1.6727  -14.9025  -37.2462 H         1 UNK         0.0600 
    173 H173        0.4894  -13.6863  -37.7281 H         1 UNK         0.0600 
    174 H174        2.5352  -13.4358  -39.1183 H         1 UNK         0.3000 
    175 H175        3.6943  -12.1961  -40.5220 H         1 UNK         0.0600 
    176 H176        5.3905  -14.0370  -40.7297 H         1 UNK         0.0600 
    177 H177        5.0856  -14.1268  -42.4608 H         1 UNK         0.0600 
    178 H178        5.7849  -12.6703  -41.7610 H         1 UNK         0.0600 
    179 H179        3.6839  -12.3855  -43.4361 H         1 UNK         0.3000 
    180 H180        0.7997  -10.3236  -43.8719 H         1 UNK         0.0600 
    181 H181        3.7623   -9.8969  -44.5134 H         1 UNK         0.0600 
    182 H182        2.7144   -8.7871  -43.6451 H         1 UNK         0.0600 
    183 H183        2.4044   -9.1335  -45.3394 H         1 UNK         0.0600 
    184 H184        0.7279  -11.8720  -45.3758 H         1 UNK         0.3000 
    185 H185        2.8699  -13.2460  -47.6332 H         1 UNK         0.0600 
    186 H186        3.3937  -15.1127  -46.1240 H         1 UNK         0.0600 
    187 H187        1.7622  -15.1001  -45.4653 H         1 UNK         0.0600 
    188 H188        2.0413  -15.5704  -47.1432 H         1 UNK         0.0600 
    189 H189        0.1303  -13.8573  -46.8916 H         1 UNK         0.3000 
    190 H190       -2.1423  -19.8905  -45.4026 H         1 UNK         0.3000 
    191 H191       -4.5692  -20.2710  -46.7828 H         1 UNK         0.0600 
    192 H192       -3.9632  -20.4865  -43.7877 H         1 UNK         0.0600 
    193 H193       -5.5688  -20.3225  -44.4879 H         1 UNK         0.0600 
    194 H194       -4.4040  -19.0193  -44.6598 H         1 UNK         0.0600 
    195 H195       -2.5562  -22.6453  -45.0383 H         1 UNK         0.3000 
    196 H196       -4.4091  -24.8447  -45.2983 H         1 UNK         0.0600 
    197 H197       -2.4501  -26.2235  -44.6534 H         1 UNK         0.0600 
    198 H198       -2.6064  -24.8313  -43.5918 H         1 UNK         0.0600 
    199 H199       -1.3771  -24.8454  -44.8524 H         1 UNK         0.0600 
    200 H200       -1.5985  -23.7022  -47.2289 H         1 UNK         0.3000 
    201 H201       -1.6599  -25.7440  -49.1922 H         1 UNK         0.0600 
    202 H202        0.3007  -24.2711  -48.7932 H         1 UNK         0.0600 
    203 H203       -0.5985  -22.8801  -49.3953 H         1 UNK         0.0600 
    204 H204       -0.1967  -24.2010  -50.4788 H         1 UNK         0.0600 
    205 H205       -3.4466  -22.6889  -48.9966 H         1 UNK         0.3000 
    206 H206       -4.4419  -22.4684  -51.5881 H         1 UNK         0.0600 
    207 H207       -4.6231  -20.7044  -49.8164 H         1 UNK         0.0600 
    208 H208       -6.1800  -21.0251  -50.5537 H         1 UNK         0.0600 
    209 H209       -5.8141  -21.6786  -48.9635 H         1 UNK         0.0600 
    210 H210       -5.3491  -24.8742  -49.2471 H         1 UNK         0.3000 
    211 H211       -7.9483  -25.5385  -50.3450 H         1 UNK         0.0600 
    212 H212       -6.0204  -27.1834  -48.6201 H         1 UNK         0.0600 
    213 H213       -7.7147  -27.5506  -48.9155 H         1 UNK         0.0600 
    214 H214       -7.2789  -26.1117  -48.0055 H         1 UNK         0.0600 
    215 H215       -4.6258  -26.2513  -51.2337 H         1 UNK         0.3000 
    216 H216       -5.4569  -28.3955  -53.1485 H         1 UNK         0.0600 
    217 H217       -2.7043  -27.6825  -52.0042 H         1 UNK         0.0600 
    218 H218       -3.0382  -28.9666  -53.1607 H         1 UNK         0.0600 
    219 H219       -3.6955  -29.0617  -51.5340 H         1 UNK         0.0600 
    220 H220       -3.6000  -25.3338  -52.8056 H         1 UNK         0.3000 
    221 H221       -2.9679  -25.0899  -55.6076 H         1 UNK         0.0600 
    222 H222       -1.5402  -24.1142  -53.8349 H         1 UNK         0.0600 
    223 H223       -2.8491  -23.0645  -53.3081 H         1 UNK         0.0600 
    224 H224       -2.1333  -22.8505  -54.9011 H         1 UNK         0.0600 
    225 H225       -4.6495  -24.9247  -57.0090 H         1 UNK         0.3000 
    226 H226       -7.1715  -23.8071  -56.5536 H         1 UNK         0.0600 
    227 H227       -6.6692  -25.4457  -58.3446 H         1 UNK         0.0600 
    228 H228       -7.4152  -24.0146  -59.0359 H         1 UNK         0.0600 
    229 H229       -5.6797  -24.2576  -59.1947 H         1 UNK         0.0600 
    230 H230       -4.2300  -22.1550  -57.3778 H         1 UNK         0.3000 
    231 H231       -5.4011  -19.6614  -58.2956 H         1 UNK         0.0600 
    232 H232       -3.1093  -20.4013  -58.9561 H         1 UNK         0.0600 
    233 H233       -2.5883  -20.3448  -57.2713 H         1 UNK         0.0600 
    234 H234       -3.0442  -18.8669  -58.1070 H         1 UNK         0.0600 
    235 H235       -5.3823  -21.1100  -55.2520 H         1 UNK         0.3000 
    236 H236       -5.8067  -20.5373  -53.1963 H         1 UNK         0.0600 
    237 H237       -6.8140  -18.4149  -52.5532 H         1 UNK         0.0600 
    238 H238       -6.2772  -17.6313  -54.0291 H         1 UNK         0.0600 
    239 H239       -7.4966  -18.9049  -54.0948 H         1 UNK         0.0600 
    240 H240       -3.1334  -20.3356  -54.4462 H         1 UNK         0.3000 
    241 H241       -1.5267  -18.5935  -52.7661 H         1 UNK         0.0600 
    242 H242       -2.1041  -20.7120  -49.9138 H         1 UNK         0.3800 
    243 H243       -2.8347  -19.4168  -50.8463 H         1 UNK         0.3800 
    244 H244       -0.9171  -20.6994  -54.8697 H         1 UNK         0.0800 
    245 H245        0.3561  -20.1889  -53.8151 H         1 UNK         0.0800 
    246 H246        2.0004  -18.5089  -54.7033 H         1 UNK         0.0800 
    247 H247        1.5316  -16.8908  -55.1443 H         1 UNK         0.0800 
@<TRIPOS>BOND
     1    1    2 1    
     2    1  127 1    
     3    1  128 1    
     4    1  129 1    
     5    2    3 2    
     6    2    4 am   BACKBONE|DICT|INTERRES
     7    4    5 1    
     8    4  130 1    
     9    5    6 1    
    10    5   65 1    
    11    5  131 1    
    12    6    7 1    
    13    6  132 1    
    14    6  133 1    
    15    7    8 1    
    16    8    9 1    
    17    8  134 1    
    18    8  135 1    
    19    9   10 ar   
    20    9   14 ar   
    21   10   11 ar   
    22   10  136 1    
    23   11   12 ar   
    24   11  126 1    
    25   12   13 ar   
    26   12  137 1    
    27   13   14 ar   
    28   13   15 1    
    29   14  138 1    
    30   15   16 1    
    31   15  139 1    
    32   15  140 1    
    33   16   17 1    
    34   17   18 1    
    35   17  141 1    
    36   17  142 1    
    37   18   19 1    
    38   18   67 1    
    39   18  143 1    
    40   19   20 am   BACKBONE|DICT|INTERRES
    41   19  144 1    
    42   20   21 2    
    43   20   22 1    
    44   22   23 1    
    45   22   24 1    
    46   22  145 1    
    47   23  146 1    
    48   23  147 1    
    49   23  148 1    
    50   24   25 am   BACKBONE|DICT|INTERRES
    51   24  149 1    
    52   25   26 2    
    53   25   27 1    
    54   27   28 1    
    55   27   29 1    
    56   27  150 1    
    57   28  151 1    
    58   28  152 1    
    59   28  153 1    
    60   29   30 am   BACKBONE|DICT|INTERRES
    61   29  154 1    
    62   30   31 2    
    63   30   32 1    
    64   32   33 1    
    65   32   34 1    
    66   32  155 1    
    67   33  156 1    
    68   33  157 1    
    69   33  158 1    
    70   34   35 am   BACKBONE|DICT|INTERRES
    71   34  159 1    
    72   35   36 2    
    73   35   37 1    
    74   37   38 1    
    75   37   39 1    
    76   37  160 1    
    77   38  161 1    
    78   38  162 1    
    79   38  163 1    
    80   39   40 am   BACKBONE|DICT|INTERRES
    81   39  164 1    
    82   40   41 2    
    83   40   42 1    
    84   42   43 1    
    85   42   44 1    
    86   42  165 1    
    87   43  166 1    
    88   43  167 1    
    89   43  168 1    
    90   44   45 am   BACKBONE|DICT|INTERRES
    91   44  169 1    
    92   45   46 2    
    93   45   47 1    
    94   47   48 1    
    95   47   49 1    
    96   47  170 1    
    97   48  171 1    
    98   48  172 1    
    99   48  173 1    
   100   49   50 am   BACKBONE|DICT|INTERRES
   101   49  174 1    
   102   50   51 2    
   103   50   52 1    
   104   52   53 1    
   105   52   54 1    
   106   52  175 1    
   107   53  176 1    
   108   53  177 1    
   109   53  178 1    
   110   54   55 am   BACKBONE|DICT|INTERRES
   111   54  179 1    
   112   55   56 2    
   113   55   57 1    
   114   57   58 1    
   115   57   59 1    
   116   57  180 1    
   117   58  181 1    
   118   58  182 1    
   119   58  183 1    
   120   59   60 am   BACKBONE|DICT|INTERRES
   121   59  184 1    
   122   60   61 2    
   123   60   62 1    
   124   62   63 1    
   125   62   64 1    
   126   62  185 1    
   127   63  186 1    
   128   63  187 1    
   129   63  188 1    
   130   64   65 am   BACKBONE|DICT|INTERRES
   131   64  189 1    
   132   65   66 2    
   133   67   68 2    
   134   67   69 am   BACKBONE|DICT|INTERRES
   135   69   70 1    
   136   69  190 1    
   137   70   71 1    
   138   70   72 1    
   139   70  191 1    
   140   71  192 1    
   141   71  193 1    
   142   71  194 1    
   143   72   73 2    
   144   72   74 am   BACKBONE|DICT|INTERRES
   145   74   75 1    
   146   74  195 1    
   147   75   76 1    
   148   75   77 1    
   149   75  196 1    
   150   76  197 1    
   151   76  198 1    
   152   76  199 1    
   153   77   78 2    
   154   77   79 am   BACKBONE|DICT|INTERRES
   155   79   80 1    
   156   79  200 1    
   157   80   81 1    
   158   80   82 1    
   159   80  201 1    
   160   81  202 1    
   161   81  203 1    
   162   81  204 1    
   163   82   83 2    
   164   82   84 am   BACKBONE|DICT|INTERRES
   165   84   85 1    
   166   84  205 1    
   167   85   86 1    
   168   85   87 1    
   169   85  206 1    
   170   86  207 1    
   171   86  208 1    
   172   86  209 1    
   173   87   88 2    
   174   87   89 am   BACKBONE|DICT|INTERRES
   175   89   90 1    
   176   89  210 1    
   177   90   91 1    
   178   90   92 1    
   179   90  211 1    
   180   91  212 1    
   181   91  213 1    
   182   91  214 1    
   183   92   93 2    
   184   92   94 am   BACKBONE|DICT|INTERRES
   185   94   95 1    
   186   94  215 1    
   187   95   96 1    
   188   95   97 1    
   189   95  216 1    
   190   96  217 1    
   191   96  218 1    
   192   96  219 1    
   193   97   98 2    
   194   97   99 am   BACKBONE|DICT|INTERRES
   195   99  100 1    
   196   99  220 1    
   197  100  101 1    
   198  100  102 1    
   199  100  221 1    
   200  101  222 1    
   201  101  223 1    
   202  101  224 1    
   203  102  103 2    
   204  102  104 am   BACKBONE|DICT|INTERRES
   205  104  105 1    
   206  104  225 1    
   207  105  106 1    
   208  105  107 1    
   209  105  226 1    
   210  106  227 1    
   211  106  228 1    
   212  106  229 1    
   213  107  108 2    
   214  107  109 am   BACKBONE|DICT|INTERRES
   215  109  110 1    
   216  109  230 1    
   217  110  111 1    
   218  110  112 1    
   219  110  231 1    
   220  111  232 1    
   221  111  233 1    
   222  111  234 1    
   223  112  113 2    
   224  112  114 am   BACKBONE|DICT|INTERRES
   225  114  115 1    
   226  114  235 1    
   227  115  116 1    
   228  115  117 1    
   229  115  236 1    
   230  116  237 1    
   231  116  238 1    
   232  116  239 1    
   233  117  118 2    
   234  117  119 am   BACKBONE|DICT|INTERRES
   235  119  120 1    
   236  119  240 1    
   237  120  121 1    
   238  120  124 1    
   239  120  241 1    
   240  121  122 am   BACKBONE|DICT|INTERRES
   241  121  123 2    
   242  122  242 1    
   243  122  243 1    
   244  124  125 1    
   245  124  244 1    
   246  124  245 1    
   247  125  126 1    
   248  126  246 1    
   249  126  247 1    
@<TRIPOS>SUBSTRUCTURE
     1 UNK         1 GROUP             0       ****    0 ROOT    
