@<TRIPOS>MOLECULE
3R540
247   249    1
SMALL
USER_CHARGES


@<TRIPOS>ATOM
      1 CA          1.1901   -9.6059  -48.2302 C.3       0 UNK        -0.1800 
      2 C           0.0448   -9.9406  -49.1840 C.2       0 UNK         0.5000 
      3 O          -0.6106   -9.0282  -49.6824 O.2       0 UNK        -0.5000 
      4 N          -0.2321  -11.2183  -49.4781 N.am      1 UNK        -0.5000 
      5 CA          0.4183  -12.4158  -48.9304 C.3       1 UNK         0.1400 
      6 C6          0.2910  -13.6246  -49.8912 C.3       23 UNK        -0.0398 
      7 S7         -1.4340  -14.0592  -50.3249 S.3       23 UNK        -0.2404 
      8 C8         -1.6632  -15.5939  -49.3735 C.3       23 UNK        -0.0205 
      9 C9         -0.9056  -16.7646  -49.9867 C.ar      23 UNK        -0.0193 
     10 C10        -1.2162  -17.2178  -51.2730 C.ar      23 UNK        -0.1150 
     11 C11        -0.5244  -18.2885  -51.8479 C.ar      23 UNK        -0.0193 
     12 C12         0.5022  -18.8972  -51.1129 C.ar      23 UNK        -0.1150 
     13 C13         0.8125  -18.4705  -49.8181 C.ar      23 UNK        -0.0193 
     14 C14         0.1082  -17.3981  -49.2652 C.ar      23 UNK        -0.1150 
     15 C15         1.9285  -19.1352  -49.0183 C.3       23 UNK        -0.0205 
     16 S16         1.9011  -20.9612  -49.0667 S.3       23 UNK        -0.2404 
     17 C17         0.2192  -21.3526  -48.4795 C.3       23 UNK        -0.0398 
     18 CA          0.1860  -22.6680  -47.6629 C.3       11 UNK         0.1400 
     19 N           0.7448  -22.5146  -46.3156 N.am      11 UNK        -0.5000 
     20 C           0.9644  -23.5227  -45.4594 C.2       10 UNK         0.5000 
     21 O           0.7800  -24.7068  -45.7375 O.2       10 UNK        -0.5000 
     22 CA          1.4034  -23.1474  -44.0323 C.3       10 UNK         0.1400 
     23 CB          2.9052  -22.8307  -43.9747 C.3       10 UNK        -0.1800 
     24 N           0.6289  -22.0317  -43.4857 N.am      10 UNK        -0.5000 
     25 C          -0.6875  -22.0852  -43.2337 C.2       9 UNK         0.5000 
     26 O          -1.3699  -23.0973  -43.3898 O.2       9 UNK        -0.5000 
     27 CA         -1.3685  -20.7862  -42.7661 C.3       9 UNK         0.1400 
     28 CB         -1.1637  -20.5794  -41.2582 C.3       9 UNK        -0.1800 
     29 N          -0.9062  -19.6060  -43.4973 N.am      9 UNK        -0.5000 
     30 C          -1.0716  -19.4157  -44.8142 C.2       8 UNK         0.5000 
     31 O          -1.6839  -20.1928  -45.5446 O.2       8 UNK        -0.5000 
     32 CA         -0.3739  -18.1944  -45.4392 C.3       8 UNK         0.1400 
     33 CB         -1.1893  -16.9094  -45.2350 C.3       8 UNK        -0.1800 
     34 N           0.9864  -18.0045  -44.9358 N.am      8 UNK        -0.5000 
     35 C           1.9740  -18.9017  -45.0640 C.2       7 UNK         0.5000 
     36 O           1.8509  -19.9724  -45.6551 O.2       7 UNK        -0.5000 
     37 CA          3.3049  -18.5715  -44.3740 C.3       7 UNK         0.1400 
     38 CB          4.1276  -17.5787  -45.2093 C.3       7 UNK        -0.1800 
     39 N           3.0864  -18.0414  -43.0292 N.am      7 UNK        -0.5000 
     40 C           2.6680  -18.7802  -41.9917 C.2       6 UNK         0.5000 
     41 O           2.4690  -19.9937  -42.0532 O.2       6 UNK        -0.5000 
     42 CA          2.3913  -18.0309  -40.6750 C.3       6 UNK         0.1400 
     43 CB          3.6886  -17.8436  -39.8745 C.3       6 UNK        -0.1800 
     44 N           1.7587  -16.7277  -40.8872 N.am      6 UNK        -0.5000 
     45 C           0.5195  -16.5621  -41.3699 C.2       5 UNK         0.5000 
     46 O          -0.2290  -17.4925  -41.6634 O.2       5 UNK        -0.5000 
     47 CA          0.0515  -15.1158  -41.6086 C.3       5 UNK         0.1400 
     48 CB         -0.5506  -14.5221  -40.3269 C.3       5 UNK        -0.1800 
     49 N           1.0929  -14.2181  -42.1133 N.am      5 UNK        -0.5000 
     50 C           1.8038  -14.4020  -43.2338 C.2       4 UNK         0.5000 
     51 O           1.7516  -15.4265  -43.9153 O.2       4 UNK        -0.5000 
     52 CA          2.6668  -13.2098  -43.6819 C.3       4 UNK         0.1400 
     53 CB          3.6175  -13.5610  -44.8401 C.3       4 UNK        -0.1800 
     54 N           1.7734  -12.1344  -44.1033 N.am      4 UNK        -0.5000 
     55 C           1.2695  -11.1938  -43.2910 C.2       3 UNK         0.5000 
     56 O           1.6219  -11.0491  -42.1198 O.2       3 UNK        -0.5000 
     57 CA          0.1485  -10.2997  -43.8589 C.3       3 UNK         0.1400 
     58 CB          0.7308   -8.9908  -44.4136 C.3       3 UNK        -0.1800 
     59 N          -0.6390  -10.9626  -44.9015 N.am      3 UNK        -0.5000 
     60 C          -1.4234  -12.0337  -44.7073 C.2       2 UNK         0.5000 
     61 O          -1.6456  -12.5253  -43.6008 O.2       2 UNK        -0.5000 
     62 CA         -2.0463  -12.6829  -45.9590 C.3       2 UNK         0.1400 
     63 CB         -3.5198  -12.2751  -46.1048 C.3       2 UNK        -0.1800 
     64 N          -1.3451  -12.3800  -47.2109 N.am      2 UNK        -0.5000 
     65 C          -0.0973  -12.7658  -47.5173 C.2       1 UNK         0.5000 
     66 O           0.6459  -13.3472  -46.7289 O.2       1 UNK        -0.5000 
     67 C          -1.2341  -23.2685  -47.6235 C.2       11 UNK         0.5000 
     68 O          -1.5012  -24.2242  -48.3531 O.2       11 UNK        -0.5000 
     69 N          -2.0990  -22.7444  -46.7421 N.am      12 UNK        -0.5000 
     70 CA         -3.4639  -23.2286  -46.5269 C.3       12 UNK         0.1400 
     71 CB         -4.2015  -22.2965  -45.5553 C.3       12 UNK        -0.1800 
     72 C          -3.5274  -24.6888  -46.0448 C.2       12 UNK         0.5000 
     73 O          -4.3926  -25.4367  -46.5000 O.2       12 UNK        -0.5000 
     74 N          -2.5994  -25.0742  -45.1589 N.am      13 UNK        -0.5000 
     75 CA         -2.4301  -26.4475  -44.6869 C.3       13 UNK         0.1400 
     76 CB         -1.5006  -26.4577  -43.4637 C.3       13 UNK        -0.1800 
     77 C          -1.9006  -27.3906  -45.7838 C.2       13 UNK         0.5000 
     78 O          -2.3498  -28.5348  -45.8636 O.2       13 UNK        -0.5000 
     79 N          -0.9608  -26.9000  -46.6041 N.am      14 UNK        -0.5000 
     80 CA         -0.3506  -27.6419  -47.7067 C.3       14 UNK         0.1400 
     81 CB          0.9045  -26.9036  -48.1974 C.3       14 UNK        -0.1800 
     82 C          -1.3196  -27.9008  -48.8739 C.2       14 UNK         0.5000 
     83 O          -1.3353  -29.0138  -49.4025 O.2       14 UNK        -0.5000 
     84 N          -2.1048  -26.8856  -49.2560 N.am      15 UNK        -0.5000 
     85 CA         -3.0604  -26.9624  -50.3579 C.3       15 UNK         0.1400 
     86 CB         -2.3390  -26.7844  -51.7101 C.3       15 UNK        -0.1800 
     87 C          -4.1906  -25.9415  -50.1794 C.2       15 UNK         0.5000 
     88 O          -5.3405  -26.3325  -49.9758 O.2       15 UNK        -0.5000 
     89 N          -3.8437  -24.6561  -50.2821 N.am      16 UNK        -0.5000 
     90 CA         -4.7376  -23.5039  -50.2839 C.3       16 UNK         0.1400 
     91 CB         -5.6166  -23.5044  -51.5496 C.3       16 UNK        -0.1800 
     92 C          -3.8717  -22.2378  -50.2375 C.2       16 UNK         0.5000 
     93 O          -2.6720  -22.3093  -50.5083 O.2       16 UNK        -0.5000 
     94 N          -4.4904  -21.1013  -49.9136 N.am      17 UNK        -0.5000 
     95 CA         -3.8623  -19.7851  -49.8872 C.3       17 UNK         0.1400 
     96 CB         -3.3148  -19.5005  -48.4785 C.3       17 UNK        -0.1800 
     97 C          -4.9017  -18.7367  -50.3065 C.2       17 UNK         0.5000 
     98 O          -6.1016  -19.0234  -50.2961 O.2       17 UNK        -0.5000 
     99 N          -4.4154  -17.5481  -50.6867 N.am      18 UNK        -0.5000 
    100 CA        -5.1364  -16.3269  -51.0901 C.3       18 UNK         0.1400 
    101 CB        -6.0418  -15.8157  -49.9541 C.3       18 UNK        -0.1800 
    102 C         -5.9141  -16.4233  -52.4200 C.2       18 UNK         0.5000 
    103 O         -5.9743  -15.4389  -53.1561 O.2       18 UNK        -0.5000 
    104 N         -6.4606  -17.6042  -52.7276 N.am      19 UNK        -0.5000 
    105 CA        -7.2040  -17.9228  -53.9494 C.3       19 UNK         0.1400 
    106 CB        -8.0649  -19.1669  -53.6710 C.3       19 UNK        -0.1800 
    107 C         -6.3077  -18.1541  -55.1861 C.2       19 UNK         0.5000 
    108 O         -6.8378  -18.4001  -56.2697 O.2       19 UNK        -0.5000 
    109 N         -4.9782  -18.1174  -54.9969 N.am      20 UNK        -0.5000 
    110 CA        -3.9174  -18.4142  -55.9730 C.3       20 UNK         0.1400 
    111 CB        -3.9852  -17.4721  -57.1930 C.3       20 UNK        -0.1800 
    112 C         -3.8482  -19.9059  -56.3718 C.2       20 UNK         0.5000 
    113 O         -3.2083  -20.2503  -57.3656 O.2       20 UNK        -0.5000 
    114 N         -4.4761  -20.7695  -55.5633 N.am      21 UNK        -0.5000 
    115 CA        -4.5303  -22.2237  -55.7265 C.3       21 UNK         0.1400 
    116 CB        -5.9279  -22.7020  -55.2953 C.3       21 UNK        -0.1800 
    117 C         -3.4098  -22.9505  -54.9504 C.2       21 UNK         0.5000 
    118 O         -3.4574  -24.1736  -54.8182 O.2       21 UNK        -0.5000 
    119 N         -2.4293  -22.1924  -54.4425 N.am      22 UNK        -0.5000 
    120 CA        -1.2622  -22.6809  -53.6909 C.3       22 UNK         0.1400 
    121 C         -0.2368  -23.5242  -54.5080 C.2       22 UNK         0.5000 
    122 N         -0.2929  -23.5437  -55.8344 N.am      22 UNK        -0.7600 
    123 O          0.6202  -24.1819  -53.9246 O.2       22 UNK        -0.5000 
    124 C124       -0.5648  -21.5303  -52.9187 C.3       23 UNK        -0.0398 
    125 S125       -0.0043  -20.1417  -53.9710 S.3       23 UNK        -0.2404 
    126 C126       -0.9281  -18.7328  -53.2580 C.3       23 UNK        -0.0205 
    127 H127        1.1193   -8.5696  -47.8992 H         1 UNK         0.0600 
    128 H128        2.1482   -9.7320  -48.7343 H         1 UNK         0.0600 
    129 H129        1.1810  -10.2344  -47.3420 H         1 UNK         0.0600 
    130 H130       -0.9786  -11.4102  -50.1320 H         1 UNK         0.3000 
    131 H131        1.4858  -12.2094  -48.8311 H         1 UNK         0.0600 
    132 H132        0.8121  -13.3971  -50.8220 H         1 UNK         0.0800 
    133 H133        0.8072  -14.4945  -49.4814 H         1 UNK         0.0800 
    134 H134       -2.7257  -15.8282  -49.3299 H         1 UNK         0.0800 
    135 H135       -1.3558  -15.4270  -48.3399 H         1 UNK         0.0800 
    136 H136       -1.9851  -16.7156  -51.8431 H         1 UNK         0.1150 
    137 H137        1.0729  -19.7101  -51.5339 H         1 UNK         0.1150 
    138 H138        0.3603  -17.0438  -48.2759 H         1 UNK         0.1150 
    139 H139        2.8864  -18.7923  -49.4105 H         1 UNK         0.0800 
    140 H140        1.8931  -18.8118  -47.9796 H         1 UNK         0.0800 
    141 H141       -0.4151  -21.4209  -49.3652 H         1 UNK         0.0800 
    142 H142       -0.1690  -20.5234  -47.8870 H         1 UNK         0.0800 
    143 H143        0.8080  -23.3996  -48.1831 H         1 UNK         0.0600 
    144 H144        0.9818  -21.5681  -46.0257 H         1 UNK         0.3000 
    145 H145        1.2231  -24.0156  -43.3949 H         1 UNK         0.0600 
    146 H146        3.2242  -22.6195  -42.9539 H         1 UNK         0.0600 
    147 H147        3.4938  -23.6768  -44.3313 H         1 UNK         0.0600 
    148 H148        3.1651  -21.9706  -44.5904 H         1 UNK         0.0600 
    149 H149        1.1314  -21.1703  -43.3071 H         1 UNK         0.3000 
    150 H150       -2.4397  -20.8899  -42.9493 H         1 UNK         0.0600 
    151 H151       -1.5026  -21.4493  -40.6942 H         1 UNK         0.0600 
    152 H152       -1.7289  -19.7195  -40.8988 H         1 UNK         0.0600 
    153 H153       -0.1139  -20.4160  -41.0129 H         1 UNK         0.0600 
    154 H154       -0.4368  -18.8896  -42.9501 H         1 UNK         0.3000 
    155 H155       -0.3033  -18.3822  -46.5111 H         1 UNK         0.0600 
    156 H156       -1.3088  -16.6737  -44.1777 H         1 UNK         0.0600 
    157 H157       -2.1864  -17.0083  -45.6660 H         1 UNK         0.0600 
    158 H158       -0.7079  -16.0568  -45.7152 H         1 UNK         0.0600 
    159 H159        1.1867  -17.1260  -44.4630 H         1 UNK         0.3000 
    160 H160        3.8795  -19.4964  -44.2894 H         1 UNK         0.0600 
    161 H161        5.0771  -17.3474  -44.7266 H         1 UNK         0.0600 
    162 H162        3.5954  -16.6416  -45.3711 H         1 UNK         0.0600 
    163 H163        4.3545  -17.9961  -46.1911 H         1 UNK         0.0600 
    164 H164        3.1435  -17.0387  -42.9228 H         1 UNK         0.3000 
    165 H165        1.7107  -18.6450  -40.0813 H         1 UNK         0.0600 
    166 H166        3.4911  -17.3854  -38.9052 H         1 UNK         0.0600 
    167 H167        4.1724  -18.8031  -39.6865 H         1 UNK         0.0600 
    168 H168        4.4036  -17.2136  -40.4050 H         1 UNK         0.0600 
    169 H169        2.3092  -15.9078  -40.6785 H         1 UNK         0.3000 
    170 H170       -0.7351  -15.1491  -42.3648 H         1 UNK         0.0600 
    171 H171       -1.3451  -15.1595  -39.9364 H         1 UNK         0.0600 
    172 H172        0.1992  -14.4119  -39.5426 H         1 UNK         0.0600 
    173 H173       -0.9869  -13.5410  -40.5164 H         1 UNK         0.0600 
    174 H174        1.1836  -13.3287  -41.6404 H         1 UNK         0.3000 
    175 H175        3.2754  -12.8900  -42.8335 H         1 UNK         0.0600 
    176 H176        3.0776  -13.9180  -45.7178 H         1 UNK         0.0600 
    177 H177        4.2071  -12.6950  -45.1409 H         1 UNK         0.0600 
    178 H178        4.3168  -14.3436  -44.5441 H         1 UNK         0.0600 
    179 H179        1.3688  -12.2479  -45.0253 H         1 UNK         0.3000 
    180 H180       -0.5263  -10.0524  -43.0367 H         1 UNK         0.0600 
    181 H181        1.4538   -9.1737  -45.2085 H         1 UNK         0.0600 
    182 H182        1.2453   -8.4338  -43.6295 H         1 UNK         0.0600 
    183 H183       -0.0520   -8.3437  -44.8098 H         1 UNK         0.0600 
    184 H184       -0.5391  -10.6124  -45.8416 H         1 UNK         0.3000 
    185 H185       -2.0059  -13.7642  -45.8115 H         1 UNK         0.0600 
    186 H186       -4.0835  -12.5140  -45.2020 H         1 UNK         0.0600 
    187 H187       -3.6245  -11.2043  -46.2840 H         1 UNK         0.0600 
    188 H188       -3.9953  -12.8033  -46.9316 H         1 UNK         0.0600 
    189 H189       -1.8767  -11.8915  -47.9171 H         1 UNK         0.3000 
    190 H190       -1.8186  -21.9325  -46.1962 H         1 UNK         0.3000 
    191 H191       -3.9799  -23.1828  -47.4845 H         1 UNK         0.0600 
    192 H192       -3.7183  -22.2700  -44.5789 H         1 UNK         0.0600 
    193 H193       -5.2306  -22.6244  -45.4041 H         1 UNK         0.0600 
    194 H194       -4.2384  -21.2769  -45.9384 H         1 UNK         0.0600 
    195 H195       -1.9661  -24.3777  -44.7777 H         1 UNK         0.3000 
    196 H196       -3.4069  -26.8197  -44.3710 H         1 UNK         0.0600 
    197 H197       -1.3714  -27.4700  -43.0791 H         1 UNK         0.0600 
    198 H198       -1.9083  -25.8513  -42.6547 H         1 UNK         0.0600 
    199 H199       -0.5112  -26.0686  -43.7057 H         1 UNK         0.0600 
    200 H200       -0.6023  -25.9654  -46.4343 H         1 UNK         0.3000 
    201 H201       -0.0342  -28.6129  -47.3198 H         1 UNK         0.0600 
    202 H202        1.6380  -26.7992  -47.3978 H         1 UNK         0.0600 
    203 H203        0.6676  -25.9056  -48.5663 H         1 UNK         0.0600 
    204 H204        1.3857  -27.4484  -49.0106 H         1 UNK         0.0600 
    205 H205       -2.0229  -25.9872  -48.7830 H         1 UNK         0.3000 
    206 H206       -3.5290  -27.9491  -50.3507 H         1 UNK         0.0600 
    207 H207       -3.0530  -26.7447  -52.5340 H         1 UNK         0.0600 
    208 H208       -1.7518  -25.8657  -51.7399 H         1 UNK         0.0600 
    209 H209       -1.6627  -27.6156  -51.9091 H         1 UNK         0.0600 
    210 H210       -2.8658  -24.4007  -50.3707 H         1 UNK         0.3000 
    211 H211       -5.3676  -23.5369  -49.3934 H         1 UNK         0.0600 
    212 H212       -5.0060  -23.5606  -52.4503 H         1 UNK         0.0600 
    213 H213       -6.2233  -22.6004  -51.6153 H         1 UNK         0.0600 
    214 H214       -6.3039  -24.3499  -51.5615 H         1 UNK         0.0600 
    215 H215       -5.4927  -21.0840  -49.7710 H         1 UNK         0.3000 
    216 H216       -3.0417  -19.7532  -50.6076 H         1 UNK         0.0600 
    217 H217       -2.8035  -18.5387  -48.4357 H         1 UNK         0.0600 
    218 H218       -2.5952  -20.2605  -48.1781 H         1 UNK         0.0600 
    219 H219       -4.1102  -19.4845  -47.7327 H         1 UNK         0.0600 
    220 H220       -3.4102  -17.4516  -50.6829 H         1 UNK         0.3000 
    221 H221       -4.3644  -15.5720  -51.2493 H         1 UNK         0.0600 
    222 H222       -6.8596  -16.5049  -49.7423 H         1 UNK         0.0600 
    223 H223       -5.4759  -15.6724  -49.0336 H         1 UNK         0.0600 
    224 H224       -6.4866  -14.8545  -50.2144 H         1 UNK         0.0600 
    225 H225       -6.4081  -18.3307  -52.0186 H         1 UNK         0.3000 
    226 H226       -7.8691  -17.0885  -54.1814 H         1 UNK         0.0600 
    227 H227       -8.6807  -19.4231  -54.5342 H         1 UNK         0.0600 
    228 H228       -7.4508  -20.0371  -53.4354 H         1 UNK         0.0600 
    229 H229       -8.7409  -18.9981  -52.8326 H         1 UNK         0.0600 
    230 H230       -4.6633  -17.8899  -54.0654 H         1 UNK         0.3000 
    231 H231       -2.9776  -18.2033  -55.4622 H         1 UNK         0.0600 
    232 H232       -4.0478  -16.4290  -56.8831 H         1 UNK         0.0600 
    233 H233       -4.8444  -17.6870  -57.8284 H         1 UNK         0.0600 
    234 H234       -3.0930  -17.5720  -57.8123 H         1 UNK         0.0600 
    235 H235       -4.9682  -20.3940  -54.7670 H         1 UNK         0.3000 
    236 H236       -4.4004  -22.4790  -56.7802 H         1 UNK         0.0600 
    237 H237       -6.7027  -22.2488  -55.9141 H         1 UNK         0.0600 
    238 H238       -6.0287  -23.7834  -55.3958 H         1 UNK         0.0600 
    239 H239       -6.1413  -22.4442  -54.2583 H         1 UNK         0.0600 
    240 H240       -2.4473  -21.2023  -54.6286 H         1 UNK         0.3000 
    241 H241       -1.6529  -23.3681  -52.9376 H         1 UNK         0.0600 
    242 H242       -0.9852  -23.0025  -56.3263 H         1 UNK         0.3800 
    243 H243        0.3725  -24.0968  -56.3512 H         1 UNK         0.3800 
    244 H244        0.2878  -21.9082  -52.3516 H         1 UNK         0.0800 
    245 H245       -1.2495  -21.1340  -52.1715 H         1 UNK         0.0800 
    246 H246       -1.9906  -18.9784  -53.2592 H         1 UNK         0.0800 
    247 H247       -0.8063  -17.8826  -53.9306 H         1 UNK         0.0800 
@<TRIPOS>BOND
     1    1    2 1    
     2    1  127 1    
     3    1  128 1    
     4    1  129 1    
     5    2    3 2    
     6    2    4 am   BACKBONE|DICT|INTERRES
     7    4    5 1    
     8    4  130 1    
     9    5    6 1    
    10    5   65 1    
    11    5  131 1    
    12    6    7 1    
    13    6  132 1    
    14    6  133 1    
    15    7    8 1    
    16    8    9 1    
    17    8  134 1    
    18    8  135 1    
    19    9   10 ar   
    20    9   14 ar   
    21   10   11 ar   
    22   10  136 1    
    23   11   12 ar   
    24   11  126 1    
    25   12   13 ar   
    26   12  137 1    
    27   13   14 ar   
    28   13   15 1    
    29   14  138 1    
    30   15   16 1    
    31   15  139 1    
    32   15  140 1    
    33   16   17 1    
    34   17   18 1    
    35   17  141 1    
    36   17  142 1    
    37   18   19 1    
    38   18   67 1    
    39   18  143 1    
    40   19   20 am   BACKBONE|DICT|INTERRES
    41   19  144 1    
    42   20   21 2    
    43   20   22 1    
    44   22   23 1    
    45   22   24 1    
    46   22  145 1    
    47   23  146 1    
    48   23  147 1    
    49   23  148 1    
    50   24   25 am   BACKBONE|DICT|INTERRES
    51   24  149 1    
    52   25   26 2    
    53   25   27 1    
    54   27   28 1    
    55   27   29 1    
    56   27  150 1    
    57   28  151 1    
    58   28  152 1    
    59   28  153 1    
    60   29   30 am   BACKBONE|DICT|INTERRES
    61   29  154 1    
    62   30   31 2    
    63   30   32 1    
    64   32   33 1    
    65   32   34 1    
    66   32  155 1    
    67   33  156 1    
    68   33  157 1    
    69   33  158 1    
    70   34   35 am   BACKBONE|DICT|INTERRES
    71   34  159 1    
    72   35   36 2    
    73   35   37 1    
    74   37   38 1    
    75   37   39 1    
    76   37  160 1    
    77   38  161 1    
    78   38  162 1    
    79   38  163 1    
    80   39   40 am   BACKBONE|DICT|INTERRES
    81   39  164 1    
    82   40   41 2    
    83   40   42 1    
    84   42   43 1    
    85   42   44 1    
    86   42  165 1    
    87   43  166 1    
    88   43  167 1    
    89   43  168 1    
    90   44   45 am   BACKBONE|DICT|INTERRES
    91   44  169 1    
    92   45   46 2    
    93   45   47 1    
    94   47   48 1    
    95   47   49 1    
    96   47  170 1    
    97   48  171 1    
    98   48  172 1    
    99   48  173 1    
   100   49   50 am   BACKBONE|DICT|INTERRES
   101   49  174 1    
   102   50   51 2    
   103   50   52 1    
   104   52   53 1    
   105   52   54 1    
   106   52  175 1    
   107   53  176 1    
   108   53  177 1    
   109   53  178 1    
   110   54   55 am   BACKBONE|DICT|INTERRES
   111   54  179 1    
   112   55   56 2    
   113   55   57 1    
   114   57   58 1    
   115   57   59 1    
   116   57  180 1    
   117   58  181 1    
   118   58  182 1    
   119   58  183 1    
   120   59   60 am   BACKBONE|DICT|INTERRES
   121   59  184 1    
   122   60   61 2    
   123   60   62 1    
   124   62   63 1    
   125   62   64 1    
   126   62  185 1    
   127   63  186 1    
   128   63  187 1    
   129   63  188 1    
   130   64   65 am   BACKBONE|DICT|INTERRES
   131   64  189 1    
   132   65   66 2    
   133   67   68 2    
   134   67   69 am   BACKBONE|DICT|INTERRES
   135   69   70 1    
   136   69  190 1    
   137   70   71 1    
   138   70   72 1    
   139   70  191 1    
   140   71  192 1    
   141   71  193 1    
   142   71  194 1    
   143   72   73 2    
   144   72   74 am   BACKBONE|DICT|INTERRES
   145   74   75 1    
   146   74  195 1    
   147   75   76 1    
   148   75   77 1    
   149   75  196 1    
   150   76  197 1    
   151   76  198 1    
   152   76  199 1    
   153   77   78 2    
   154   77   79 am   BACKBONE|DICT|INTERRES
   155   79   80 1    
   156   79  200 1    
   157   80   81 1    
   158   80   82 1    
   159   80  201 1    
   160   81  202 1    
   161   81  203 1    
   162   81  204 1    
   163   82   83 2    
   164   82   84 am   BACKBONE|DICT|INTERRES
   165   84   85 1    
   166   84  205 1    
   167   85   86 1    
   168   85   87 1    
   169   85  206 1    
   170   86  207 1    
   171   86  208 1    
   172   86  209 1    
   173   87   88 2    
   174   87   89 am   BACKBONE|DICT|INTERRES
   175   89   90 1    
   176   89  210 1    
   177   90   91 1    
   178   90   92 1    
   179   90  211 1    
   180   91  212 1    
   181   91  213 1    
   182   91  214 1    
   183   92   93 2    
   184   92   94 am   BACKBONE|DICT|INTERRES
   185   94   95 1    
   186   94  215 1    
   187   95   96 1    
   188   95   97 1    
   189   95  216 1    
   190   96  217 1    
   191   96  218 1    
   192   96  219 1    
   193   97   98 2    
   194   97   99 am   BACKBONE|DICT|INTERRES
   195   99  100 1    
   196   99  220 1    
   197  100  101 1    
   198  100  102 1    
   199  100  221 1    
   200  101  222 1    
   201  101  223 1    
   202  101  224 1    
   203  102  103 2    
   204  102  104 am   BACKBONE|DICT|INTERRES
   205  104  105 1    
   206  104  225 1    
   207  105  106 1    
   208  105  107 1    
   209  105  226 1    
   210  106  227 1    
   211  106  228 1    
   212  106  229 1    
   213  107  108 2    
   214  107  109 am   BACKBONE|DICT|INTERRES
   215  109  110 1    
   216  109  230 1    
   217  110  111 1    
   218  110  112 1    
   219  110  231 1    
   220  111  232 1    
   221  111  233 1    
   222  111  234 1    
   223  112  113 2    
   224  112  114 am   BACKBONE|DICT|INTERRES
   225  114  115 1    
   226  114  235 1    
   227  115  116 1    
   228  115  117 1    
   229  115  236 1    
   230  116  237 1    
   231  116  238 1    
   232  116  239 1    
   233  117  118 2    
   234  117  119 am   BACKBONE|DICT|INTERRES
   235  119  120 1    
   236  119  240 1    
   237  120  121 1    
   238  120  124 1    
   239  120  241 1    
   240  121  122 am   BACKBONE|DICT|INTERRES
   241  121  123 2    
   242  122  242 1    
   243  122  243 1    
   244  124  125 1    
   245  124  244 1    
   246  124  245 1    
   247  125  126 1    
   248  126  246 1    
   249  126  247 1    
@<TRIPOS>SUBSTRUCTURE
     1 UNK         1 GROUP             0       ****    0 ROOT    
