@<TRIPOS>MOLECULE
3R540
247   249    1
SMALL
USER_CHARGES


@<TRIPOS>ATOM
      1 CA         -0.3718  -12.2392  -53.7682 C.3       0 UNK        -0.1800 
      2 C          -0.3353  -12.8809  -52.3884 C.2       0 UNK         0.5000 
      3 O           0.4034  -13.8432  -52.1832 O.2       0 UNK        -0.5000 
      4 N          -1.1340  -12.3563  -51.4502 N.am      1 UNK        -0.5000 
      5 CA         -1.2258  -12.8194  -50.0633 C.3       1 UNK         0.1400 
      6 C6         -2.4505  -12.1804  -49.3507 C.3       23 UNK        -0.0398 
      7 S7         -2.6362  -12.5836  -47.5740 S.3       23 UNK        -0.2404 
      8 C8         -3.7231  -14.0435  -47.6162 C.3       23 UNK        -0.0205 
      9 C9         -3.0787  -15.2106  -48.3476 C.ar      23 UNK        -0.0193 
     10 C10        -3.6172  -15.6696  -49.5539 C.ar      23 UNK        -0.1150 
     11 C11        -3.0134  -16.7243  -50.2430 C.ar      23 UNK        -0.0193 
     12 C12        -1.8690  -17.3237  -49.7103 C.ar      23 UNK        -0.1150 
     13 C13        -1.3090  -16.8612  -48.5192 C.ar      23 UNK        -0.0193 
     14 C14        -1.9267  -15.8133  -47.8321 C.ar      23 UNK        -0.1150 
     15 C15        -0.0113  -17.4686  -48.0156 C.3       23 UNK        -0.0205 
     16 S16        -0.2596  -19.1251  -47.3222 S.3       23 UNK        -0.2404 
     17 C17         1.4768  -19.5645  -46.9705 C.3       23 UNK        -0.0398 
     18 CA          1.7145  -21.0228  -46.4854 C.3       11 UNK         0.1400 
     19 N           1.1126  -21.2746  -45.1685 N.am      11 UNK        -0.5000 
     20 C          -0.1045  -21.7572  -44.8662 C.2       10 UNK         0.5000 
     21 O          -0.9387  -22.1143  -45.6998 O.2       10 UNK        -0.5000 
     22 CA         -0.4753  -21.8021  -43.3653 C.3       10 UNK         0.1400 
     23 CB         -1.3129  -23.0421  -42.9904 C.3       10 UNK        -0.1800 
     24 N           0.6615  -21.6289  -42.4435 N.am      10 UNK        -0.5000 
     25 C           1.6936  -22.4716  -42.2809 C.2       9 UNK         0.5000 
     26 O           1.8077  -23.5255  -42.9075 O.2       9 UNK        -0.5000 
     27 CA          2.7914  -22.0926  -41.2703 C.3       9 UNK         0.1400 
     28 CB          4.2009  -22.3550  -41.8384 C.3       9 UNK        -0.1800 
     29 N           2.7255  -20.7039  -40.8025 N.am      9 UNK        -0.5000 
     30 C           3.0928  -20.3342  -39.5668 C.2       8 UNK         0.5000 
     31 O           3.3130  -21.1298  -38.6518 O.2       8 UNK        -0.5000 
     32 CA          3.3060  -18.8327  -39.3100 C.3       8 UNK         0.1400 
     33 CB          4.6248  -18.3650  -39.9452 C.3       8 UNK        -0.1800 
     34 N           2.2072  -17.9932  -39.7800 N.am      8 UNK        -0.5000 
     35 C           1.0077  -17.9196  -39.1873 C.2       7 UNK         0.5000 
     36 O           0.6916  -18.5771  -38.1949 O.2       7 UNK        -0.5000 
     37 CA         -0.0134  -16.9443  -39.8041 C.3       7 UNK         0.1400 
     38 CB          0.2243  -15.5148  -39.2938 C.3       7 UNK        -0.1800 
     39 N           0.0062  -16.9484  -41.2666 N.am      7 UNK        -0.5000 
     40 C          -0.3397  -18.0008  -42.0196 C.2       6 UNK         0.5000 
     41 O          -0.7530  -19.0629  -41.5567 O.2       6 UNK        -0.5000 
     42 CA         -0.1339  -17.8661  -43.5386 C.3       6 UNK         0.1400 
     43 CB         -1.2666  -17.0558  -44.1810 C.3       6 UNK        -0.1800 
     44 N           1.1607  -17.2720  -43.8667 N.am      6 UNK        -0.5000 
     45 C           2.3443  -17.8343  -43.5821 C.2       5 UNK         0.5000 
     46 O           2.4707  -18.9577  -43.0902 O.2       5 UNK        -0.5000 
     47 CA          3.5926  -16.9841  -43.8682 C.3       5 UNK         0.1400 
     48 CB          4.0492  -17.1542  -45.3249 C.3       5 UNK        -0.1800 
     49 N           3.3627  -15.5667  -43.5837 N.am      5 UNK        -0.5000 
     50 C           3.2520  -15.0558  -42.3492 C.2       4 UNK         0.5000 
     51 O           3.3549  -15.7268  -41.3236 O.2       4 UNK        -0.5000 
     52 CA          2.9333  -13.5530  -42.2415 C.3       4 UNK         0.1400 
     53 CB          4.2110  -12.7153  -42.3979 C.3       4 UNK        -0.1800 
     54 N           1.9406  -13.1131  -43.2223 N.am      4 UNK        -0.5000 
     55 C           0.6613  -13.5121  -43.2344 C.2       3 UNK         0.5000 
     56 O           0.1739  -14.2649  -42.3917 O.2       3 UNK        -0.5000 
     57 CA         -0.2084  -13.0286  -44.4114 C.3       3 UNK         0.1400 
     58 CB         -0.8706  -11.6853  -44.0722 C.3       3 UNK        -0.1800 
     59 N           0.5048  -12.9073  -45.6879 N.am      3 UNK        -0.5000 
     60 C           1.1922  -13.8876  -46.2882 C.2       2 UNK         0.5000 
     61 O           1.3660  -15.0010  -45.7904 O.2       2 UNK        -0.5000 
     62 CA          1.7132  -13.5783  -47.6985 C.3       2 UNK         0.1400 
     63 CB          2.7642  -14.5947  -48.1800 C.3       2 UNK        -0.1800 
     64 N           0.5676  -13.6099  -48.6001 N.am      2 UNK        -0.5000 
     65 C           0.1006  -12.5763  -49.3081 C.2       1 UNK         0.5000 
     66 O           0.6412  -11.4686  -49.3570 O.2       1 UNK        -0.5000 
     67 C           1.4364  -22.1237  -47.5427 C.2       11 UNK         0.5000 
     68 O           1.5066  -23.3120  -47.2206 O.2       11 UNK        -0.5000 
     69 N           1.1321  -21.7181  -48.7832 N.am      12 UNK        -0.5000 
     70 CA          0.6143  -22.5891  -49.8373 C.3       12 UNK         0.1400 
     71 CB          0.8944  -21.9429  -51.2017 C.3       12 UNK        -0.1800 
     72 C          -0.8965  -22.8434  -49.6831 C.2       12 UNK         0.5000 
     73 O          -1.3988  -23.8201  -50.2397 O.2       12 UNK        -0.5000 
     74 N          -1.5979  -21.9744  -48.9367 N.am      13 UNK        -0.5000 
     75 CA         -3.0469  -21.9989  -48.7209 C.3       13 UNK         0.1400 
     76 CB         -3.4597  -20.7861  -47.8750 C.3       13 UNK        -0.1800 
     77 C          -3.5740  -23.3036  -48.0971 C.2       13 UNK         0.5000 
     78 O          -4.7111  -23.6827  -48.3727 O.2       13 UNK        -0.5000 
     79 N          -2.7274  -23.9942  -47.3230 N.am      14 UNK        -0.5000 
     80 CA         -2.9774  -25.3298  -46.7792 C.3       14 UNK         0.1400 
     81 CB         -1.7939  -25.7262  -45.8849 C.3       14 UNK        -0.1800 
     82 C          -3.2144  -26.4161  -47.8510 C.2       14 UNK         0.5000 
     83 O          -3.9294  -27.3804  -47.5750 O.2       14 UNK        -0.5000 
     84 N          -2.6167  -26.2481  -49.0389 N.am      15 UNK        -0.5000 
     85 CA         -2.7332  -27.1676  -50.1712 C.3       15 UNK         0.1400 
     86 CB         -1.3248  -27.5016  -50.6884 C.3       15 UNK        -0.1800 
     87 C          -3.5870  -26.5666  -51.2997 C.2       15 UNK         0.5000 
     88 O          -4.4064  -27.2742  -51.8857 O.2       15 UNK        -0.5000 
     89 N          -3.3819  -25.2747  -51.5876 N.am      16 UNK        -0.5000 
     90 CA         -4.0102  -24.5465  -52.6917 C.3       16 UNK         0.1400 
     91 CB         -3.0751  -23.3951  -53.0931 C.3       16 UNK        -0.1800 
     92 C          -5.4167  -24.0055  -52.3673 C.2       16 UNK         0.5000 
     93 O          -6.0366  -23.3858  -53.2357 O.2       16 UNK        -0.5000 
     94 N          -5.8700  -24.1756  -51.1152 N.am      17 UNK        -0.5000 
     95 CA         -7.1443  -23.7102  -50.5433 C.3       17 UNK         0.1400 
     96 CB         -8.3318  -24.4108  -51.2354 C.3       17 UNK        -0.1800 
     97 C          -7.3035  -22.1726  -50.5358 C.2       17 UNK         0.5000 
     98 O          -8.4174  -21.6738  -50.3712 O.2       17 UNK        -0.5000 
     99 N          -6.1885  -21.4589  -50.7575 N.am      18 UNK        -0.5000 
    100 CA        -6.0701  -20.0249  -51.0406 C.3       18 UNK         0.1400 
    101 CB        -6.4888  -19.1810  -49.8184 C.3       18 UNK        -0.1800 
    102 C         -6.7981  -19.5935  -52.3356 C.2       18 UNK         0.5000 
    103 O         -7.1162  -18.4128  -52.4864 O.2       18 UNK        -0.5000 
    104 N         -7.0611  -20.5508  -53.2365 N.am      19 UNK        -0.5000 
    105 CA        -7.8664  -20.3671  -54.4414 C.3       19 UNK         0.1400 
    106 CB        -9.1383  -21.2227  -54.3246 C.3       19 UNK        -0.1800 
    107 C         -7.0832  -20.7379  -55.7070 C.2       19 UNK         0.5000 
    108 O         -7.1658  -20.0105  -56.6977 O.2       19 UNK        -0.5000 
    109 N         -6.3426  -21.8549  -55.6668 N.am      20 UNK        -0.5000 
    110 CA        -5.5764  -22.3590  -56.8088 C.3       20 UNK         0.1400 
    111 CB        -5.2670  -23.8485  -56.5928 C.3       20 UNK        -0.1800 
    112 C         -4.2801  -21.5669  -57.0592 C.2       20 UNK         0.5000 
    113 O         -3.8436  -21.4681  -58.2067 O.2       20 UNK        -0.5000 
    114 N         -3.6945  -21.0220  -55.9875 N.am      21 UNK        -0.5000 
    115 CA        -2.4382  -20.2819  -55.9554 C.3       21 UNK         0.1400 
    116 CB        -1.2562  -21.2147  -56.2966 C.3       21 UNK        -0.1800 
    117 C         -2.2567  -19.6949  -54.5476 C.2       21 UNK         0.5000 
    118 O         -2.9616  -20.1036  -53.6192 O.2       21 UNK        -0.5000 
    119 N         -1.2905  -18.7793  -54.4154 N.am      22 UNK        -0.5000 
    120 CA        -0.8220  -18.2276  -53.1322 C.3       22 UNK         0.1400 
    121 C          0.6870  -18.4969  -52.8593 C.2       22 UNK         0.5000 
    122 N          1.4023  -19.2319  -53.7029 N.am      22 UNK        -0.7600 
    123 O          1.2162  -18.0622  -51.8410 O.2       22 UNK        -0.5000 
    124 C124       -1.1649  -16.7206  -52.9690 C.3       23 UNK        -0.0398 
    125 S125       -2.9492  -16.3291  -53.0095 S.3       23 UNK        -0.2404 
    126 C126       -3.5986  -17.2201  -51.5569 C.3       23 UNK        -0.0205 
    127 H127       -1.0671  -11.4004  -53.8081 H         1 UNK         0.0600 
    128 H128       -0.6808  -12.9726  -54.5132 H         1 UNK         0.0600 
    129 H129        0.6188  -11.8734  -54.0382 H         1 UNK         0.0600 
    130 H130       -1.6927  -11.5473  -51.6801 H         1 UNK         0.3000 
    131 H131       -1.3906  -13.8969  -50.1116 H         1 UNK         0.0600 
    132 H132       -3.3671  -12.4618  -49.8709 H         1 UNK         0.0800 
    133 H133       -2.3911  -11.0932  -49.4243 H         1 UNK         0.0800 
    134 H134       -3.9479  -14.3463  -46.5926 H         1 UNK         0.0800 
    135 H135       -4.6758  -13.7708  -48.0727 H         1 UNK         0.0800 
    136 H136       -4.5008  -15.2009  -49.9640 H         1 UNK         0.1150 
    137 H137       -1.3927  -18.1434  -50.2252 H         1 UNK         0.1150 
    138 H138       -1.5008  -15.4433  -46.9102 H         1 UNK         0.1150 
    139 H139        0.7022  -17.5188  -48.8399 H         1 UNK         0.0800 
    140 H140        0.4383  -16.8374  -47.2518 H         1 UNK         0.0800 
    141 H141        1.8317  -18.8757  -46.2069 H         1 UNK         0.0800 
    142 H142        2.0891  -19.3495  -47.8479 H         1 UNK         0.0800 
    143 H143        2.7873  -21.1042  -46.3043 H         1 UNK         0.0600 
    144 H144        1.6937  -21.0198  -44.3826 H         1 UNK         0.3000 
    145 H145       -1.1258  -20.9421  -43.2157 H         1 UNK         0.0600 
    146 H146       -1.6128  -23.0100  -41.9431 H         1 UNK         0.0600 
    147 H147       -2.2263  -23.0930  -43.5841 H         1 UNK         0.0600 
    148 H148       -0.7646  -23.9696  -43.1527 H         1 UNK         0.0600 
    149 H149        0.6278  -20.7889  -41.8784 H         1 UNK         0.3000 
    150 H150        2.6364  -22.7691  -40.4274 H         1 UNK         0.0600 
    151 H151        4.3181  -23.3918  -42.1557 H         1 UNK         0.0600 
    152 H152        4.9716  -22.1626  -41.0918 H         1 UNK         0.0600 
    153 H153        4.4053  -21.7198  -42.7011 H         1 UNK         0.0600 
    154 H154        2.5868  -19.9927  -41.5175 H         1 UNK         0.3000 
    155 H155        3.3955  -18.6940  -38.2303 H         1 UNK         0.0600 
    156 H156        5.4613  -18.9789  -39.6088 H         1 UNK         0.0600 
    157 H157        4.8500  -17.3343  -39.6714 H         1 UNK         0.0600 
    158 H158        4.5912  -18.4240  -41.0332 H         1 UNK         0.0600 
    159 H159        2.4123  -17.3652  -40.5495 H         1 UNK         0.3000 
    160 H160       -1.0083  -17.2580  -39.4814 H         1 UNK         0.0600 
    161 H161        1.1915  -15.1277  -39.6161 H         1 UNK         0.0600 
    162 H162        0.2014  -15.4792  -38.2039 H         1 UNK         0.0600 
    163 H163       -0.5454  -14.8341  -39.6579 H         1 UNK         0.0600 
    164 H164        0.2858  -16.0842  -41.7221 H         1 UNK         0.3000 
    165 H165       -0.1543  -18.8654  -43.9736 H         1 UNK         0.0600 
    166 H166       -1.3027  -16.0349  -43.8035 H         1 UNK         0.0600 
    167 H167       -1.1476  -17.0128  -45.2613 H         1 UNK         0.0600 
    168 H168       -2.2354  -17.5148  -43.9810 H         1 UNK         0.0600 
    169 H169        1.1539  -16.3660  -44.3241 H         1 UNK         0.3000 
    170 H170        4.3956  -17.3398  -43.2199 H         1 UNK         0.0600 
    171 H171        4.2750  -18.1989  -45.5419 H         1 UNK         0.0600 
    172 H172        3.2854  -16.8301  -46.0317 H         1 UNK         0.0600 
    173 H173        4.9537  -16.5792  -45.5236 H         1 UNK         0.0600 
    174 H174        3.1737  -14.9714  -44.3780 H         1 UNK         0.3000 
    175 H175        2.5266  -13.3713  -41.2443 H         1 UNK         0.0600 
    176 H176        4.9636  -13.0123  -41.6662 H         1 UNK         0.0600 
    177 H177        4.6522  -12.8315  -43.3886 H         1 UNK         0.0600 
    178 H178        4.0088  -11.6554  -42.2421 H         1 UNK         0.0600 
    179 H179        2.2591  -12.4966  -43.9549 H         1 UNK         0.3000 
    180 H180       -0.9994  -13.7666  -44.5564 H         1 UNK         0.0600 
    181 H181       -1.4294  -11.7500  -43.1375 H         1 UNK         0.0600 
    182 H182       -0.1329  -10.8898  -43.9602 H         1 UNK         0.0600 
    183 H183       -1.5744  -11.3844  -44.8482 H         1 UNK         0.0600 
    184 H184        0.3850  -12.0348  -46.1820 H         1 UNK         0.3000 
    185 H185        2.1766  -12.5899  -47.6767 H         1 UNK         0.0600 
    186 H186        3.6220  -14.6174  -47.5070 H         1 UNK         0.0600 
    187 H187        2.3617  -15.6062  -48.2346 H         1 UNK         0.0600 
    188 H188        3.1347  -14.3326  -49.1711 H         1 UNK         0.0600 
    189 H189        0.0354  -14.4688  -48.5956 H         1 UNK         0.3000 
    190 H190        1.1077  -20.7271  -48.9758 H         1 UNK         0.3000 
    191 H191        1.1255  -23.5533  -49.7989 H         1 UNK         0.0600 
    192 H192        0.3763  -20.9893  -51.3046 H         1 UNK         0.0600 
    193 H193        0.5582  -22.5862  -52.0161 H         1 UNK         0.0600 
    194 H194        1.9600  -21.7647  -51.3463 H         1 UNK         0.0600 
    195 H195       -1.0971  -21.2365  -48.4614 H         1 UNK         0.3000 
    196 H196       -3.5161  -21.9028  -49.7010 H         1 UNK         0.0600 
    197 H197       -4.5271  -20.8075  -47.6545 H         1 UNK         0.0600 
    198 H198       -3.2509  -19.8507  -48.3948 H         1 UNK         0.0600 
    199 H199       -2.9341  -20.7639  -46.9201 H         1 UNK         0.0600 
    200 H200       -1.8433  -23.5593  -47.0835 H         1 UNK         0.3000 
    201 H201       -3.8756  -25.2737  -46.1611 H         1 UNK         0.0600 
    202 H202       -1.9488  -26.7096  -45.4390 H         1 UNK         0.0600 
    203 H203       -0.8595  -25.7605  -46.4468 H         1 UNK         0.0600 
    204 H204       -1.6653  -25.0172  -45.0695 H         1 UNK         0.0600 
    205 H205       -2.0734  -25.4065  -49.1960 H         1 UNK         0.3000 
    206 H206       -3.2056  -28.1022  -49.8619 H         1 UNK         0.0600 
    207 H207       -0.7286  -27.9872  -49.9158 H         1 UNK         0.0600 
    208 H208       -1.3715  -28.1826  -51.5392 H         1 UNK         0.0600 
    209 H209       -0.7890  -26.6076  -51.0108 H         1 UNK         0.0600 
    210 H210       -2.6664  -24.7654  -51.0723 H         1 UNK         0.3000 
    211 H211       -4.1111  -25.2178  -53.5468 H         1 UNK         0.0600 
    212 H212       -3.4578  -22.8632  -53.9619 H         1 UNK         0.0600 
    213 H213       -2.0823  -23.7624  -53.3534 H         1 UNK         0.0600 
    214 H214       -2.9610  -22.6667  -52.2893 H         1 UNK         0.0600 
    215 H215       -5.2566  -24.6386  -50.4572 H         1 UNK         0.3000 
    216 H216       -7.1432  -24.0199  -49.4976 H         1 UNK         0.0600 
    217 H217       -9.2685  -24.1970  -50.7195 H         1 UNK         0.0600 
    218 H218       -8.2044  -25.4933  -51.2364 H         1 UNK         0.0600 
    219 H219       -8.4488  -24.0856  -52.2696 H         1 UNK         0.0600 
    220 H220       -5.3432  -21.9946  -50.8820 H         1 UNK         0.3000 
    221 H221       -5.0096  -19.8515  -51.2183 H         1 UNK         0.0600 
    222 H222       -7.5608  -19.2445  -49.6311 H         1 UNK         0.0600 
    223 H223       -5.9732  -19.5035  -48.9159 H         1 UNK         0.0600 
    224 H224       -6.2478  -18.1279  -49.9646 H         1 UNK         0.0600 
    225 H225       -6.7404  -21.4944  -53.0501 H         1 UNK         0.3000 
    226 H226       -8.1722  -19.3241  -54.5461 H         1 UNK         0.0600 
    227 H227       -9.7667  -21.1142  -55.2095 H         1 UNK         0.0600 
    228 H228       -8.9037  -22.2823  -54.2136 H         1 UNK         0.0600 
    229 H229       -9.7343  -20.9225  -53.4625 H         1 UNK         0.0600 
    230 H230       -6.3190  -22.4171  -54.8202 H         1 UNK         0.3000 
    231 H231       -6.1942  -22.2736  -57.7054 H         1 UNK         0.0600 
    232 H232       -6.1815  -24.4256  -56.4550 H         1 UNK         0.0600 
    233 H233       -4.6360  -24.0082  -55.7193 H         1 UNK         0.0600 
    234 H234       -4.7448  -24.2667  -57.4542 H         1 UNK         0.0600 
    235 H235       -4.1357  -21.1073  -55.0801 H         1 UNK         0.3000 
    236 H236       -2.4912  -19.4623  -56.6746 H         1 UNK         0.0600 
    237 H237       -1.3417  -21.6266  -57.3017 H         1 UNK         0.0600 
    238 H238       -0.3056  -20.6825  -56.2575 H         1 UNK         0.0600 
    239 H239       -1.1939  -22.0508  -55.5986 H         1 UNK         0.0600 
    240 H240       -0.7813  -18.4761  -55.2330 H         1 UNK         0.3000 
    241 H241       -1.3107  -18.7738  -52.3280 H         1 UNK         0.0600 
    242 H242        0.9900  -19.6466  -54.5212 H         1 UNK         0.3800 
    243 H243        2.3749  -19.3986  -53.4982 H         1 UNK         0.3800 
    244 H244       -0.7623  -16.3253  -52.0355 H         1 UNK         0.0800 
    245 H245       -0.6811  -16.1445  -53.7590 H         1 UNK         0.0800 
    246 H246       -3.4162  -18.2872  -51.6706 H         1 UNK         0.0800 
    247 H247       -4.6826  -17.1020  -51.5425 H         1 UNK         0.0800 
@<TRIPOS>BOND
     1    1    2 1    
     2    1  127 1    
     3    1  128 1    
     4    1  129 1    
     5    2    3 2    
     6    2    4 am   BACKBONE|DICT|INTERRES
     7    4    5 1    
     8    4  130 1    
     9    5    6 1    
    10    5   65 1    
    11    5  131 1    
    12    6    7 1    
    13    6  132 1    
    14    6  133 1    
    15    7    8 1    
    16    8    9 1    
    17    8  134 1    
    18    8  135 1    
    19    9   10 ar   
    20    9   14 ar   
    21   10   11 ar   
    22   10  136 1    
    23   11   12 ar   
    24   11  126 1    
    25   12   13 ar   
    26   12  137 1    
    27   13   14 ar   
    28   13   15 1    
    29   14  138 1    
    30   15   16 1    
    31   15  139 1    
    32   15  140 1    
    33   16   17 1    
    34   17   18 1    
    35   17  141 1    
    36   17  142 1    
    37   18   19 1    
    38   18   67 1    
    39   18  143 1    
    40   19   20 am   BACKBONE|DICT|INTERRES
    41   19  144 1    
    42   20   21 2    
    43   20   22 1    
    44   22   23 1    
    45   22   24 1    
    46   22  145 1    
    47   23  146 1    
    48   23  147 1    
    49   23  148 1    
    50   24   25 am   BACKBONE|DICT|INTERRES
    51   24  149 1    
    52   25   26 2    
    53   25   27 1    
    54   27   28 1    
    55   27   29 1    
    56   27  150 1    
    57   28  151 1    
    58   28  152 1    
    59   28  153 1    
    60   29   30 am   BACKBONE|DICT|INTERRES
    61   29  154 1    
    62   30   31 2    
    63   30   32 1    
    64   32   33 1    
    65   32   34 1    
    66   32  155 1    
    67   33  156 1    
    68   33  157 1    
    69   33  158 1    
    70   34   35 am   BACKBONE|DICT|INTERRES
    71   34  159 1    
    72   35   36 2    
    73   35   37 1    
    74   37   38 1    
    75   37   39 1    
    76   37  160 1    
    77   38  161 1    
    78   38  162 1    
    79   38  163 1    
    80   39   40 am   BACKBONE|DICT|INTERRES
    81   39  164 1    
    82   40   41 2    
    83   40   42 1    
    84   42   43 1    
    85   42   44 1    
    86   42  165 1    
    87   43  166 1    
    88   43  167 1    
    89   43  168 1    
    90   44   45 am   BACKBONE|DICT|INTERRES
    91   44  169 1    
    92   45   46 2    
    93   45   47 1    
    94   47   48 1    
    95   47   49 1    
    96   47  170 1    
    97   48  171 1    
    98   48  172 1    
    99   48  173 1    
   100   49   50 am   BACKBONE|DICT|INTERRES
   101   49  174 1    
   102   50   51 2    
   103   50   52 1    
   104   52   53 1    
   105   52   54 1    
   106   52  175 1    
   107   53  176 1    
   108   53  177 1    
   109   53  178 1    
   110   54   55 am   BACKBONE|DICT|INTERRES
   111   54  179 1    
   112   55   56 2    
   113   55   57 1    
   114   57   58 1    
   115   57   59 1    
   116   57  180 1    
   117   58  181 1    
   118   58  182 1    
   119   58  183 1    
   120   59   60 am   BACKBONE|DICT|INTERRES
   121   59  184 1    
   122   60   61 2    
   123   60   62 1    
   124   62   63 1    
   125   62   64 1    
   126   62  185 1    
   127   63  186 1    
   128   63  187 1    
   129   63  188 1    
   130   64   65 am   BACKBONE|DICT|INTERRES
   131   64  189 1    
   132   65   66 2    
   133   67   68 2    
   134   67   69 am   BACKBONE|DICT|INTERRES
   135   69   70 1    
   136   69  190 1    
   137   70   71 1    
   138   70   72 1    
   139   70  191 1    
   140   71  192 1    
   141   71  193 1    
   142   71  194 1    
   143   72   73 2    
   144   72   74 am   BACKBONE|DICT|INTERRES
   145   74   75 1    
   146   74  195 1    
   147   75   76 1    
   148   75   77 1    
   149   75  196 1    
   150   76  197 1    
   151   76  198 1    
   152   76  199 1    
   153   77   78 2    
   154   77   79 am   BACKBONE|DICT|INTERRES
   155   79   80 1    
   156   79  200 1    
   157   80   81 1    
   158   80   82 1    
   159   80  201 1    
   160   81  202 1    
   161   81  203 1    
   162   81  204 1    
   163   82   83 2    
   164   82   84 am   BACKBONE|DICT|INTERRES
   165   84   85 1    
   166   84  205 1    
   167   85   86 1    
   168   85   87 1    
   169   85  206 1    
   170   86  207 1    
   171   86  208 1    
   172   86  209 1    
   173   87   88 2    
   174   87   89 am   BACKBONE|DICT|INTERRES
   175   89   90 1    
   176   89  210 1    
   177   90   91 1    
   178   90   92 1    
   179   90  211 1    
   180   91  212 1    
   181   91  213 1    
   182   91  214 1    
   183   92   93 2    
   184   92   94 am   BACKBONE|DICT|INTERRES
   185   94   95 1    
   186   94  215 1    
   187   95   96 1    
   188   95   97 1    
   189   95  216 1    
   190   96  217 1    
   191   96  218 1    
   192   96  219 1    
   193   97   98 2    
   194   97   99 am   BACKBONE|DICT|INTERRES
   195   99  100 1    
   196   99  220 1    
   197  100  101 1    
   198  100  102 1    
   199  100  221 1    
   200  101  222 1    
   201  101  223 1    
   202  101  224 1    
   203  102  103 2    
   204  102  104 am   BACKBONE|DICT|INTERRES
   205  104  105 1    
   206  104  225 1    
   207  105  106 1    
   208  105  107 1    
   209  105  226 1    
   210  106  227 1    
   211  106  228 1    
   212  106  229 1    
   213  107  108 2    
   214  107  109 am   BACKBONE|DICT|INTERRES
   215  109  110 1    
   216  109  230 1    
   217  110  111 1    
   218  110  112 1    
   219  110  231 1    
   220  111  232 1    
   221  111  233 1    
   222  111  234 1    
   223  112  113 2    
   224  112  114 am   BACKBONE|DICT|INTERRES
   225  114  115 1    
   226  114  235 1    
   227  115  116 1    
   228  115  117 1    
   229  115  236 1    
   230  116  237 1    
   231  116  238 1    
   232  116  239 1    
   233  117  118 2    
   234  117  119 am   BACKBONE|DICT|INTERRES
   235  119  120 1    
   236  119  240 1    
   237  120  121 1    
   238  120  124 1    
   239  120  241 1    
   240  121  122 am   BACKBONE|DICT|INTERRES
   241  121  123 2    
   242  122  242 1    
   243  122  243 1    
   244  124  125 1    
   245  124  244 1    
   246  124  245 1    
   247  125  126 1    
   248  126  246 1    
   249  126  247 1    
@<TRIPOS>SUBSTRUCTURE
     1 UNK         1 GROUP             0       ****    0 ROOT    
