@<TRIPOS>MOLECULE
3R540
247   249    1
SMALL
USER_CHARGES


@<TRIPOS>ATOM
      1 CA         -4.1977  -15.5914  -47.7849 C.3       0 UNK        -0.1800 
      2 C          -3.1315  -16.6474  -47.4912 C.2       0 UNK         0.5000 
      3 O          -3.3868  -17.5296  -46.6774 O.2       0 UNK        -0.5000 
      4 N          -1.9461  -16.6360  -48.1192 N.am      1 UNK        -0.5000 
      5 CA         -1.4447  -15.6626  -49.0956 C.3       1 UNK         0.1400 
      6 C6         -0.2676  -16.2451  -49.9170 C.3       23 UNK        -0.0398 
      7 S7          1.2146  -16.6413  -48.9282 S.3       23 UNK        -0.2404 
      8 C8          2.3830  -17.1538  -50.2218 C.3       23 UNK        -0.0205 
      9 C9          2.3849  -18.6610  -50.4307 C.ar      23 UNK        -0.0193 
     10 C10         1.4723  -19.2586  -51.3055 C.ar      23 UNK        -0.1150 
     11 C11         1.5101  -20.6384  -51.5401 C.ar      23 UNK        -0.0193 
     12 C12         2.4884  -21.4109  -50.9046 C.ar      23 UNK        -0.1150 
     13 C13         3.4138  -20.8261  -50.0356 C.ar      23 UNK        -0.0193 
     14 C14         3.3436  -19.4519  -49.7899 C.ar      23 UNK        -0.1150 
     15 C15         4.5431  -21.6562  -49.4322 C.3       23 UNK        -0.0205 
     16 S16         3.9713  -23.0849  -48.4558 S.3       23 UNK        -0.2404 
     17 C17         3.2212  -22.2560  -47.0157 C.3       23 UNK        -0.0398 
     18 CA          1.8775  -22.8779  -46.5663 C.3       11 UNK         0.1400 
     19 N           1.4334  -22.3016  -45.2943 N.am      11 UNK        -0.5000 
     20 C           0.3937  -22.7297  -44.5655 C.2       10 UNK         0.5000 
     21 O          -0.2817  -23.7164  -44.8528 O.2       10 UNK        -0.5000 
     22 CA          0.0097  -21.8811  -43.3378 C.3       10 UNK         0.1400 
     23 CB          0.9071  -22.2088  -42.1357 C.3       10 UNK        -0.1800 
     24 N           0.0581  -20.4443  -43.6144 N.am      10 UNK        -0.5000 
     25 C          -0.7243  -19.8218  -44.5079 C.2       9 UNK         0.5000 
     26 O          -1.6145  -20.3854  -45.1413 O.2       9 UNK        -0.5000 
     27 CA         -0.4243  -18.3381  -44.7834 C.3       9 UNK         0.1400 
     28 CB         -1.1161  -17.4332  -43.7533 C.3       9 UNK        -0.1800 
     29 N           1.0130  -18.0600  -44.8153 N.am      9 UNK        -0.5000 
     30 C           1.8450  -18.5375  -45.7531 C.2       8 UNK         0.5000 
     31 O           1.4755  -19.2385  -46.6933 O.2       8 UNK        -0.5000 
     32 CA          3.3445  -18.2355  -45.5730 C.3       8 UNK         0.1400 
     33 CB          3.6797  -16.8029  -46.0131 C.3       8 UNK        -0.1800 
     34 N           3.7834  -18.4273  -44.1910 N.am      8 UNK        -0.5000 
     35 C           3.8119  -19.6091  -43.5587 C.2       7 UNK         0.5000 
     36 O           3.5263  -20.6772  -44.0976 O.2       7 UNK        -0.5000 
     37 CA          4.1673  -19.5845  -42.0584 C.3       7 UNK         0.1400 
     38 CB          5.6845  -19.7172  -41.8619 C.3       7 UNK        -0.1800 
     39 N           3.6902  -18.3799  -41.3699 N.am      7 UNK        -0.5000 
     40 C           2.4034  -18.0203  -41.2776 C.2       6 UNK         0.5000 
     41 O           1.4739  -18.6894  -41.7406 O.2       6 UNK        -0.5000 
     42 CA          2.1122  -16.6656  -40.6163 C.3       6 UNK         0.1400 
     43 CB          2.6430  -15.5122  -41.4945 C.3       6 UNK        -0.1800 
     44 N           0.6679  -16.5481  -40.4576 N.am      6 UNK        -0.5000 
     45 C           0.0122  -15.6132  -39.7672 C.2       5 UNK         0.5000 
     46 O           0.5591  -14.7512  -39.0748 O.2       5 UNK        -0.5000 
     47 CA         -1.5247  -15.6495  -39.8742 C.3       5 UNK         0.1400 
     48 CB         -2.1502  -16.1907  -38.5794 C.3       5 UNK        -0.1800 
     49 N          -2.0833  -14.3280  -40.1657 N.am      5 UNK        -0.5000 
     50 C          -1.8222  -13.6162  -41.2700 C.2       4 UNK         0.5000 
     51 O          -1.1157  -14.0208  -42.1978 O.2       4 UNK        -0.5000 
     52 CA         -2.4552  -12.2185  -41.3476 C.3       4 UNK         0.1400 
     53 CB         -1.8280  -11.2556  -40.3234 C.3       4 UNK        -0.1800 
     54 N          -2.2537  -11.6900  -42.6916 N.am      4 UNK        -0.5000 
     55 C          -3.0866  -10.8860  -43.3589 C.2       3 UNK         0.5000 
     56 O          -4.1347  -10.4477  -42.8823 O.2       3 UNK        -0.5000 
     57 CA         -2.6863  -10.4882  -44.7963 C.3       3 UNK         0.1400 
     58 CB         -2.2991   -9.0014  -44.8531 C.3       3 UNK        -0.1800 
     59 N          -1.5831  -11.2785  -45.3546 N.am      3 UNK        -0.5000 
     60 C          -1.6874  -12.5421  -45.7842 C.2       2 UNK         0.5000 
     61 O          -2.7310  -13.1971  -45.7318 O.2       2 UNK        -0.5000 
     62 CA         -0.3979  -13.1726  -46.3432 C.3       2 UNK         0.1400 
     63 CB          0.5469  -13.6019  -45.2092 C.3       2 UNK        -0.1800 
     64 N          -0.6939  -14.3418  -47.1653 N.am      2 UNK        -0.5000 
     65 C          -1.0816  -14.3072  -48.4467 C.2       1 UNK         0.5000 
     66 O          -1.1769  -13.2724  -49.1075 O.2       1 UNK        -0.5000 
     67 C           0.7841  -22.7756  -47.6525 C.2       11 UNK         0.5000 
     68 O           0.4860  -23.7712  -48.3132 O.2       11 UNK        -0.5000 
     69 N           0.1701  -21.5926  -47.7800 N.am      12 UNK        -0.5000 
     70 CA         -0.9359  -21.3312  -48.6985 C.3       12 UNK         0.1400 
     71 CB         -1.2412  -19.8283  -48.6902 C.3       12 UNK        -0.1800 
     72 C          -2.1888  -22.1673  -48.3715 C.2       12 UNK         0.5000 
     73 O          -2.8013  -22.7239  -49.2826 O.2       12 UNK        -0.5000 
     74 N          -2.5219  -22.2842  -47.0784 N.am      13 UNK        -0.5000 
     75 CA         -3.6071  -23.1258  -46.5728 C.3       13 UNK         0.1400 
     76 CB         -3.8345  -22.8402  -45.0814 C.3       13 UNK        -0.1800 
     77 C          -3.3607  -24.6267  -46.8129 C.2       13 UNK         0.5000 
     78 O          -4.2888  -25.3343  -47.2037 O.2       13 UNK        -0.5000 
     79 N          -2.1132  -25.0830  -46.6270 N.am      14 UNK        -0.5000 
     80 CA         -1.6733  -26.4515  -46.9184 C.3       14 UNK         0.1400 
     81 CB         -0.2568  -26.6687  -46.3656 C.3       14 UNK        -0.1800 
     82 C          -1.7364  -26.8038  -48.4185 C.2       14 UNK         0.5000 
     83 O          -1.9555  -27.9666  -48.7588 O.2       14 UNK        -0.5000 
     84 N          -1.5956  -25.7912  -49.2849 N.am      15 UNK        -0.5000 
     85 CA         -1.7871  -25.8802  -50.7340 C.3       15 UNK         0.1400 
     86 CB         -0.9791  -24.7639  -51.4132 C.3       15 UNK        -0.1800 
     87 C          -3.2735  -25.8486  -51.1621 C.2       15 UNK         0.5000 
     88 O          -3.5528  -25.8807  -52.3617 O.2       15 UNK        -0.5000 
     89 N          -4.1976  -25.7938  -50.1909 N.am      16 UNK        -0.5000 
     90 CA         -5.6587  -25.9009  -50.2740 C.3       16 UNK         0.1400 
     91 CB         -6.0911  -27.2301  -50.9218 C.3       16 UNK        -0.1800 
     92 C          -6.3701  -24.7041  -50.9282 C.2       16 UNK         0.5000 
     93 O          -7.3640  -24.2277  -50.3784 O.2       16 UNK        -0.5000 
     94 N          -5.8745  -24.2445  -52.0831 N.am      17 UNK        -0.5000 
     95 CA         -6.4511  -23.1339  -52.8446 C.3       17 UNK         0.1400 
     96 CB         -5.8591  -23.1257  -54.2628 C.3       17 UNK        -0.1800 
     97 C          -6.2567  -21.7688  -52.1585 C.2       17 UNK         0.5000 
     98 O          -7.1466  -20.9209  -52.2399 O.2       17 UNK        -0.5000 
     99 N          -5.1063  -21.6051  -51.4883 N.am      18 UNK        -0.5000 
    100 CA        -4.6390  -20.4073  -50.7854 C.3       18 UNK         0.1400 
    101 CB        -5.4245  -20.2220  -49.4693 C.3       18 UNK        -0.1800 
    102 C         -4.5951  -19.1388  -51.6660 C.2       18 UNK         0.5000 
    103 O         -4.5489  -19.2478  -52.8935 O.2       18 UNK        -0.5000 
    104 N         -4.5763  -17.9609  -51.0209 N.am      19 UNK        -0.5000 
    105 CA        -4.5564  -16.6231  -51.6258 C.3       19 UNK         0.1400 
    106 CB        -5.9619  -16.2842  -52.1713 C.3       19 UNK        -0.1800 
    107 C         -3.4211  -16.4686  -52.6644 C.2       19 UNK         0.5000 
    108 O         -2.2930  -16.8762  -52.3871 O.2       19 UNK        -0.5000 
    109 N         -3.7378  -15.9171  -53.8414 N.am      20 UNK        -0.5000 
    110 CA        -2.8808  -15.9683  -55.0273 C.3       20 UNK         0.1400 
    111 CB        -3.0999  -14.6885  -55.8495 C.3       20 UNK        -0.1800 
    112 C         -3.1709  -17.2161  -55.8886 C.2       20 UNK         0.5000 
    113 O         -2.3657  -17.5478  -56.7598 O.2       20 UNK        -0.5000 
    114 N         -4.3125  -17.8796  -55.6461 N.am      21 UNK        -0.5000 
    115 CA        -4.8241  -19.0177  -56.4121 C.3       21 UNK         0.1400 
    116 CB        -6.2464  -19.3541  -55.9370 C.3       21 UNK        -0.1800 
    117 C         -3.9216  -20.2624  -56.3597 C.2       21 UNK         0.5000 
    118 O         -3.8636  -20.9994  -57.3451 O.2       21 UNK        -0.5000 
    119 N         -3.2150  -20.4610  -55.2390 N.am      22 UNK        -0.5000 
    120 CA        -2.1846  -21.5001  -55.0959 C.3       22 UNK         0.1400 
    121 C         -0.8602  -21.2348  -55.8760 C.2       22 UNK         0.5000 
    122 N         -0.6500  -20.0681  -56.4763 N.am      22 UNK        -0.7600 
    123 O         -0.0108  -22.1179  -55.9547 O.2       22 UNK        -0.5000 
    124 C124       -1.9459  -21.9003  -53.6169 C.3       23 UNK        -0.0398 
    125 S125       -1.1331  -20.6458  -52.5638 S.3       23 UNK        -0.2404 
    126 C126        0.5668  -21.3151  -52.5302 C.3       23 UNK        -0.0205 
    127 H127       -4.5610  -15.1727  -46.8463 H         1 UNK         0.0600 
    128 H128       -3.8526  -14.7594  -48.3940 H         1 UNK         0.0600 
    129 H129       -5.0445  -16.0522  -48.2929 H         1 UNK         0.0600 
    130 H130       -1.2869  -17.3684  -47.8998 H         1 UNK         0.3000 
    131 H131       -2.2446  -15.4660  -49.8095 H         1 UNK         0.0600 
    132 H132        0.0108  -15.5522  -50.7130 H         1 UNK         0.0800 
    133 H133       -0.5907  -17.1585  -50.4173 H         1 UNK         0.0800 
    134 H134        2.1589  -16.6439  -51.1597 H         1 UNK         0.0800 
    135 H135        3.3810  -16.8207  -49.9333 H         1 UNK         0.0800 
    136 H136        0.7443  -18.6448  -51.8165 H         1 UNK         0.1150 
    137 H137        2.5496  -22.4717  -51.1044 H         1 UNK         0.1150 
    138 H138        4.0601  -18.9873  -49.1274 H         1 UNK         0.1150 
    139 H139        5.1710  -22.0230  -50.2451 H         1 UNK         0.0800 
    140 H140        5.1891  -21.0384  -48.8062 H         1 UNK         0.0800 
    141 H141        3.0978  -21.1938  -47.2253 H         1 UNK         0.0800 
    142 H142        3.9440  -22.3165  -46.2012 H         1 UNK         0.0800 
    143 H143        2.0496  -23.9407  -46.3838 H         1 UNK         0.0600 
    144 H144        1.9707  -21.5118  -44.9503 H         1 UNK         0.3000 
    145 H145       -1.0186  -22.1312  -43.0690 H         1 UNK         0.0600 
    146 H146        0.6239  -21.6242  -41.2601 H         1 UNK         0.0600 
    147 H147        0.8246  -23.2624  -41.8660 H         1 UNK         0.0600 
    148 H148        1.9565  -22.0076  -42.3474 H         1 UNK         0.0600 
    149 H149        0.7342  -19.8946  -43.0929 H         1 UNK         0.3000 
    150 H150       -0.8294  -18.0978  -45.7674 H         1 UNK         0.0600 
    151 H151       -2.1965  -17.5815  -43.7756 H         1 UNK         0.0600 
    152 H152       -0.9328  -16.3797  -43.9600 H         1 UNK         0.0600 
    153 H153       -0.7795  -17.6417  -42.7392 H         1 UNK         0.0600 
    154 H154        1.3965  -17.5486  -44.0357 H         1 UNK         0.3000 
    155 H155        3.9046  -18.9267  -46.2064 H         1 UNK         0.0600 
    156 H156        3.4478  -16.6557  -47.0673 H         1 UNK         0.0600 
    157 H157        4.7414  -16.5899  -45.8879 H         1 UNK         0.0600 
    158 H158        3.1188  -16.0603  -45.4443 H         1 UNK         0.0600 
    159 H159        4.0424  -17.6005  -43.6743 H         1 UNK         0.3000 
    160 H160        3.6866  -20.4463  -41.5917 H         1 UNK         0.0600 
    161 H161        6.0633  -20.6178  -42.3472 H         1 UNK         0.0600 
    162 H162        5.9408  -19.7876  -40.8046 H         1 UNK         0.0600 
    163 H163        6.2220  -18.8666  -42.2828 H         1 UNK         0.0600 
    164 H164        4.3977  -17.7826  -40.9664 H         1 UNK         0.3000 
    165 H165        2.5876  -16.6445  -39.6339 H         1 UNK         0.0600 
    166 H166        2.4622  -14.5418  -41.0325 H         1 UNK         0.0600 
    167 H167        3.7193  -15.5905  -41.6506 H         1 UNK         0.0600 
    168 H168        2.1663  -15.5032  -42.4758 H         1 UNK         0.0600 
    169 H169        0.1580  -17.2678  -40.9547 H         1 UNK         0.3000 
    170 H170       -1.8073  -16.3140  -40.6936 H         1 UNK         0.0600 
    171 H171       -1.7682  -17.1860  -38.3484 H         1 UNK         0.0600 
    172 H172       -1.9287  -15.5481  -37.7262 H         1 UNK         0.0600 
    173 H173       -3.2338  -16.2718  -38.6673 H         1 UNK         0.0600 
    174 H174       -2.6491  -13.9134  -39.4400 H         1 UNK         0.3000 
    175 H175       -3.5236  -12.3237  -41.1478 H         1 UNK         0.0600 
    176 H176       -1.9784  -11.6090  -39.3028 H         1 UNK         0.0600 
    177 H177       -0.7537  -11.1497  -40.4799 H         1 UNK         0.0600 
    178 H178       -2.2749  -10.2635  -40.3899 H         1 UNK         0.0600 
    179 H179       -1.4558  -12.0818  -43.1745 H         1 UNK         0.3000 
    180 H180       -3.5660  -10.6336  -45.4270 H         1 UNK         0.0600 
    181 H181       -1.4188   -8.7919  -44.2441 H         1 UNK         0.0600 
    182 H182       -3.1096   -8.3704  -44.4857 H         1 UNK         0.0600 
    183 H183       -2.0847   -8.6876  -45.8749 H         1 UNK         0.0600 
    184 H184       -0.6899  -10.8112  -45.4185 H         1 UNK         0.3000 
    185 H185        0.1130  -12.4270  -46.9563 H         1 UNK         0.0600 
    186 H186        1.4767  -14.0099  -45.6061 H         1 UNK         0.0600 
    187 H187        0.8107  -12.7582  -44.5705 H         1 UNK         0.0600 
    188 H188        0.0945  -14.3628  -44.5744 H         1 UNK         0.0600 
    189 H189       -0.6937  -15.2334  -46.6941 H         1 UNK         0.3000 
    190 H190        0.5097  -20.8019  -47.2387 H         1 UNK         0.3000 
    191 H191       -0.6023  -21.6077  -49.6998 H         1 UNK         0.0600 
    192 H192       -1.6469  -19.5105  -47.7302 H         1 UNK         0.0600 
    193 H193       -1.9601  -19.5586  -49.4614 H         1 UNK         0.0600 
    194 H194       -0.3378  -19.2504  -48.8822 H         1 UNK         0.0600 
    195 H195       -2.0072  -21.7422  -46.3883 H         1 UNK         0.3000 
    196 H196       -4.5163  -22.8511  -47.1115 H         1 UNK         0.0600 
    197 H197       -2.9484  -23.0663  -44.4882 H         1 UNK         0.0600 
    198 H198       -4.6558  -23.4410  -44.6890 H         1 UNK         0.0600 
    199 H199       -4.0889  -21.7931  -44.9160 H         1 UNK         0.0600 
    200 H200       -1.4127  -24.4541  -46.2436 H         1 UNK         0.3000 
    201 H201       -2.3468  -27.1336  -46.3956 H         1 UNK         0.0600 
    202 H202       -0.2240  -26.5008  -45.2890 H         1 UNK         0.0600 
    203 H203        0.4656  -25.9983  -46.8308 H         1 UNK         0.0600 
    204 H204        0.0806  -27.6902  -46.5454 H         1 UNK         0.0600 
    205 H205       -1.3676  -24.8746  -48.9175 H         1 UNK         0.3000 
    206 H206       -1.3809  -26.8345  -51.0752 H         1 UNK         0.0600 
    207 H207       -1.3841  -23.7773  -51.1910 H         1 UNK         0.0600 
    208 H208       -0.9834  -24.8886  -52.4961 H         1 UNK         0.0600 
    209 H209        0.0624  -24.7767  -51.0911 H         1 UNK         0.0600 
    210 H210       -3.8554  -25.6953  -49.2423 H         1 UNK         0.3000 
    211 H211       -6.0004  -25.9281  -49.2383 H         1 UNK         0.0600 
    212 H212       -5.8030  -27.2875  -51.9717 H         1 UNK         0.0600 
    213 H213       -7.1743  -27.3493  -50.8762 H         1 UNK         0.0600 
    214 H214       -5.6487  -28.0819  -50.4050 H         1 UNK         0.0600 
    215 H215       -5.0550  -24.7110  -52.4627 H         1 UNK         0.3000 
    216 H216       -7.5262  -23.3052  -52.9325 H         1 UNK         0.0600 
    217 H217       -6.2590  -22.2981  -54.8497 H         1 UNK         0.0600 
    218 H218       -6.1001  -24.0464  -54.7942 H         1 UNK         0.0600 
    219 H219       -4.7750  -23.0238  -54.2491 H         1 UNK         0.0600 
    220 H220       -4.4693  -22.3877  -51.4614 H         1 UNK         0.3000 
    221 H221       -3.6020  -20.6148  -50.5359 H         1 UNK         0.0600 
    222 H222       -6.4499  -19.9002  -49.6550 H         1 UNK         0.0600 
    223 H223       -5.4659  -21.1552  -48.9072 H         1 UNK         0.0600 
    224 H224       -4.9528  -19.4853  -48.8181 H         1 UNK         0.0600 
    225 H225       -4.5832  -17.9814  -50.0127 H         1 UNK         0.3000 
    226 H226       -4.3362  -15.9182  -50.8246 H         1 UNK         0.0600 
    227 H227       -6.7160  -16.3964  -51.3920 H         1 UNK         0.0600 
    228 H228       -6.0200  -15.2517  -52.5177 H         1 UNK         0.0600 
    229 H229       -6.2485  -16.9366  -52.9973 H         1 UNK         0.0600 
    230 H230       -4.6757  -15.5689  -53.9783 H         1 UNK         0.3000 
    231 H231       -1.8301  -16.0067  -54.7319 H         1 UNK         0.0600 
    232 H232       -2.4589  -14.6765  -56.7321 H         1 UNK         0.0600 
    233 H233       -2.8621  -13.7997  -55.2648 H         1 UNK         0.0600 
    234 H234       -4.1317  -14.5999  -56.1917 H         1 UNK         0.0600 
    235 H235       -4.8637  -17.6049  -54.8474 H         1 UNK         0.3000 
    236 H236       -4.8830  -18.7052  -57.4567 H         1 UNK         0.0600 
    237 H237       -6.6677  -20.1752  -56.5183 H         1 UNK         0.0600 
    238 H238       -6.2631  -19.6545  -54.8889 H         1 UNK         0.0600 
    239 H239       -6.9140  -18.5001  -56.0516 H         1 UNK         0.0600 
    240 H240       -3.3665  -19.8452  -54.4459 H         1 UNK         0.3000 
    241 H241       -2.5955  -22.3942  -55.5691 H         1 UNK         0.0600 
    242 H242        0.2095  -19.9239  -56.9815 H         1 UNK         0.3800 
    243 H243       -1.3417  -19.3285  -56.4508 H         1 UNK         0.3800 
    244 H244       -2.8978  -22.1455  -53.1491 H         1 UNK         0.0800 
    245 H245       -1.3714  -22.8256  -53.5866 H         1 UNK         0.0800 
    246 H246        1.0029  -21.2310  -53.5257 H         1 UNK         0.0800 
    247 H247        0.5136  -22.3803  -52.3029 H         1 UNK         0.0800 
@<TRIPOS>BOND
     1    1    2 1    
     2    1  127 1    
     3    1  128 1    
     4    1  129 1    
     5    2    3 2    
     6    2    4 am   BACKBONE|DICT|INTERRES
     7    4    5 1    
     8    4  130 1    
     9    5    6 1    
    10    5   65 1    
    11    5  131 1    
    12    6    7 1    
    13    6  132 1    
    14    6  133 1    
    15    7    8 1    
    16    8    9 1    
    17    8  134 1    
    18    8  135 1    
    19    9   10 ar   
    20    9   14 ar   
    21   10   11 ar   
    22   10  136 1    
    23   11   12 ar   
    24   11  126 1    
    25   12   13 ar   
    26   12  137 1    
    27   13   14 ar   
    28   13   15 1    
    29   14  138 1    
    30   15   16 1    
    31   15  139 1    
    32   15  140 1    
    33   16   17 1    
    34   17   18 1    
    35   17  141 1    
    36   17  142 1    
    37   18   19 1    
    38   18   67 1    
    39   18  143 1    
    40   19   20 am   BACKBONE|DICT|INTERRES
    41   19  144 1    
    42   20   21 2    
    43   20   22 1    
    44   22   23 1    
    45   22   24 1    
    46   22  145 1    
    47   23  146 1    
    48   23  147 1    
    49   23  148 1    
    50   24   25 am   BACKBONE|DICT|INTERRES
    51   24  149 1    
    52   25   26 2    
    53   25   27 1    
    54   27   28 1    
    55   27   29 1    
    56   27  150 1    
    57   28  151 1    
    58   28  152 1    
    59   28  153 1    
    60   29   30 am   BACKBONE|DICT|INTERRES
    61   29  154 1    
    62   30   31 2    
    63   30   32 1    
    64   32   33 1    
    65   32   34 1    
    66   32  155 1    
    67   33  156 1    
    68   33  157 1    
    69   33  158 1    
    70   34   35 am   BACKBONE|DICT|INTERRES
    71   34  159 1    
    72   35   36 2    
    73   35   37 1    
    74   37   38 1    
    75   37   39 1    
    76   37  160 1    
    77   38  161 1    
    78   38  162 1    
    79   38  163 1    
    80   39   40 am   BACKBONE|DICT|INTERRES
    81   39  164 1    
    82   40   41 2    
    83   40   42 1    
    84   42   43 1    
    85   42   44 1    
    86   42  165 1    
    87   43  166 1    
    88   43  167 1    
    89   43  168 1    
    90   44   45 am   BACKBONE|DICT|INTERRES
    91   44  169 1    
    92   45   46 2    
    93   45   47 1    
    94   47   48 1    
    95   47   49 1    
    96   47  170 1    
    97   48  171 1    
    98   48  172 1    
    99   48  173 1    
   100   49   50 am   BACKBONE|DICT|INTERRES
   101   49  174 1    
   102   50   51 2    
   103   50   52 1    
   104   52   53 1    
   105   52   54 1    
   106   52  175 1    
   107   53  176 1    
   108   53  177 1    
   109   53  178 1    
   110   54   55 am   BACKBONE|DICT|INTERRES
   111   54  179 1    
   112   55   56 2    
   113   55   57 1    
   114   57   58 1    
   115   57   59 1    
   116   57  180 1    
   117   58  181 1    
   118   58  182 1    
   119   58  183 1    
   120   59   60 am   BACKBONE|DICT|INTERRES
   121   59  184 1    
   122   60   61 2    
   123   60   62 1    
   124   62   63 1    
   125   62   64 1    
   126   62  185 1    
   127   63  186 1    
   128   63  187 1    
   129   63  188 1    
   130   64   65 am   BACKBONE|DICT|INTERRES
   131   64  189 1    
   132   65   66 2    
   133   67   68 2    
   134   67   69 am   BACKBONE|DICT|INTERRES
   135   69   70 1    
   136   69  190 1    
   137   70   71 1    
   138   70   72 1    
   139   70  191 1    
   140   71  192 1    
   141   71  193 1    
   142   71  194 1    
   143   72   73 2    
   144   72   74 am   BACKBONE|DICT|INTERRES
   145   74   75 1    
   146   74  195 1    
   147   75   76 1    
   148   75   77 1    
   149   75  196 1    
   150   76  197 1    
   151   76  198 1    
   152   76  199 1    
   153   77   78 2    
   154   77   79 am   BACKBONE|DICT|INTERRES
   155   79   80 1    
   156   79  200 1    
   157   80   81 1    
   158   80   82 1    
   159   80  201 1    
   160   81  202 1    
   161   81  203 1    
   162   81  204 1    
   163   82   83 2    
   164   82   84 am   BACKBONE|DICT|INTERRES
   165   84   85 1    
   166   84  205 1    
   167   85   86 1    
   168   85   87 1    
   169   85  206 1    
   170   86  207 1    
   171   86  208 1    
   172   86  209 1    
   173   87   88 2    
   174   87   89 am   BACKBONE|DICT|INTERRES
   175   89   90 1    
   176   89  210 1    
   177   90   91 1    
   178   90   92 1    
   179   90  211 1    
   180   91  212 1    
   181   91  213 1    
   182   91  214 1    
   183   92   93 2    
   184   92   94 am   BACKBONE|DICT|INTERRES
   185   94   95 1    
   186   94  215 1    
   187   95   96 1    
   188   95   97 1    
   189   95  216 1    
   190   96  217 1    
   191   96  218 1    
   192   96  219 1    
   193   97   98 2    
   194   97   99 am   BACKBONE|DICT|INTERRES
   195   99  100 1    
   196   99  220 1    
   197  100  101 1    
   198  100  102 1    
   199  100  221 1    
   200  101  222 1    
   201  101  223 1    
   202  101  224 1    
   203  102  103 2    
   204  102  104 am   BACKBONE|DICT|INTERRES
   205  104  105 1    
   206  104  225 1    
   207  105  106 1    
   208  105  107 1    
   209  105  226 1    
   210  106  227 1    
   211  106  228 1    
   212  106  229 1    
   213  107  108 2    
   214  107  109 am   BACKBONE|DICT|INTERRES
   215  109  110 1    
   216  109  230 1    
   217  110  111 1    
   218  110  112 1    
   219  110  231 1    
   220  111  232 1    
   221  111  233 1    
   222  111  234 1    
   223  112  113 2    
   224  112  114 am   BACKBONE|DICT|INTERRES
   225  114  115 1    
   226  114  235 1    
   227  115  116 1    
   228  115  117 1    
   229  115  236 1    
   230  116  237 1    
   231  116  238 1    
   232  116  239 1    
   233  117  118 2    
   234  117  119 am   BACKBONE|DICT|INTERRES
   235  119  120 1    
   236  119  240 1    
   237  120  121 1    
   238  120  124 1    
   239  120  241 1    
   240  121  122 am   BACKBONE|DICT|INTERRES
   241  121  123 2    
   242  122  242 1    
   243  122  243 1    
   244  124  125 1    
   245  124  244 1    
   246  124  245 1    
   247  125  126 1    
   248  126  246 1    
   249  126  247 1    
@<TRIPOS>SUBSTRUCTURE
     1 UNK         1 GROUP             0       ****    0 ROOT    
