@<TRIPOS>MOLECULE
3R540
247   249    1
SMALL
USER_CHARGES


@<TRIPOS>ATOM
      1 CA          3.8605  -18.1275  -43.9258 C.3       0 UNK        -0.1800 
      2 C           3.3222  -16.7662  -44.3349 C.2       0 UNK         0.5000 
      3 O           2.8176  -16.0302  -43.4890 O.2       0 UNK        -0.5000 
      4 N           3.4561  -16.4032  -45.6173 N.am      1 UNK        -0.5000 
      5 CA          2.9950  -15.1273  -46.1873 C.3       1 UNK         0.1400 
      6 C6          3.0386  -15.1263  -47.7365 C.3       23 UNK        -0.0398 
      7 S7          4.6700  -15.5490  -48.4384 S.3       23 UNK        -0.2404 
      8 C8          4.2000  -16.1965  -50.0778 C.3       23 UNK        -0.0205 
      9 C9          3.5799  -17.5891  -50.0286 C.ar      23 UNK        -0.0193 
     10 C10         2.3687  -17.8470  -50.6799 C.ar      23 UNK        -0.1150 
     11 C11         1.8237  -19.1358  -50.6906 C.ar      23 UNK        -0.0193 
     12 C12         2.4911  -20.1685  -50.0250 C.ar      23 UNK        -0.1150 
     13 C13         3.6991  -19.9235  -49.3645 C.ar      23 UNK        -0.0193 
     14 C14         4.2424  -18.6363  -49.3817 C.ar      23 UNK        -0.1150 
     15 C15         4.4334  -21.0511  -48.6519 C.3       23 UNK        -0.0205 
     16 S16         4.5587  -20.7683  -46.8558 S.3       23 UNK        -0.2404 
     17 C17         2.8095  -20.8605  -46.3513 C.3       23 UNK        -0.0398 
     18 CA          2.4620  -22.1374  -45.5580 C.3       11 UNK         0.1400 
     19 N           1.1859  -21.9841  -44.8571 N.am      11 UNK        -0.5000 
     20 C           0.7883  -22.7397  -43.8268 C.2       10 UNK         0.5000 
     21 O           1.4882  -23.6195  -43.3239 O.2       10 UNK        -0.5000 
     22 CA         -0.6190  -22.4705  -43.2651 C.3       10 UNK         0.1400 
     23 CB         -0.6875  -22.6549  -41.7363 C.3       10 UNK        -0.1800 
     24 N          -1.1151  -21.1390  -43.6229 N.am      10 UNK        -0.5000 
     25 C          -2.4047  -20.8284  -43.7831 C.2       9 UNK         0.5000 
     26 O          -3.3135  -21.6571  -43.7157 O.2       9 UNK        -0.5000 
     27 CA         -2.7584  -19.3516  -44.0412 C.3       9 UNK         0.1400 
     28 CB         -2.6779  -18.5265  -42.7425 C.3       9 UNK        -0.1800 
     29 N          -2.0250  -18.6923  -45.1273 N.am      9 UNK        -0.5000 
     30 C          -0.7280  -18.3589  -45.2060 C.2       8 UNK         0.5000 
     31 O           0.1236  -18.7293  -44.3973 O.2       8 UNK        -0.5000 
     32 CA         -0.2976  -17.4612  -46.3876 C.3       8 UNK         0.1400 
     33 CB          0.7076  -18.1763  -47.3000 C.3       8 UNK        -0.1800 
     34 N          -1.4125  -16.9690  -47.2023 N.am      8 UNK        -0.5000 
     35 C          -2.2244  -15.9672  -46.8444 C.2       7 UNK         0.5000 
     36 O          -2.1243  -15.3492  -45.7825 O.2       7 UNK        -0.5000 
     37 CA         -3.2871  -15.5367  -47.8702 C.3       7 UNK         0.1400 
     38 CB         -4.6558  -15.3112  -47.2052 C.3       7 UNK        -0.1800 
     39 N          -2.8433  -14.2837  -48.4642 N.am      7 UNK        -0.5000 
     40 C          -1.9140  -14.1840  -49.4236 C.2       6 UNK         0.5000 
     41 O          -1.5471  -15.1239  -50.1283 O.2       6 UNK        -0.5000 
     42 CA         -1.2331  -12.8063  -49.5601 C.3       6 UNK         0.1400 
     43 CB         -2.0014  -11.9131  -50.5457 C.3       6 UNK        -0.1800 
     44 N          -1.1029  -12.1115  -48.2715 N.am      6 UNK        -0.5000 
     45 C          -0.4123  -12.5812  -47.2208 C.2       5 UNK         0.5000 
     46 O           0.2658  -13.6079  -47.2683 O.2       5 UNK        -0.5000 
     47 CA         -0.5157  -11.8065  -45.8957 C.3       5 UNK         0.1400 
     48 CB         -1.8095  -10.9762  -45.7574 C.3       5 UNK        -0.1800 
     49 N          -0.4204  -12.7528  -44.7858 N.am      5 UNK        -0.5000 
     50 C           0.1300  -12.4858  -43.5962 C.2       4 UNK         0.5000 
     51 O           0.5740  -11.3755  -43.2964 O.2       4 UNK        -0.5000 
     52 CA          0.1853  -13.6250  -42.5549 C.3       4 UNK         0.1400 
     53 CB         -0.4326  -14.9551  -43.0277 C.3       4 UNK        -0.1800 
     54 N           1.5683  -13.8741  -42.1631 N.am      4 UNK        -0.5000 
     55 C           2.2285  -13.2539  -41.1770 C.2       3 UNK         0.5000 
     56 O           1.7217  -12.4253  -40.4194 O.2       3 UNK        -0.5000 
     57 CA          3.7107  -13.6267  -41.0089 C.3       3 UNK         0.1400 
     58 CB          3.8544  -14.9533  -40.2456 C.3       3 UNK        -0.1800 
     59 N           4.3777  -13.7421  -42.3059 N.am      3 UNK        -0.5000 
     60 C           5.0432  -12.7482  -42.9112 C.2       2 UNK         0.5000 
     61 O           5.2040  -11.6321  -42.4157 O.2       2 UNK        -0.5000 
     62 CA          5.6429  -13.0460  -44.3009 C.3       2 UNK         0.1400 
     63 CB          7.1074  -13.4912  -44.1699 C.3       2 UNK        -0.1800 
     64 N           4.9006  -14.0704  -45.0350 N.am      2 UNK        -0.5000 
     65 C           3.6960  -13.8836  -45.5924 C.2       1 UNK         0.5000 
     66 O           3.1265  -12.7927  -45.6217 O.2       1 UNK        -0.5000 
     67 C           2.4369  -23.3840  -46.4641 C.2       11 UNK         0.5000 
     68 O           3.3462  -24.2123  -46.3993 O.2       11 UNK        -0.5000 
     69 N           1.3748  -23.4952  -47.2705 N.am      12 UNK        -0.5000 
     70 CA          1.0927  -24.6454  -48.1255 C.3       12 UNK         0.1400 
     71 CB          0.6163  -24.1402  -49.4978 C.3       12 UNK        -0.1800 
     72 C           0.0198  -25.5498  -47.4978 C.2       12 UNK         0.5000 
     73 O           0.0180  -26.7508  -47.7673 O.2       12 UNK        -0.5000 
     74 N          -0.8848  -24.9503  -46.7029 N.am      13 UNK        -0.5000 
     75 CA         -2.0943  -25.5547  -46.1229 C.3       13 UNK         0.1400 
     76 CB         -1.7299  -26.6431  -45.0926 C.3       13 UNK        -0.1800 
     77 C          -3.0929  -26.0436  -47.1999 C.2       13 UNK         0.5000 
     78 O          -3.8650  -26.9723  -46.9573 O.2       13 UNK        -0.5000 
     79 N          -3.0433  -25.3977  -48.3703 N.am      14 UNK        -0.5000 
     80 CA         -3.7499  -25.6821  -49.6125 C.3       14 UNK         0.1400 
     81 CB         -3.4243  -27.1037  -50.1301 C.3       14 UNK        -0.1800 
     82 C          -3.3345  -24.5748  -50.6021 C.2       14 UNK         0.5000 
     83 O          -3.0488  -23.4569  -50.1648 O.2       14 UNK        -0.5000 
     84 N          -3.2885  -24.8960  -51.9020 N.am      15 UNK        -0.5000 
     85 CA         -2.8545  -24.0331  -53.0050 C.3       15 UNK         0.1400 
     86 CB         -1.3474  -23.7075  -52.8761 C.3       15 UNK        -0.1800 
     87 C          -3.7570  -22.7916  -53.1825 C.2       15 UNK         0.5000 
     88 O          -4.9759  -22.9027  -53.0221 O.2       15 UNK        -0.5000 
     89 N          -3.1547  -21.6519  -53.5560 N.am      16 UNK        -0.5000 
     90 CA         -3.7889  -20.3534  -53.8167 C.3       16 UNK         0.1400 
     91 CB         -4.3437  -19.7552  -52.5090 C.3       16 UNK        -0.1800 
     92 C          -4.8529  -20.4288  -54.9309 C.2       16 UNK         0.5000 
     93 O          -5.9738  -19.9555  -54.7481 O.2       16 UNK        -0.5000 
     94 N          -4.5006  -21.0850  -56.0474 N.am      17 UNK        -0.5000 
     95 CA         -5.3712  -21.3737  -57.1985 C.3       17 UNK         0.1400 
     96 CB         -5.7257  -20.0765  -57.9558 C.3       17 UNK        -0.1800 
     97 C          -6.6157  -22.2079  -56.8139 C.2       17 UNK         0.5000 
     98 O          -7.7017  -21.9960  -57.3553 O.2       17 UNK        -0.5000 
     99 N          -6.4162  -23.1298  -55.8605 N.am      18 UNK        -0.5000 
    100 CA        -7.3960  -24.0216  -55.2328 C.3       18 UNK         0.1400 
    101 CB        -8.1078  -24.9112  -56.2740 C.3       18 UNK        -0.1800 
    102 C         -8.3819  -23.3172  -54.2756 C.2       18 UNK         0.5000 
    103 O         -9.3479  -23.9492  -53.8446 O.2       18 UNK        -0.5000 
    104 N         -8.1195  -22.0517  -53.9113 N.am      19 UNK        -0.5000 
    105 CA        -8.8774  -21.3263  -52.8860 C.3       19 UNK         0.1400 
    106 CB        -8.6731  -19.8139  -53.0629 C.3       19 UNK        -0.1800 
    107 C         -8.4936  -21.7497  -51.4538 C.2       19 UNK         0.5000 
    108 O         -9.2573  -21.4830  -50.5260 O.2       19 UNK        -0.5000 
    109 N         -7.3178  -22.3797  -51.2986 N.am      20 UNK        -0.5000 
    110 CA        -6.7258  -22.8918  -50.0578 C.3       20 UNK         0.1400 
    111 CB        -7.6178  -23.9670  -49.4053 C.3       20 UNK        -0.1800 
    112 C         -6.2793  -21.8019  -49.0616 C.2       20 UNK         0.5000 
    113 O         -5.9638  -22.1174  -47.9134 O.2       20 UNK        -0.5000 
    114 N         -6.2135  -20.5437  -49.5193 N.am      21 UNK        -0.5000 
    115 CA        -5.8353  -19.3674  -48.7314 C.3       21 UNK         0.1400 
    116 CB        -6.0789  -18.1056  -49.5720 C.3       21 UNK        -0.1800 
    117 C         -4.3860  -19.3990  -48.2083 C.2       21 UNK         0.5000 
    118 O         -4.0892  -18.7319  -47.2171 O.2       21 UNK        -0.5000 
    119 N         -3.5166  -20.1801  -48.8611 N.am      22 UNK        -0.5000 
    120 CA        -2.1538  -20.4734  -48.3972 C.3       22 UNK         0.1400 
    121 C         -2.0745  -21.6452  -47.3791 C.2       22 UNK         0.5000 
    122 N         -3.1781  -22.2545  -46.9647 N.am      22 UNK        -0.7600 
    123 O         -0.9865  -21.9874  -46.9216 O.2       22 UNK        -0.5000 
    124 C124       -1.1534  -20.6306  -49.5674 C.3       23 UNK        -0.0398 
    125 S125       -0.9542  -19.0707  -50.4904 S.3       23 UNK        -0.2404 
    126 C126        0.5424  -19.4163  -51.4652 C.3       23 UNK        -0.0205 
    127 H127        4.5147  -18.0263  -43.0601 H         1 UNK         0.0600 
    128 H128        4.4322  -18.5931  -44.7279 H         1 UNK         0.0600 
    129 H129        3.0368  -18.7880  -43.6547 H         1 UNK         0.0600 
    130 H130        3.9109  -17.0261  -46.2702 H         1 UNK         0.3000 
    131 H131        1.9485  -15.0281  -45.8963 H         1 UNK         0.0600 
    132 H132        2.7320  -14.1571  -48.1335 H         1 UNK         0.0800 
    133 H133        2.3021  -15.8357  -48.1118 H         1 UNK         0.0800 
    134 H134        3.5270  -15.4857  -50.5601 H         1 UNK         0.0800 
    135 H135        5.0938  -16.2422  -50.7011 H         1 UNK         0.0800 
    136 H136        1.8557  -17.0490  -51.1983 H         1 UNK         0.1150 
    137 H137        2.0784  -21.1669  -50.0352 H         1 UNK         0.1150 
    138 H138        5.1858  -18.4500  -48.8877 H         1 UNK         0.1150 
    139 H139        5.4392  -21.1340  -49.0656 H         1 UNK         0.0800 
    140 H140        3.9481  -22.0115  -48.8332 H         1 UNK         0.0800 
    141 H141        2.1550  -20.7475  -47.2153 H         1 UNK         0.0800 
    142 H142        2.6222  -19.9918  -45.7224 H         1 UNK         0.0800 
    143 H143        3.2384  -22.2872  -44.8040 H         1 UNK         0.0600 
    144 H144        0.5174  -21.3407  -45.2581 H         1 UNK         0.3000 
    145 H145       -1.2610  -23.2227  -43.7279 H         1 UNK         0.0600 
    146 H146       -1.7039  -22.5212  -41.3658 H         1 UNK         0.0600 
    147 H147       -0.3703  -23.6561  -41.4423 H         1 UNK         0.0600 
    148 H148       -0.0463  -21.9394  -41.2205 H         1 UNK         0.0600 
    149 H149       -0.4326  -20.3881  -43.7020 H         1 UNK         0.3000 
    150 H150       -3.8013  -19.3413  -44.3623 H         1 UNK         0.0600 
    151 H151       -3.3050  -18.9631  -41.9642 H         1 UNK         0.0600 
    152 H152       -3.0228  -17.5050  -42.9041 H         1 UNK         0.0600 
    153 H153       -1.6612  -18.4773  -42.3516 H         1 UNK         0.0600 
    154 H154       -2.6222  -18.4031  -45.8964 H         1 UNK         0.3000 
    155 H155        0.2072  -16.5932  -45.9622 H         1 UNK         0.0600 
    156 H156        0.4055  -19.1961  -47.5286 H         1 UNK         0.0600 
    157 H157        0.8351  -17.6491  -48.2444 H         1 UNK         0.0600 
    158 H158        1.6874  -18.2220  -46.8290 H         1 UNK         0.0600 
    159 H159       -1.5274  -17.3853  -48.1157 H         1 UNK         0.3000 
    160 H160       -3.3923  -16.3032  -48.6412 H         1 UNK         0.0600 
    161 H161       -4.6134  -14.5387  -46.4363 H         1 UNK         0.0600 
    162 H162       -5.0142  -16.2245  -46.7296 H         1 UNK         0.0600 
    163 H163       -5.4038  -15.0086  -47.9380 H         1 UNK         0.0600 
    164 H164       -3.0463  -13.4529  -47.9290 H         1 UNK         0.3000 
    165 H165       -0.2285  -12.9716  -49.9550 H         1 UNK         0.0600 
    166 H166       -1.4856  -10.9659  -50.7045 H         1 UNK         0.0600 
    167 H167       -2.0954  -12.3978  -51.5184 H         1 UNK         0.0600 
    168 H168       -3.0086  -11.6927  -50.1899 H         1 UNK         0.0600 
    169 H169       -1.6276  -11.2556  -48.1647 H         1 UNK         0.3000 
    170 H170        0.3422  -11.1315  -45.8708 H         1 UNK         0.0600 
    171 H171       -2.6991  -11.6006  -45.8504 H         1 UNK         0.0600 
    172 H172       -1.8553  -10.4803  -44.7876 H         1 UNK         0.0600 
    173 H173       -1.8663  -10.1917  -46.5125 H         1 UNK         0.0600 
    174 H174       -0.7401  -13.6925  -44.9954 H         1 UNK         0.3000 
    175 H175       -0.3830  -13.2897  -41.6850 H         1 UNK         0.0600 
    176 H176       -0.3581  -15.7186  -42.2531 H         1 UNK         0.0600 
    177 H177        0.0664  -15.3436  -43.9156 H         1 UNK         0.0600 
    178 H178       -1.4925  -14.8379  -43.2552 H         1 UNK         0.0600 
    179 H179        2.0635  -14.5744  -42.7106 H         1 UNK         0.3000 
    180 H180        4.1889  -12.8464  -40.4129 H         1 UNK         0.0600 
    181 H181        3.3970  -15.7841  -40.7842 H         1 UNK         0.0600 
    182 H182        3.3759  -14.8933  -39.2673 H         1 UNK         0.0600 
    183 H183        4.9033  -15.1995  -40.0799 H         1 UNK         0.0600 
    184 H184        4.2350  -14.6104  -42.8059 H         1 UNK         0.3000 
    185 H185        5.6186  -12.1196  -44.8788 H         1 UNK         0.0600 
    186 H186        7.1970  -14.4226  -43.6093 H         1 UNK         0.0600 
    187 H187        7.5628  -13.6424  -45.1488 H         1 UNK         0.0600 
    188 H188        7.6996  -12.7370  -43.6500 H         1 UNK         0.0600 
    189 H189        5.3065  -14.9940  -45.0710 H         1 UNK         0.3000 
    190 H190        0.6429  -22.7926  -47.2092 H         1 UNK         0.3000 
    191 H191        1.9935  -25.2441  -48.2754 H         1 UNK         0.0600 
    192 H192        1.3803  -23.5316  -49.9808 H         1 UNK         0.0600 
    193 H193        0.3950  -24.9733  -50.1664 H         1 UNK         0.0600 
    194 H194       -0.2897  -23.5396  -49.4160 H         1 UNK         0.0600 
    195 H195       -0.8013  -23.9472  -46.5828 H         1 UNK         0.3000 
    196 H196       -2.6034  -24.7582  -45.5798 H         1 UNK         0.0600 
    197 H197       -2.6142  -26.9782  -44.5495 H         1 UNK         0.0600 
    198 H198       -1.0213  -26.2654  -44.3553 H         1 UNK         0.0600 
    199 H199       -1.2875  -27.5198  -45.5660 H         1 UNK         0.0600 
    200 H200       -2.4433  -24.5856  -48.4451 H         1 UNK         0.3000 
    201 H201       -4.8221  -25.5932  -49.4323 H         1 UNK         0.0600 
    202 H202       -3.6931  -27.8705  -49.4046 H         1 UNK         0.0600 
    203 H203       -2.3613  -27.2160  -50.3485 H         1 UNK         0.0600 
    204 H204       -3.9810  -27.3370  -51.0380 H         1 UNK         0.0600 
    205 H205       -3.5708  -25.8280  -52.1690 H         1 UNK         0.3000 
    206 H206       -2.9836  -24.6229  -53.9134 H         1 UNK         0.0600 
    207 H207       -0.7657  -24.6154  -52.7160 H         1 UNK         0.0600 
    208 H208       -0.9595  -23.2424  -53.7829 H         1 UNK         0.0600 
    209 H209       -1.1416  -23.0363  -52.0420 H         1 UNK         0.0600 
    210 H210       -2.1516  -21.6727  -53.6728 H         1 UNK         0.3000 
    211 H211       -3.0056  -19.6865  -54.1799 H         1 UNK         0.0600 
    212 H212       -5.1710  -20.3452  -52.1175 H         1 UNK         0.0600 
    213 H213       -4.7105  -18.7413  -52.6713 H         1 UNK         0.0600 
    214 H214       -3.5737  -19.7028  -51.7414 H         1 UNK         0.0600 
    215 H215       -3.5621  -21.4554  -56.1029 H         1 UNK         0.3000 
    216 H216       -4.7879  -21.9989  -57.8759 H         1 UNK         0.0600 
    217 H217       -6.2535  -20.2977  -58.8842 H         1 UNK         0.0600 
    218 H218       -4.8287  -19.5167  -58.2200 H         1 UNK         0.0600 
    219 H219       -6.3672  -19.4227  -57.3642 H         1 UNK         0.0600 
    220 H220       -5.4927  -23.1727  -55.4539 H         1 UNK         0.3000 
    221 H221       -6.8083  -24.6851  -54.5967 H         1 UNK         0.0600 
    222 H222       -8.8028  -24.3411  -56.8906 H         1 UNK         0.0600 
    223 H223       -7.3906  -25.3975  -56.9353 H         1 UNK         0.0600 
    224 H224       -8.6819  -25.6997  -55.7862 H         1 UNK         0.0600 
    225 H225       -7.3183  -21.5734  -54.3074 H         1 UNK         0.3000 
    226 H226       -9.9400  -21.5383  -53.0222 H         1 UNK         0.0600 
    227 H227       -8.8788  -19.5016  -54.0869 H         1 UNK         0.0600 
    228 H228       -9.3439  -19.2536  -52.4104 H         1 UNK         0.0600 
    229 H229       -7.6556  -19.5109  -52.8154 H         1 UNK         0.0600 
    230 H230       -6.7427  -22.5233  -52.1241 H         1 UNK         0.3000 
    231 H231       -5.8109  -23.3861  -50.3720 H         1 UNK         0.0600 
    232 H232       -8.5338  -23.5415  -48.9951 H         1 UNK         0.0600 
    233 H233       -7.0963  -24.4636  -48.5861 H         1 UNK         0.0600 
    234 H234       -7.8966  -24.7372  -50.1244 H         1 UNK         0.0600 
    235 H235       -6.4946  -20.3775  -50.4733 H         1 UNK         0.3000 
    236 H236       -6.4928  -19.3303  -47.8606 H         1 UNK         0.0600 
    237 H237       -7.1038  -18.0659  -49.9415 H         1 UNK         0.0600 
    238 H238       -5.9168  -17.2066  -48.9786 H         1 UNK         0.0600 
    239 H239       -5.4085  -18.0543  -50.4295 H         1 UNK         0.0600 
    240 H240       -3.8418  -20.7199  -49.6494 H         1 UNK         0.3000 
    241 H241       -1.8155  -19.6164  -47.8213 H         1 UNK         0.0600 
    242 H242       -4.0895  -22.0109  -47.3388 H         1 UNK         0.3800 
    243 H243       -3.1283  -22.9200  -46.2153 H         1 UNK         0.3800 
    244 H244       -0.1732  -20.9345  -49.1998 H         1 UNK         0.0800 
    245 H245       -1.4816  -21.4074  -50.2569 H         1 UNK         0.0800 
    246 H246        0.5240  -20.4489  -51.8174 H         1 UNK         0.0800 
    247 H247        0.5205  -18.7945  -52.3614 H         1 UNK         0.0800 
@<TRIPOS>BOND
     1    1    2 1    
     2    1  127 1    
     3    1  128 1    
     4    1  129 1    
     5    2    3 2    
     6    2    4 am   BACKBONE|DICT|INTERRES
     7    4    5 1    
     8    4  130 1    
     9    5    6 1    
    10    5   65 1    
    11    5  131 1    
    12    6    7 1    
    13    6  132 1    
    14    6  133 1    
    15    7    8 1    
    16    8    9 1    
    17    8  134 1    
    18    8  135 1    
    19    9   10 ar   
    20    9   14 ar   
    21   10   11 ar   
    22   10  136 1    
    23   11   12 ar   
    24   11  126 1    
    25   12   13 ar   
    26   12  137 1    
    27   13   14 ar   
    28   13   15 1    
    29   14  138 1    
    30   15   16 1    
    31   15  139 1    
    32   15  140 1    
    33   16   17 1    
    34   17   18 1    
    35   17  141 1    
    36   17  142 1    
    37   18   19 1    
    38   18   67 1    
    39   18  143 1    
    40   19   20 am   BACKBONE|DICT|INTERRES
    41   19  144 1    
    42   20   21 2    
    43   20   22 1    
    44   22   23 1    
    45   22   24 1    
    46   22  145 1    
    47   23  146 1    
    48   23  147 1    
    49   23  148 1    
    50   24   25 am   BACKBONE|DICT|INTERRES
    51   24  149 1    
    52   25   26 2    
    53   25   27 1    
    54   27   28 1    
    55   27   29 1    
    56   27  150 1    
    57   28  151 1    
    58   28  152 1    
    59   28  153 1    
    60   29   30 am   BACKBONE|DICT|INTERRES
    61   29  154 1    
    62   30   31 2    
    63   30   32 1    
    64   32   33 1    
    65   32   34 1    
    66   32  155 1    
    67   33  156 1    
    68   33  157 1    
    69   33  158 1    
    70   34   35 am   BACKBONE|DICT|INTERRES
    71   34  159 1    
    72   35   36 2    
    73   35   37 1    
    74   37   38 1    
    75   37   39 1    
    76   37  160 1    
    77   38  161 1    
    78   38  162 1    
    79   38  163 1    
    80   39   40 am   BACKBONE|DICT|INTERRES
    81   39  164 1    
    82   40   41 2    
    83   40   42 1    
    84   42   43 1    
    85   42   44 1    
    86   42  165 1    
    87   43  166 1    
    88   43  167 1    
    89   43  168 1    
    90   44   45 am   BACKBONE|DICT|INTERRES
    91   44  169 1    
    92   45   46 2    
    93   45   47 1    
    94   47   48 1    
    95   47   49 1    
    96   47  170 1    
    97   48  171 1    
    98   48  172 1    
    99   48  173 1    
   100   49   50 am   BACKBONE|DICT|INTERRES
   101   49  174 1    
   102   50   51 2    
   103   50   52 1    
   104   52   53 1    
   105   52   54 1    
   106   52  175 1    
   107   53  176 1    
   108   53  177 1    
   109   53  178 1    
   110   54   55 am   BACKBONE|DICT|INTERRES
   111   54  179 1    
   112   55   56 2    
   113   55   57 1    
   114   57   58 1    
   115   57   59 1    
   116   57  180 1    
   117   58  181 1    
   118   58  182 1    
   119   58  183 1    
   120   59   60 am   BACKBONE|DICT|INTERRES
   121   59  184 1    
   122   60   61 2    
   123   60   62 1    
   124   62   63 1    
   125   62   64 1    
   126   62  185 1    
   127   63  186 1    
   128   63  187 1    
   129   63  188 1    
   130   64   65 am   BACKBONE|DICT|INTERRES
   131   64  189 1    
   132   65   66 2    
   133   67   68 2    
   134   67   69 am   BACKBONE|DICT|INTERRES
   135   69   70 1    
   136   69  190 1    
   137   70   71 1    
   138   70   72 1    
   139   70  191 1    
   140   71  192 1    
   141   71  193 1    
   142   71  194 1    
   143   72   73 2    
   144   72   74 am   BACKBONE|DICT|INTERRES
   145   74   75 1    
   146   74  195 1    
   147   75   76 1    
   148   75   77 1    
   149   75  196 1    
   150   76  197 1    
   151   76  198 1    
   152   76  199 1    
   153   77   78 2    
   154   77   79 am   BACKBONE|DICT|INTERRES
   155   79   80 1    
   156   79  200 1    
   157   80   81 1    
   158   80   82 1    
   159   80  201 1    
   160   81  202 1    
   161   81  203 1    
   162   81  204 1    
   163   82   83 2    
   164   82   84 am   BACKBONE|DICT|INTERRES
   165   84   85 1    
   166   84  205 1    
   167   85   86 1    
   168   85   87 1    
   169   85  206 1    
   170   86  207 1    
   171   86  208 1    
   172   86  209 1    
   173   87   88 2    
   174   87   89 am   BACKBONE|DICT|INTERRES
   175   89   90 1    
   176   89  210 1    
   177   90   91 1    
   178   90   92 1    
   179   90  211 1    
   180   91  212 1    
   181   91  213 1    
   182   91  214 1    
   183   92   93 2    
   184   92   94 am   BACKBONE|DICT|INTERRES
   185   94   95 1    
   186   94  215 1    
   187   95   96 1    
   188   95   97 1    
   189   95  216 1    
   190   96  217 1    
   191   96  218 1    
   192   96  219 1    
   193   97   98 2    
   194   97   99 am   BACKBONE|DICT|INTERRES
   195   99  100 1    
   196   99  220 1    
   197  100  101 1    
   198  100  102 1    
   199  100  221 1    
   200  101  222 1    
   201  101  223 1    
   202  101  224 1    
   203  102  103 2    
   204  102  104 am   BACKBONE|DICT|INTERRES
   205  104  105 1    
   206  104  225 1    
   207  105  106 1    
   208  105  107 1    
   209  105  226 1    
   210  106  227 1    
   211  106  228 1    
   212  106  229 1    
   213  107  108 2    
   214  107  109 am   BACKBONE|DICT|INTERRES
   215  109  110 1    
   216  109  230 1    
   217  110  111 1    
   218  110  112 1    
   219  110  231 1    
   220  111  232 1    
   221  111  233 1    
   222  111  234 1    
   223  112  113 2    
   224  112  114 am   BACKBONE|DICT|INTERRES
   225  114  115 1    
   226  114  235 1    
   227  115  116 1    
   228  115  117 1    
   229  115  236 1    
   230  116  237 1    
   231  116  238 1    
   232  116  239 1    
   233  117  118 2    
   234  117  119 am   BACKBONE|DICT|INTERRES
   235  119  120 1    
   236  119  240 1    
   237  120  121 1    
   238  120  124 1    
   239  120  241 1    
   240  121  122 am   BACKBONE|DICT|INTERRES
   241  121  123 2    
   242  122  242 1    
   243  122  243 1    
   244  124  125 1    
   245  124  244 1    
   246  124  245 1    
   247  125  126 1    
   248  126  246 1    
   249  126  247 1    
@<TRIPOS>SUBSTRUCTURE
     1 UNK         1 GROUP             0       ****    0 ROOT    
