@<TRIPOS>MOLECULE
3R540
247   249    1
SMALL
USER_CHARGES


@<TRIPOS>ATOM
      1 CA          4.9372  -18.5978  -45.3307 C.3       0 UNK        -0.1800 
      2 C           4.5849  -17.6433  -46.4625 C.2       0 UNK         0.5000 
      3 O           5.2617  -17.6393  -47.4896 O.2       0 UNK        -0.5000 
      4 N           3.5453  -16.8211  -46.2633 N.am      1 UNK        -0.5000 
      5 CA          3.0126  -15.8198  -47.2054 C.3       1 UNK         0.1400 
      6 C6          2.5094  -16.4159  -48.5480 C.3       23 UNK        -0.0398 
      7 S7          1.0273  -17.4610  -48.3330 S.3       23 UNK        -0.2404 
      8 C8         -0.2559  -16.3657  -49.0204 C.3       23 UNK        -0.0205 
      9 C9         -1.5120  -17.1317  -49.4018 C.ar      23 UNK        -0.0193 
     10 C10        -1.6480  -17.6470  -50.6960 C.ar      23 UNK        -0.1150 
     11 C11        -2.8073  -18.3321  -51.0706 C.ar      23 UNK        -0.0193 
     12 C12        -3.8284  -18.5011  -50.1366 C.ar      23 UNK        -0.1150 
     13 C13        -3.7156  -17.9784  -48.8485 C.ar      23 UNK        -0.0193 
     14 C14        -2.5506  -17.2986  -48.4796 C.ar      23 UNK        -0.1150 
     15 C15        -4.8713  -18.1484  -47.8775 C.3       23 UNK        -0.0205 
     16 S16        -5.0430  -19.8802  -47.3508 S.3       23 UNK        -0.2404 
     17 C17        -3.6442  -20.0294  -46.1926 C.3       23 UNK        -0.0398 
     18 CA         -2.3794  -20.7048  -46.7793 C.3       11 UNK         0.1400 
     19 N          -1.2649  -20.5838  -45.8413 N.am      11 UNK        -0.5000 
     20 C          -0.0181  -21.0290  -46.0340 C.2       10 UNK         0.5000 
     21 O           0.3774  -21.5572  -47.0703 O.2       10 UNK        -0.5000 
     22 CA          0.9298  -20.9233  -44.8297 C.3       10 UNK         0.1400 
     23 CB          1.4918  -19.5012  -44.7044 C.3       10 UNK        -0.1800 
     24 N           0.2724  -21.3166  -43.5818 N.am      10 UNK        -0.5000 
     25 C          -0.1491  -22.5612  -43.3128 C.2       9 UNK         0.5000 
     26 O           0.0015  -23.5126  -44.0781 O.2       9 UNK        -0.5000 
     27 CA         -0.9040  -22.7682  -41.9877 C.3       9 UNK         0.1400 
     28 CB          0.0787  -22.8700  -40.8117 C.3       9 UNK        -0.1800 
     29 N          -1.8715  -21.7027  -41.7249 N.am      9 UNK        -0.5000 
     30 C          -2.9715  -21.4815  -42.4589 C.2       8 UNK         0.5000 
     31 O          -3.3124  -22.1864  -43.4081 O.2       8 UNK        -0.5000 
     32 CA         -3.7973  -20.2277  -42.1081 C.3       8 UNK         0.1400 
     33 CB         -4.8201  -20.5456  -41.0076 C.3       8 UNK        -0.1800 
     34 N          -2.9728  -19.0873  -41.6936 N.am      8 UNK        -0.5000 
     35 C          -2.0307  -18.5153  -42.4551 C.2       7 UNK         0.5000 
     36 O          -1.7676  -18.8872  -43.6012 O.2       7 UNK        -0.5000 
     37 CA         -1.2063  -17.3956  -41.7955 C.3       7 UNK         0.1400 
     38 CB         -0.2526  -17.9829  -40.7417 C.3       7 UNK        -0.1800 
     39 N          -0.4024  -16.6719  -42.7756 N.am      7 UNK        -0.5000 
     40 C          -0.8522  -15.7568  -43.6403 C.2       6 UNK         0.5000 
     41 O          -2.0146  -15.3477  -43.6542 O.2       6 UNK        -0.5000 
     42 CA          0.1924  -15.1977  -44.6335 C.3       6 UNK         0.1400 
     43 CB         -0.3890  -14.1209  -45.5665 C.3       6 UNK        -0.1800 
     44 N           1.3686  -14.6484  -43.9472 N.am      6 UNK        -0.5000 
     45 C           2.3457  -15.3696  -43.3792 C.2       5 UNK         0.5000 
     46 O           2.4226  -16.5907  -43.5197 O.2       5 UNK        -0.5000 
     47 CA          3.4049  -14.6467  -42.5178 C.3       5 UNK         0.1400 
     48 CB          4.8281  -15.0758  -42.9057 C.3       5 UNK        -0.1800 
     49 N           3.3129  -13.1857  -42.5590 N.am      5 UNK        -0.5000 
     50 C           2.4154  -12.4527  -41.8836 C.2       4 UNK         0.5000 
     51 O           1.5844  -12.9387  -41.1162 O.2       4 UNK        -0.5000 
     52 CA          2.4168  -10.9282  -42.1222 C.3       4 UNK         0.1400 
     53 CB          3.1138  -10.2038  -40.9605 C.3       4 UNK        -0.1800 
     54 N           3.0472  -10.5190  -43.3796 N.am      4 UNK        -0.5000 
     55 C           2.6254  -10.8462  -44.6087 C.2       3 UNK         0.5000 
     56 O           1.6247  -11.5304  -44.8253 O.2       3 UNK        -0.5000 
     57 CA          3.4867  -10.3698  -45.7962 C.3       3 UNK         0.1400 
     58 CB          4.3715   -9.1443  -45.4753 C.3       3 UNK        -0.1800 
     59 N           4.2997  -11.4589  -46.3470 N.am      3 UNK        -0.5000 
     60 C           5.2006  -12.2129  -45.7014 C.2       2 UNK         0.5000 
     61 O           5.4569  -12.1054  -44.5003 O.2       2 UNK        -0.5000 
     62 CA          5.8804  -13.3147  -46.5369 C.3       2 UNK         0.1400 
     63 CB          7.2372  -13.7452  -45.9518 C.3       2 UNK        -0.1800 
     64 N           5.0084  -14.4833  -46.6202 N.am      2 UNK        -0.5000 
     65 C           3.9315  -14.5915  -47.4079 C.2       1 UNK         0.5000 
     66 O           3.6222  -13.7300  -48.2330 O.2       1 UNK        -0.5000 
     67 C          -2.6294  -22.1763  -47.1766 C.2       11 UNK         0.5000 
     68 O          -2.6404  -22.4948  -48.3665 O.2       11 UNK        -0.5000 
     69 N          -2.8002  -23.0423  -46.1682 N.am      12 UNK        -0.5000 
     70 CA         -3.1210  -24.4549  -46.3408 C.3       12 UNK         0.1400 
     71 CB         -3.6151  -25.0304  -45.0046 C.3       12 UNK        -0.1800 
     72 C          -1.9582  -25.2974  -46.8911 C.2       12 UNK         0.5000 
     73 O          -2.1819  -26.0877  -47.8077 O.2       12 UNK        -0.5000 
     74 N          -0.7609  -25.1574  -46.3052 N.am      13 UNK        -0.5000 
     75 CA          0.3776  -26.0321  -46.5840 C.3       13 UNK         0.1400 
     76 CB          1.1344  -26.3406  -45.2802 C.3       13 UNK        -0.1800 
     77 C           1.3150  -25.4413  -47.6453 C.2       13 UNK         0.5000 
     78 O           1.4863  -26.0498  -48.7015 O.2       13 UNK        -0.5000 
     79 N           1.9253  -24.2866  -47.3428 N.am      14 UNK        -0.5000 
     80 CA          2.9912  -23.6825  -48.1498 C.3       14 UNK         0.1400 
     81 CB          3.6801  -22.5601  -47.3552 C.3       14 UNK        -0.1800 
     82 C           2.5000  -23.1746  -49.5161 C.2       14 UNK         0.5000 
     83 O           3.1333  -23.4509  -50.5356 O.2       14 UNK        -0.5000 
     84 N           1.3653  -22.4678  -49.5089 N.am      15 UNK        -0.5000 
     85 CA          0.6896  -21.9597  -50.7016 C.3       15 UNK         0.1400 
     86 CB         -0.0502  -20.6696  -50.3328 C.3       15 UNK        -0.1800 
     87 C          -0.2792  -22.9845  -51.3210 C.2       15 UNK         0.5000 
     88 O          -0.8188  -22.7229  -52.3966 O.2       15 UNK        -0.5000 
     89 N          -0.4966  -24.1170  -50.6336 N.am      16 UNK        -0.5000 
     90 CA         -1.2954  -25.2803  -51.0419 C.3       16 UNK         0.1400 
     91 CB         -0.6006  -26.0029  -52.2146 C.3       16 UNK        -0.1800 
     92 C          -2.7793  -24.9708  -51.3483 C.2       16 UNK         0.5000 
     93 O          -3.4231  -25.7428  -52.0614 O.2       16 UNK        -0.5000 
     94 N          -3.2865  -23.8401  -50.8319 N.am      17 UNK        -0.5000 
     95 CA         -4.5935  -23.2357  -51.1031 C.3       17 UNK         0.1400 
     96 CB         -5.7055  -24.0175  -50.3762 C.3       17 UNK        -0.1800 
     97 C          -4.8739  -23.0360  -52.6117 C.2       17 UNK         0.5000 
     98 O          -5.9993  -23.2722  -53.0583 O.2       17 UNK        -0.5000 
     99 N          -3.8366  -22.6194  -53.3583 N.am      18 UNK        -0.5000 
    100 CA        -3.7887  -22.5081  -54.8211 C.3       18 UNK         0.1400 
    101 CB        -2.4980  -21.7823  -55.2289 C.3       18 UNK        -0.1800 
    102 C         -5.0015  -21.8145  -55.4710 C.2       18 UNK         0.5000 
    103 O         -5.4924  -20.8097  -54.9480 O.2       18 UNK        -0.5000 
    104 N         -5.4414  -22.3716  -56.6085 N.am      19 UNK        -0.5000 
    105 CA        -6.6088  -22.0076  -57.4203 C.3       19 UNK         0.1400 
    106 CB        -6.4955  -20.5712  -57.9727 C.3       19 UNK        -0.1800 
    107 C         -7.9425  -22.2466  -56.6873 C.2       19 UNK         0.5000 
    108 O         -8.7016  -23.1372  -57.0709 O.2       19 UNK        -0.5000 
    109 N         -8.1806  -21.4584  -55.6383 N.am      20 UNK        -0.5000 
    110 CA        -9.3321  -21.4925  -54.7454 C.3       20 UNK         0.1400 
    111 CB       -10.6075  -21.0185  -55.4747 C.3       20 UNK        -0.1800 
    112 C         -8.9804  -20.6254  -53.5279 C.2       20 UNK         0.5000 
    113 O         -9.6209  -19.5984  -53.2932 O.2       20 UNK        -0.5000 
    114 N         -7.8992  -21.0070  -52.8294 N.am      21 UNK        -0.5000 
    115 CA        -7.2768  -20.2821  -51.7134 C.3       21 UNK         0.1400 
    116 CB        -8.1581  -20.3631  -50.4509 C.3       21 UNK        -0.1800 
    117 C         -6.8782  -18.8386  -52.0877 C.2       21 UNK         0.5000 
    118 O         -7.0701  -17.9172  -51.2931 O.2       21 UNK        -0.5000 
    119 N         -6.3460  -18.6775  -53.3076 N.am      22 UNK        -0.5000 
    120 CA        -5.9676  -17.4032  -53.9390 C.3       22 UNK         0.1400 
    121 C         -7.1454  -16.3974  -54.1524 C.2       22 UNK         0.5000 
    122 N         -8.4057  -16.8067  -54.0498 N.am      22 UNK        -0.7600 
    123 O         -6.9207  -15.2304  -54.4624 O.2       22 UNK        -0.5000 
    124 C124       -4.7143  -16.7660  -53.2706 C.3       23 UNK        -0.0398 
    125 S125       -3.1642  -17.6130  -53.7447 S.3       23 UNK        -0.2404 
    126 C126       -2.9624  -18.9019  -52.4734 C.3       23 UNK        -0.0205 
    127 H127        4.6874  -19.6210  -45.6118 H         1 UNK         0.0600 
    128 H128        4.4015  -18.3531  -44.4134 H         1 UNK         0.0600 
    129 H129        6.0052  -18.5519  -45.1178 H         1 UNK         0.0600 
    130 H130        3.0558  -16.8761  -45.3747 H         1 UNK         0.3000 
    131 H131        2.1429  -15.3954  -46.7091 H         1 UNK         0.0600 
    132 H132        3.2852  -17.0116  -49.0288 H         1 UNK         0.0800 
    133 H133        2.2745  -15.6277  -49.2640 H         1 UNK         0.0800 
    134 H134       -0.4918  -15.5865  -48.2948 H         1 UNK         0.0800 
    135 H135        0.1236  -15.8537  -49.9057 H         1 UNK         0.0800 
    136 H136       -0.8514  -17.5151  -51.4147 H         1 UNK         0.1150 
    137 H137       -4.7213  -19.0417  -50.4051 H         1 UNK         0.1150 
    138 H138       -2.4532  -16.8949  -47.4815 H         1 UNK         0.1150 
    139 H139       -4.7580  -17.4986  -47.0084 H         1 UNK         0.0800 
    140 H140       -5.7947  -17.8397  -48.3704 H         1 UNK         0.0800 
    141 H141       -4.0018  -20.5773  -45.3222 H         1 UNK         0.0800 
    142 H142       -3.3906  -19.0345  -45.8239 H         1 UNK         0.0800 
    143 H143       -2.0908  -20.1631  -47.6817 H         1 UNK         0.0600 
    144 H144       -1.4696  -20.1173  -44.9608 H         1 UNK         0.3000 
    145 H145        1.7658  -21.6048  -44.9983 H         1 UNK         0.0600 
    146 H146        0.7075  -18.7642  -44.5355 H         1 UNK         0.0600 
    147 H147        2.2045  -19.4278  -43.8833 H         1 UNK         0.0600 
    148 H148        2.0106  -19.2137  -45.6189 H         1 UNK         0.0600 
    149 H149        0.0588  -20.5787  -42.9287 H         1 UNK         0.3000 
    150 H150       -1.4490  -23.7120  -42.0597 H         1 UNK         0.0600 
    151 H151        0.8049  -23.6667  -40.9788 H         1 UNK         0.0600 
    152 H152       -0.4426  -23.0972  -39.8817 H         1 UNK         0.0600 
    153 H153        0.6352  -21.9431  -40.6670 H         1 UNK         0.0600 
    154 H154       -1.6684  -21.0767  -40.9602 H         1 UNK         0.3000 
    155 H155       -4.3450  -19.9309  -43.0045 H         1 UNK         0.0600 
    156 H156       -4.3334  -20.8179  -40.0703 H         1 UNK         0.0600 
    157 H157       -5.4605  -21.3792  -41.2994 H         1 UNK         0.0600 
    158 H158       -5.4695  -19.6917  -40.8138 H         1 UNK         0.0600 
    159 H159       -3.1303  -18.7351  -40.7603 H         1 UNK         0.3000 
    160 H160       -1.8911  -16.6967  -41.3109 H         1 UNK         0.0600 
    161 H161        0.3357  -17.1984  -40.2650 H         1 UNK         0.0600 
    162 H162        0.4431  -18.6990  -41.1816 H         1 UNK         0.0600 
    163 H163       -0.7997  -18.4977  -39.9511 H         1 UNK         0.0600 
    164 H164        0.5686  -16.9511  -42.8610 H         1 UNK         0.3000 
    165 H165        0.5016  -16.0408  -45.2540 H         1 UNK         0.0600 
    166 H166       -0.7275  -13.2477  -45.0075 H         1 UNK         0.0600 
    167 H167        0.3502  -13.7827  -46.2927 H         1 UNK         0.0600 
    168 H168       -1.2423  -14.5052  -46.1265 H         1 UNK         0.0600 
    169 H169        1.3750  -13.6453  -43.8155 H         1 UNK         0.3000 
    170 H170        3.2371  -14.9701  -41.4886 H         1 UNK         0.0600 
    171 H171        4.9642  -16.1514  -42.7854 H         1 UNK         0.0600 
    172 H172        5.0482  -14.8323  -43.9417 H         1 UNK         0.0600 
    173 H173        5.5738  -14.5841  -42.2808 H         1 UNK         0.0600 
    174 H174        3.9691  -12.7075  -43.1681 H         1 UNK         0.3000 
    175 H175        1.3745  -10.6042  -42.1528 H         1 UNK         0.0600 
    176 H176        4.1693  -10.4715  -40.8962 H         1 UNK         0.0600 
    177 H177        3.0470   -9.1215  -41.0726 H         1 UNK         0.0600 
    178 H178        2.6514  -10.4589  -40.0059 H         1 UNK         0.0600 
    179 H179        3.9063   -9.9943  -43.2998 H         1 UNK         0.3000 
    180 H180        2.7880  -10.0743  -46.5802 H         1 UNK         0.0600 
    181 H181        5.1544   -9.3716  -44.7511 H         1 UNK         0.0600 
    182 H182        3.7751   -8.3235  -45.0746 H         1 UNK         0.0600 
    183 H183        4.8595   -8.7740  -46.3769 H         1 UNK         0.0600 
    184 H184        4.0889  -11.7141  -47.3043 H         1 UNK         0.3000 
    185 H185        6.0600  -12.9238  -47.5409 H         1 UNK         0.0600 
    186 H186        7.9138  -12.8932  -45.8742 H         1 UNK         0.0600 
    187 H187        7.1380  -14.1753  -44.9549 H         1 UNK         0.0600 
    188 H188        7.7211  -14.4867  -46.5878 H         1 UNK         0.0600 
    189 H189        5.1957  -15.2338  -45.9730 H         1 UNK         0.3000 
    190 H190       -2.7874  -22.6986  -45.2122 H         1 UNK         0.3000 
    191 H191       -3.9430  -24.5238  -47.0568 H         1 UNK         0.0600 
    192 H192       -2.8561  -24.9470  -44.2254 H         1 UNK         0.0600 
    193 H193       -3.8730  -26.0856  -45.1027 H         1 UNK         0.0600 
    194 H194       -4.5072  -24.5086  -44.6576 H         1 UNK         0.0600 
    195 H195       -0.6397  -24.4786  -45.5571 H         1 UNK         0.3000 
    196 H196        0.0167  -26.9898  -46.9661 H         1 UNK         0.0600 
    197 H197        1.9448  -27.0477  -45.4612 H         1 UNK         0.0600 
    198 H198        0.4724  -26.7888  -44.5391 H         1 UNK         0.0600 
    199 H199        1.5761  -25.4493  -44.8350 H         1 UNK         0.0600 
    200 H200        1.6816  -23.8183  -46.4822 H         1 UNK         0.3000 
    201 H201        3.7372  -24.4577  -48.3384 H         1 UNK         0.0600 
    202 H202        4.0520  -22.9230  -46.3969 H         1 UNK         0.0600 
    203 H203        3.0095  -21.7236  -47.1614 H         1 UNK         0.0600 
    204 H204        4.5348  -22.1659  -47.9062 H         1 UNK         0.0600 
    205 H205        0.9350  -22.2415  -48.6116 H         1 UNK         0.3000 
    206 H206        1.4347  -21.7136  -51.4608 H         1 UNK         0.0600 
    207 H207        0.6239  -19.9452  -49.8780 H         1 UNK         0.0600 
    208 H208       -0.4715  -20.2049  -51.2220 H         1 UNK         0.0600 
    209 H209       -0.8665  -20.8530  -49.6350 H         1 UNK         0.0600 
    210 H210       -0.0096  -24.2154  -49.7541 H         1 UNK         0.3000 
    211 H211       -1.2919  -25.9656  -50.1958 H         1 UNK         0.0600 
    212 H212       -0.6181  -25.4032  -53.1252 H         1 UNK         0.0600 
    213 H213       -1.0887  -26.9523  -52.4377 H         1 UNK         0.0600 
    214 H214        0.4402  -26.2247  -51.9779 H         1 UNK         0.0600 
    215 H215       -2.7057  -23.3170  -50.1830 H         1 UNK         0.3000 
    216 H216       -4.5551  -22.2372  -50.6656 H         1 UNK         0.0600 
    217 H217       -6.6677  -23.5132  -50.4726 H         1 UNK         0.0600 
    218 H218       -5.4910  -24.1038  -49.3109 H         1 UNK         0.0600 
    219 H219       -5.8191  -25.0244  -50.7790 H         1 UNK         0.0600 
    220 H220       -2.9457  -22.4954  -52.8911 H         1 UNK         0.3000 
    221 H221       -3.7377  -23.5299  -55.2015 H         1 UNK         0.0600 
    222 H222       -2.4522  -20.7786  -54.8056 H         1 UNK         0.0600 
    223 H223       -1.6143  -22.3286  -54.9005 H         1 UNK         0.0600 
    224 H224       -2.4275  -21.6828  -56.3128 H         1 UNK         0.0600 
    225 H225       -4.9604  -23.1997  -56.9313 H         1 UNK         0.3000 
    226 H226       -6.5984  -22.6824  -58.2778 H         1 UNK         0.0600 
    227 H227       -5.5867  -20.4502  -58.5621 H         1 UNK         0.0600 
    228 H228       -7.3383  -20.3407  -58.6253 H         1 UNK         0.0600 
    229 H229       -6.4815  -19.8183  -57.1846 H         1 UNK         0.0600 
    230 H230       -7.4331  -20.8286  -55.3652 H         1 UNK         0.3000 
    231 H231       -9.4816  -22.5153  -54.3942 H         1 UNK         0.0600 
    232 H232      -10.8750  -21.6879  -56.2918 H         1 UNK         0.0600 
    233 H233      -10.4832  -20.0176  -55.8898 H         1 UNK         0.0600 
    234 H234      -11.4585  -20.9903  -54.7932 H         1 UNK         0.0600 
    235 H235       -7.4060  -21.8469  -53.1215 H         1 UNK         0.3000 
    236 H236       -6.3435  -20.7952  -51.4891 H         1 UNK         0.0600 
    237 H237       -9.0989  -19.8271  -50.5792 H         1 UNK         0.0600 
    238 H238       -8.3921  -21.3976  -50.2002 H         1 UNK         0.0600 
    239 H239       -7.6478  -19.9296  -49.5897 H         1 UNK         0.0600 
    240 H240       -6.1679  -19.5026  -53.8760 H         1 UNK         0.3000 
    241 H241       -5.6878  -17.6709  -54.9586 H         1 UNK         0.0600 
    242 H242       -8.6306  -17.7557  -53.7776 H         1 UNK         0.3800 
    243 H243       -9.1506  -16.1465  -54.2059 H         1 UNK         0.3800 
    244 H244       -4.8165  -16.7249  -52.1864 H         1 UNK         0.0800 
    245 H245       -4.5873  -15.7301  -53.5869 H         1 UNK         0.0800 
    246 H246       -2.0790  -19.4906  -52.7198 H         1 UNK         0.0800 
    247 H247       -3.8042  -19.5932  -52.5261 H         1 UNK         0.0800 
@<TRIPOS>BOND
     1    1    2 1    
     2    1  127 1    
     3    1  128 1    
     4    1  129 1    
     5    2    3 2    
     6    2    4 am   BACKBONE|DICT|INTERRES
     7    4    5 1    
     8    4  130 1    
     9    5    6 1    
    10    5   65 1    
    11    5  131 1    
    12    6    7 1    
    13    6  132 1    
    14    6  133 1    
    15    7    8 1    
    16    8    9 1    
    17    8  134 1    
    18    8  135 1    
    19    9   10 ar   
    20    9   14 ar   
    21   10   11 ar   
    22   10  136 1    
    23   11   12 ar   
    24   11  126 1    
    25   12   13 ar   
    26   12  137 1    
    27   13   14 ar   
    28   13   15 1    
    29   14  138 1    
    30   15   16 1    
    31   15  139 1    
    32   15  140 1    
    33   16   17 1    
    34   17   18 1    
    35   17  141 1    
    36   17  142 1    
    37   18   19 1    
    38   18   67 1    
    39   18  143 1    
    40   19   20 am   BACKBONE|DICT|INTERRES
    41   19  144 1    
    42   20   21 2    
    43   20   22 1    
    44   22   23 1    
    45   22   24 1    
    46   22  145 1    
    47   23  146 1    
    48   23  147 1    
    49   23  148 1    
    50   24   25 am   BACKBONE|DICT|INTERRES
    51   24  149 1    
    52   25   26 2    
    53   25   27 1    
    54   27   28 1    
    55   27   29 1    
    56   27  150 1    
    57   28  151 1    
    58   28  152 1    
    59   28  153 1    
    60   29   30 am   BACKBONE|DICT|INTERRES
    61   29  154 1    
    62   30   31 2    
    63   30   32 1    
    64   32   33 1    
    65   32   34 1    
    66   32  155 1    
    67   33  156 1    
    68   33  157 1    
    69   33  158 1    
    70   34   35 am   BACKBONE|DICT|INTERRES
    71   34  159 1    
    72   35   36 2    
    73   35   37 1    
    74   37   38 1    
    75   37   39 1    
    76   37  160 1    
    77   38  161 1    
    78   38  162 1    
    79   38  163 1    
    80   39   40 am   BACKBONE|DICT|INTERRES
    81   39  164 1    
    82   40   41 2    
    83   40   42 1    
    84   42   43 1    
    85   42   44 1    
    86   42  165 1    
    87   43  166 1    
    88   43  167 1    
    89   43  168 1    
    90   44   45 am   BACKBONE|DICT|INTERRES
    91   44  169 1    
    92   45   46 2    
    93   45   47 1    
    94   47   48 1    
    95   47   49 1    
    96   47  170 1    
    97   48  171 1    
    98   48  172 1    
    99   48  173 1    
   100   49   50 am   BACKBONE|DICT|INTERRES
   101   49  174 1    
   102   50   51 2    
   103   50   52 1    
   104   52   53 1    
   105   52   54 1    
   106   52  175 1    
   107   53  176 1    
   108   53  177 1    
   109   53  178 1    
   110   54   55 am   BACKBONE|DICT|INTERRES
   111   54  179 1    
   112   55   56 2    
   113   55   57 1    
   114   57   58 1    
   115   57   59 1    
   116   57  180 1    
   117   58  181 1    
   118   58  182 1    
   119   58  183 1    
   120   59   60 am   BACKBONE|DICT|INTERRES
   121   59  184 1    
   122   60   61 2    
   123   60   62 1    
   124   62   63 1    
   125   62   64 1    
   126   62  185 1    
   127   63  186 1    
   128   63  187 1    
   129   63  188 1    
   130   64   65 am   BACKBONE|DICT|INTERRES
   131   64  189 1    
   132   65   66 2    
   133   67   68 2    
   134   67   69 am   BACKBONE|DICT|INTERRES
   135   69   70 1    
   136   69  190 1    
   137   70   71 1    
   138   70   72 1    
   139   70  191 1    
   140   71  192 1    
   141   71  193 1    
   142   71  194 1    
   143   72   73 2    
   144   72   74 am   BACKBONE|DICT|INTERRES
   145   74   75 1    
   146   74  195 1    
   147   75   76 1    
   148   75   77 1    
   149   75  196 1    
   150   76  197 1    
   151   76  198 1    
   152   76  199 1    
   153   77   78 2    
   154   77   79 am   BACKBONE|DICT|INTERRES
   155   79   80 1    
   156   79  200 1    
   157   80   81 1    
   158   80   82 1    
   159   80  201 1    
   160   81  202 1    
   161   81  203 1    
   162   81  204 1    
   163   82   83 2    
   164   82   84 am   BACKBONE|DICT|INTERRES
   165   84   85 1    
   166   84  205 1    
   167   85   86 1    
   168   85   87 1    
   169   85  206 1    
   170   86  207 1    
   171   86  208 1    
   172   86  209 1    
   173   87   88 2    
   174   87   89 am   BACKBONE|DICT|INTERRES
   175   89   90 1    
   176   89  210 1    
   177   90   91 1    
   178   90   92 1    
   179   90  211 1    
   180   91  212 1    
   181   91  213 1    
   182   91  214 1    
   183   92   93 2    
   184   92   94 am   BACKBONE|DICT|INTERRES
   185   94   95 1    
   186   94  215 1    
   187   95   96 1    
   188   95   97 1    
   189   95  216 1    
   190   96  217 1    
   191   96  218 1    
   192   96  219 1    
   193   97   98 2    
   194   97   99 am   BACKBONE|DICT|INTERRES
   195   99  100 1    
   196   99  220 1    
   197  100  101 1    
   198  100  102 1    
   199  100  221 1    
   200  101  222 1    
   201  101  223 1    
   202  101  224 1    
   203  102  103 2    
   204  102  104 am   BACKBONE|DICT|INTERRES
   205  104  105 1    
   206  104  225 1    
   207  105  106 1    
   208  105  107 1    
   209  105  226 1    
   210  106  227 1    
   211  106  228 1    
   212  106  229 1    
   213  107  108 2    
   214  107  109 am   BACKBONE|DICT|INTERRES
   215  109  110 1    
   216  109  230 1    
   217  110  111 1    
   218  110  112 1    
   219  110  231 1    
   220  111  232 1    
   221  111  233 1    
   222  111  234 1    
   223  112  113 2    
   224  112  114 am   BACKBONE|DICT|INTERRES
   225  114  115 1    
   226  114  235 1    
   227  115  116 1    
   228  115  117 1    
   229  115  236 1    
   230  116  237 1    
   231  116  238 1    
   232  116  239 1    
   233  117  118 2    
   234  117  119 am   BACKBONE|DICT|INTERRES
   235  119  120 1    
   236  119  240 1    
   237  120  121 1    
   238  120  124 1    
   239  120  241 1    
   240  121  122 am   BACKBONE|DICT|INTERRES
   241  121  123 2    
   242  122  242 1    
   243  122  243 1    
   244  124  125 1    
   245  124  244 1    
   246  124  245 1    
   247  125  126 1    
   248  126  246 1    
   249  126  247 1    
@<TRIPOS>SUBSTRUCTURE
     1 UNK         1 GROUP             0       ****    0 ROOT    
