@<TRIPOS>MOLECULE
3R540
247   249    1
SMALL
USER_CHARGES


@<TRIPOS>ATOM
      1 CA          4.2796  -11.5219  -48.3752 C.3       0 UNK        -0.1800 
      2 C           3.2977  -12.2895  -47.5029 C.2       0 UNK         0.5000 
      3 O           3.6274  -12.6370  -46.3702 O.2       0 UNK        -0.5000 
      4 N           2.0853  -12.5379  -48.0167 N.am      1 UNK        -0.5000 
      5 CA          1.0122  -13.3146  -47.3721 C.3       1 UNK         0.1400 
      6 C6         -0.2168  -13.5024  -48.3010 C.3       23 UNK        -0.0398 
      7 S7          0.2267  -14.0245  -49.9933 S.3       23 UNK        -0.2404 
      8 C8         -1.3893  -13.9499  -50.8263 C.3       23 UNK        -0.0205 
      9 C9         -2.1249  -15.2775  -50.7407 C.ar      23 UNK        -0.0193 
     10 C10        -1.7968  -16.3057  -51.6250 C.ar      23 UNK        -0.1150 
     11 C11        -2.4631  -17.5309  -51.5711 C.ar      23 UNK        -0.0193 
     12 C12        -3.4752  -17.7232  -50.6247 C.ar      23 UNK        -0.1150 
     13 C13        -3.8237  -16.6981  -49.7301 C.ar      23 UNK        -0.0193 
     14 C14        -3.1362  -15.4804  -49.7979 C.ar      23 UNK        -0.1150 
     15 C15        -4.9513  -16.8206  -48.6997 C.3       23 UNK        -0.0205 
     16 S16        -5.7982  -18.4380  -48.6067 S.3       23 UNK        -0.2404 
     17 C17        -4.9503  -19.2414  -47.2067 C.3       23 UNK        -0.0398 
     18 CA         -3.6674  -19.9902  -47.6493 C.3       11 UNK         0.1400 
     19 N          -2.4697  -19.1726  -47.4592 N.am      11 UNK        -0.5000 
     20 C          -1.2317  -19.4597  -47.8747 C.2       10 UNK         0.5000 
     21 O          -0.9449  -20.5077  -48.4537 O.2       10 UNK        -0.5000 
     22 CA         -0.1189  -18.4467  -47.5308 C.3       10 UNK         0.1400 
     23 CB          0.0095  -17.3588  -48.6059 C.3       10 UNK        -0.1800 
     24 N          -0.2207  -17.8574  -46.1873 N.am      10 UNK        -0.5000 
     25 C          -1.1758  -17.0714  -45.6603 C.2       9 UNK         0.5000 
     26 O          -2.1316  -16.6421  -46.3073 O.2       9 UNK        -0.5000 
     27 CA         -1.0815  -16.7355  -44.1537 C.3       9 UNK         0.1400 
     28 CB         -2.4538  -16.8294  -43.4563 C.3       9 UNK        -0.1800 
     29 N          -0.0751  -17.5165  -43.4241 N.am      9 UNK        -0.5000 
     30 C          -0.0225  -18.8437  -43.2319 C.2       8 UNK         0.5000 
     31 O          -0.9042  -19.6247  -43.5899 O.2       8 UNK        -0.5000 
     32 CA          1.2892  -19.3663  -42.6008 C.3       8 UNK         0.1400 
     33 CB          1.5426  -20.8611  -42.8838 C.3       8 UNK        -0.1800 
     34 N           2.4520  -18.5506  -42.9919 N.am      8 UNK        -0.5000 
     35 C           2.8969  -18.3371  -44.2415 C.2       7 UNK         0.5000 
     36 O           2.4230  -18.8919  -45.2328 O.2       7 UNK        -0.5000 
     37 CA          3.9856  -17.2674  -44.4455 C.3       7 UNK         0.1400 
     38 CB          3.3867  -16.0431  -45.1612 C.3       7 UNK        -0.1800 
     39 N           4.6202  -16.8146  -43.2071 N.am      7 UNK        -0.5000 
     40 C           5.5872  -17.4747  -42.5560 C.2       6 UNK         0.5000 
     41 O           5.9932  -18.5898  -42.8841 O.2       6 UNK        -0.5000 
     42 CA          6.2052  -16.7693  -41.3380 C.3       6 UNK         0.1400 
     43 CB          7.2192  -15.7072  -41.7930 C.3       6 UNK        -0.1800 
     44 N           5.1768  -16.1256  -40.5217 N.am      6 UNK        -0.5000 
     45 C           4.7380  -16.5823  -39.3408 C.2       5 UNK         0.5000 
     46 O           5.1802  -17.5906  -38.7887 O.2       5 UNK        -0.5000 
     47 CA          3.6106  -15.7839  -38.6525 C.3       5 UNK         0.1400 
     48 CB          4.1991  -14.7912  -37.6383 C.3       5 UNK        -0.1800 
     49 N           2.7536  -15.0536  -39.5885 N.am      5 UNK        -0.5000 
     50 C           1.9456  -15.6295  -40.4876 C.2       4 UNK         0.5000 
     51 O           1.7923  -16.8453  -40.5893 O.2       4 UNK        -0.5000 
     52 CA          1.2222  -14.7048  -41.4815 C.3       4 UNK         0.1400 
     53 CB         -0.2165  -14.4283  -41.0243 C.3       4 UNK        -0.1800 
     54 N           1.8945  -13.4352  -41.7577 N.am      4 UNK        -0.5000 
     55 C           3.1263  -13.2863  -42.2620 C.2       3 UNK         0.5000 
     56 O           3.9254  -14.2164  -42.3877 O.2       3 UNK        -0.5000 
     57 CA          3.4922  -11.8669  -42.7378 C.3       3 UNK         0.1400 
     58 CB          4.9209  -11.7830  -43.3040 C.3       3 UNK        -0.1800 
     59 N           2.5393  -11.4145  -43.7552 N.am      3 UNK        -0.5000 
     60 C           1.3258  -10.9034  -43.4949 C.2       2 UNK         0.5000 
     61 O           0.9169  -10.6952  -42.3515 O.2       2 UNK        -0.5000 
     62 CA          0.3914  -10.6107  -44.6849 C.3       2 UNK         0.1400 
     63 CB          0.4263   -9.1161  -45.0378 C.3       2 UNK        -0.1800 
     64 N           0.6998  -11.3867  -45.8852 N.am      2 UNK        -0.5000 
     65 C           0.5581  -12.7139  -46.0223 C.2       1 UNK         0.5000 
     66 O           0.1098  -13.4509  -45.1443 O.2       1 UNK        -0.5000 
     67 C          -3.5793  -21.3918  -47.0099 C.2       11 UNK         0.5000 
     68 O          -4.2807  -22.2892  -47.4750 O.2       11 UNK        -0.5000 
     69 N          -2.7165  -21.5875  -46.0012 N.am      12 UNK        -0.5000 
     70 CA         -2.4304  -22.9050  -45.4263 C.3       12 UNK         0.1400 
     71 CB         -1.5832  -22.7470  -44.1574 C.3       12 UNK        -0.1800 
     72 C          -1.7310  -23.8459  -46.4264 C.2       12 UNK         0.5000 
     73 O          -2.0745  -25.0264  -46.4890 O.2       12 UNK        -0.5000 
     74 N          -0.7992  -23.3000  -47.2221 N.am      13 UNK        -0.5000 
     75 CA         -0.1113  -24.0176  -48.2985 C.3       13 UNK         0.1400 
     76 CB          1.1656  -23.2582  -48.6878 C.3       13 UNK        -0.1800 
     77 C          -1.0232  -24.2247  -49.5216 C.2       13 UNK         0.5000 
     78 O          -0.9128  -25.2456  -50.1999 O.2       13 UNK        -0.5000 
     79 N          -1.9415  -23.2751  -49.7452 N.am      14 UNK        -0.5000 
     80 CA         -2.9769  -23.3285  -50.7776 C.3       14 UNK         0.1400 
     81 CB         -3.4723  -21.8998  -51.0527 C.3       14 UNK        -0.1800 
     82 C          -4.1674  -24.2388  -50.4115 C.2       14 UNK         0.5000 
     83 O          -5.0864  -24.3598  -51.2203 O.2       14 UNK        -0.5000 
     84 N          -4.1713  -24.8203  -49.2022 N.am      15 UNK        -0.5000 
     85 CA         -5.2176  -25.6797  -48.6377 C.3       15 UNK         0.1400 
     86 CB         -5.2601  -27.0306  -49.3824 C.3       15 UNK        -0.1800 
     87 C          -6.5900  -24.9744  -48.5829 C.2       15 UNK         0.5000 
     88 O          -7.5865  -25.5138  -49.0643 O.2       15 UNK        -0.5000 
     89 N          -6.5945  -23.7481  -48.0399 N.am      16 UNK        -0.5000 
     90 CA         -7.7211  -22.8081  -47.9780 C.3       16 UNK         0.1400 
     91 CB         -8.8751  -23.3654  -47.1184 C.3       16 UNK        -0.1800 
     92 C          -8.1685  -22.3397  -49.3794 C.2       16 UNK         0.5000 
     93 O          -9.3623  -22.1693  -49.6307 O.2       16 UNK        -0.5000 
     94 N          -7.1772  -22.1522  -50.2626 N.am      17 UNK        -0.5000 
     95 CA         -7.2794  -21.7424  -51.6673 C.3       17 UNK         0.1400 
     96 CB         -7.9165  -20.3436  -51.7995 C.3       17 UNK        -0.1800 
     97 C          -7.9308  -22.7951  -52.5900 C.2       17 UNK         0.5000 
     98 O          -8.3560  -22.4520  -53.6944 O.2       17 UNK        -0.5000 
     99 N          -7.9658  -24.0625  -52.1533 N.am      18 UNK        -0.5000 
    100 CA        -8.3764  -25.2048  -52.9711 C.3       18 UNK         0.1400 
    101 CB        -8.6702  -26.4082  -52.0641 C.3       18 UNK        -0.1800 
    102 C         -7.3110  -25.5658  -54.0230 C.2       18 UNK         0.5000 
    103 O         -7.6622  -25.9270  -55.1470 O.2       18 UNK        -0.5000 
    104 N         -6.0325  -25.4296  -53.6499 N.am      19 UNK        -0.5000 
    105 CA        -4.8802  -25.5427  -54.5322 C.3       19 UNK         0.1400 
    106 CB        -3.7504  -26.2923  -53.8041 C.3       19 UNK        -0.1800 
    107 C         -4.4716  -24.1193  -54.9343 C.2       19 UNK         0.5000 
    108 O         -3.6499  -23.4943  -54.2607 O.2       19 UNK        -0.5000 
    109 N         -5.0767  -23.6207  -56.0207 N.am      20 UNK        -0.5000 
    110 CA        -4.9114  -22.2603  -56.5503 C.3       20 UNK         0.1400 
    111 CB        -5.8655  -22.0746  -57.7401 C.3       20 UNK        -0.1800 
    112 C         -3.4674  -21.8860  -56.9504 C.2       20 UNK         0.5000 
    113 O         -3.1548  -20.6991  -57.0492 O.2       20 UNK        -0.5000 
    114 N         -2.6080  -22.8970  -57.1400 N.am      21 UNK        -0.5000 
    115 CA        -1.1633  -22.7627  -57.3331 C.3       21 UNK         0.1400 
    116 CB        -0.6019  -24.1197  -57.7859 C.3       21 UNK        -0.1800 
    117 C         -0.4106  -22.2586  -56.0811 C.2       21 UNK         0.5000 
    118 O          0.7329  -21.8207  -56.2129 O.2       21 UNK        -0.5000 
    119 N         -1.0504  -22.3183  -54.9024 N.am      22 UNK        -0.5000 
    120 CA        -0.5232  -21.8586  -53.6062 C.3       22 UNK         0.1400 
    121 C          0.5692  -22.7851  -52.9873 C.2       22 UNK         0.5000 
    122 N          0.6983  -24.0306  -53.4290 N.am      22 UNK        -0.7600 
    123 O          1.3006  -22.3870  -52.0862 O.2       22 UNK        -0.5000 
    124 C124       -0.1351  -20.3499  -53.6231 C.3       23 UNK        -0.0398 
    125 S125       -0.5566  -19.4701  -52.0799 S.3       23 UNK        -0.2404 
    126 C126       -2.0954  -18.6240  -52.5625 C.3       23 UNK        -0.0205 
    127 H127        4.5742  -10.5957  -47.8818 H         1 UNK         0.0600 
    128 H128        5.1755  -12.1192  -48.5443 H         1 UNK         0.0600 
    129 H129        3.8498  -11.2702  -49.3451 H         1 UNK         0.0600 
    130 H130        1.8822  -12.2392  -48.9605 H         1 UNK         0.3000 
    131 H131        1.4244  -14.3030  -47.1579 H         1 UNK         0.0600 
    132 H132       -0.8992  -14.2435  -47.8792 H         1 UNK         0.0800 
    133 H133       -0.7810  -12.5709  -48.3775 H         1 UNK         0.0800 
    134 H134       -1.2282  -13.6965  -51.8752 H         1 UNK         0.0800 
    135 H135       -1.9948  -13.1423  -50.4124 H         1 UNK         0.0800 
    136 H136       -1.0142  -16.1540  -52.3553 H         1 UNK         0.1150 
    137 H137       -3.9914  -18.6707  -50.6061 H         1 UNK         0.1150 
    138 H138       -3.3947  -14.6829  -49.1154 H         1 UNK         0.1150 
    139 H139       -5.7066  -16.0727  -48.9442 H         1 UNK         0.0800 
    140 H140       -4.5681  -16.5497  -47.7150 H         1 UNK         0.0800 
    141 H141       -4.7401  -18.5130  -46.4217 H         1 UNK         0.0800 
    142 H142       -5.6858  -19.9211  -46.7715 H         1 UNK         0.0800 
    143 H143       -3.7254  -20.1756  -48.7204 H         1 UNK         0.0600 
    144 H144       -2.5983  -18.2657  -47.0174 H         1 UNK         0.3000 
    145 H145        0.8144  -19.0116  -47.5316 H         1 UNK         0.0600 
    146 H146        0.8682  -16.7155  -48.4154 H         1 UNK         0.0600 
    147 H147        0.1429  -17.7977  -49.5948 H         1 UNK         0.0600 
    148 H148       -0.8776  -16.7302  -48.6470 H         1 UNK         0.0600 
    149 H149        0.5136  -18.1706  -45.5625 H         1 UNK         0.3000 
    150 H150       -0.7565  -15.6971  -44.0966 H         1 UNK         0.0600 
    151 H151       -3.1626  -16.1234  -43.8906 H         1 UNK         0.0600 
    152 H152       -2.3749  -16.5943  -42.3951 H         1 UNK         0.0600 
    153 H153       -2.8888  -17.8249  -43.5484 H         1 UNK         0.0600 
    154 H154        0.7207  -16.9938  -43.0925 H         1 UNK         0.3000 
    155 H155        1.1754  -19.2539  -41.5222 H         1 UNK         0.0600 
    156 H156        0.7527  -21.4768  -42.4526 H         1 UNK         0.0600 
    157 H157        2.4844  -21.1904  -42.4450 H         1 UNK         0.0600 
    158 H158        1.5779  -21.0743  -43.9524 H         1 UNK         0.0600 
    159 H159        2.8790  -18.0253  -42.2396 H         1 UNK         0.3000 
    160 H160        4.7506  -17.7001  -45.0936 H         1 UNK         0.0600 
    161 H161        2.5972  -15.5741  -44.5729 H         1 UNK         0.0600 
    162 H162        4.1482  -15.2870  -45.3546 H         1 UNK         0.0600 
    163 H163        2.9557  -16.3196  -46.1245 H         1 UNK         0.0600 
    164 H164        4.3680  -15.8801  -42.8913 H         1 UNK         0.3000 
    165 H165        6.7444  -17.5198  -40.7562 H         1 UNK         0.0600 
    166 H166        7.7073  -15.2398  -40.9377 H         1 UNK         0.0600 
    167 H167        8.0006  -16.1516  -42.4107 H         1 UNK         0.0600 
    168 H168        6.7451  -14.9182  -42.3786 H         1 UNK         0.0600 
    169 H169        4.7317  -15.3085  -40.9254 H         1 UNK         0.3000 
    170 H170        2.9864  -16.4976  -38.1107 H         1 UNK         0.0600 
    171 H171        4.8231  -15.3049  -36.9056 H         1 UNK         0.0600 
    172 H172        4.8186  -14.0376  -38.1262 H         1 UNK         0.0600 
    173 H173        3.4120  -14.2756  -37.0879 H         1 UNK         0.0600 
    174 H174        2.8232  -14.0467  -39.5828 H         1 UNK         0.3000 
    175 H175        1.1764  -15.2376  -42.4314 H         1 UNK         0.0600 
    176 H176       -0.2396  -13.8353  -40.1092 H         1 UNK         0.0600 
    177 H177       -0.7756  -13.8892  -41.7897 H         1 UNK         0.0600 
    178 H178       -0.7518  -15.3584  -40.8278 H         1 UNK         0.0600 
    179 H179        1.3204  -12.6009  -41.7013 H         1 UNK         0.3000 
    180 H180        3.4401  -11.2047  -41.8712 H         1 UNK         0.0600 
    181 H181        5.6565  -12.0502  -42.5444 H         1 UNK         0.0600 
    182 H182        5.0635  -12.4597  -44.1469 H         1 UNK         0.0600 
    183 H183        5.1535  -10.7731  -43.6416 H         1 UNK         0.0600 
    184 H184        2.7828  -11.6353  -44.7148 H         1 UNK         0.3000 
    185 H185       -0.6234  -10.8659  -44.3725 H         1 UNK         0.0600 
    186 H186        0.1708   -8.5036  -44.1720 H         1 UNK         0.0600 
    187 H187        1.4150   -8.8062  -45.3788 H         1 UNK         0.0600 
    188 H188       -0.2908   -8.8789  -45.8240 H         1 UNK         0.0600 
    189 H189        1.0901  -10.8740  -46.6625 H         1 UNK         0.3000 
    190 H190       -2.1821  -20.8060  -45.6464 H         1 UNK         0.3000 
    191 H191       -3.3802  -23.3645  -45.1442 H         1 UNK         0.0600 
    192 H192       -1.3833  -23.7150  -43.6964 H         1 UNK         0.0600 
    193 H193       -2.0932  -22.1326  -43.4153 H         1 UNK         0.0600 
    194 H194       -0.6218  -22.2826  -44.3767 H         1 UNK         0.0600 
    195 H195       -0.6245  -22.3050  -47.1642 H         1 UNK         0.3000 
    196 H196        0.1810  -25.0026  -47.9280 H         1 UNK         0.0600 
    197 H197        1.7241  -23.8044  -49.4490 H         1 UNK         0.0600 
    198 H198        1.8256  -23.1262  -47.8305 H         1 UNK         0.0600 
    199 H199        0.9428  -22.2723  -49.0970 H         1 UNK         0.0600 
    200 H200       -1.9196  -22.4490  -49.1611 H         1 UNK         0.3000 
    201 H201       -2.5273  -23.7209  -51.6917 H         1 UNK         0.0600 
    202 H202       -2.6650  -21.1724  -50.9866 H         1 UNK         0.0600 
    203 H203       -4.2481  -21.5967  -50.3514 H         1 UNK         0.0600 
    204 H204       -3.8941  -21.8285  -52.0553 H         1 UNK         0.0600 
    205 H205       -3.3953  -24.6201  -48.5866 H         1 UNK         0.3000 
    206 H206       -4.9318  -25.8789  -47.6038 H         1 UNK         0.0600 
    207 H207       -4.2870  -27.5211  -49.3601 H         1 UNK         0.0600 
    208 H208       -5.9768  -27.7101  -48.9200 H         1 UNK         0.0600 
    209 H209       -5.5488  -26.9114  -50.4270 H         1 UNK         0.0600 
    210 H210       -5.7026  -23.3652  -47.7274 H         1 UNK         0.3000 
    211 H211       -7.3411  -21.9186  -47.4735 H         1 UNK         0.0600 
    212 H212       -9.3656  -24.2149  -47.5942 H         1 UNK         0.0600 
    213 H213       -9.6370  -22.6037  -46.9498 H         1 UNK         0.0600 
    214 H214       -8.5177  -23.6878  -46.1405 H         1 UNK         0.0600 
    215 H215       -6.2448  -22.3792  -49.9502 H         1 UNK         0.3000 
    216 H216       -6.2529  -21.6559  -52.0222 H         1 UNK         0.0600 
    217 H217       -7.4202  -19.6217  -51.1507 H         1 UNK         0.0600 
    218 H218       -7.8318  -19.9698  -52.8204 H         1 UNK         0.0600 
    219 H219       -8.9761  -20.3535  -51.5442 H         1 UNK         0.0600 
    220 H220       -7.5721  -24.2717  -51.2450 H         1 UNK         0.3000 
    221 H221       -9.2969  -24.9427  -53.4969 H         1 UNK         0.0600 
    222 H222       -7.7784  -26.7360  -51.5291 H         1 UNK         0.0600 
    223 H223       -9.4342  -26.1681  -51.3244 H         1 UNK         0.0600 
    224 H224       -9.0335  -27.2558  -52.6463 H         1 UNK         0.0600 
    225 H225       -5.8287  -25.0680  -52.7191 H         1 UNK         0.3000 
    226 H226       -5.1318  -26.1076  -55.4322 H         1 UNK         0.0600 
    227 H227       -4.0617  -27.3012  -53.5334 H         1 UNK         0.0600 
    228 H228       -2.8704  -26.3822  -54.4418 H         1 UNK         0.0600 
    229 H229       -3.4406  -25.7861  -52.8904 H         1 UNK         0.0600 
    230 H230       -5.7563  -24.1991  -56.4946 H         1 UNK         0.3000 
    231 H231       -5.2114  -21.5675  -55.7614 H         1 UNK         0.0600 
    232 H232       -5.6354  -22.7670  -58.5509 H         1 UNK         0.0600 
    233 H233       -6.9022  -22.2354  -57.4432 H         1 UNK         0.0600 
    234 H234       -5.7986  -21.0630  -58.1428 H         1 UNK         0.0600 
    235 H235       -2.9634  -23.8369  -57.0493 H         1 UNK         0.3000 
    236 H236       -0.9932  -22.0363  -58.1303 H         1 UNK         0.0600 
    237 H237       -0.7594  -24.8923  -57.0322 H         1 UNK         0.0600 
    238 H238       -1.0715  -24.4521  -58.7119 H         1 UNK         0.0600 
    239 H239        0.4711  -24.0573  -57.9726 H         1 UNK         0.0600 
    240 H240       -1.9853  -22.7152  -54.8680 H         1 UNK         0.3000 
    241 H241       -1.3746  -21.9667  -52.9373 H         1 UNK         0.0600 
    242 H242        1.3974  -24.6298  -53.0200 H         1 UNK         0.3800 
    243 H243        0.1037  -24.3793  -54.1625 H         1 UNK         0.3800 
    244 H244       -0.6342  -19.8387  -54.4469 H         1 UNK         0.0800 
    245 H245        0.9311  -20.2246  -53.8189 H         1 UNK         0.0800 
    246 H246       -1.9762  -18.1746  -53.5495 H         1 UNK         0.0800 
    247 H247       -2.9008  -19.3538  -52.6532 H         1 UNK         0.0800 
@<TRIPOS>BOND
     1    1    2 1    
     2    1  127 1    
     3    1  128 1    
     4    1  129 1    
     5    2    3 2    
     6    2    4 am   BACKBONE|DICT|INTERRES
     7    4    5 1    
     8    4  130 1    
     9    5    6 1    
    10    5   65 1    
    11    5  131 1    
    12    6    7 1    
    13    6  132 1    
    14    6  133 1    
    15    7    8 1    
    16    8    9 1    
    17    8  134 1    
    18    8  135 1    
    19    9   10 ar   
    20    9   14 ar   
    21   10   11 ar   
    22   10  136 1    
    23   11   12 ar   
    24   11  126 1    
    25   12   13 ar   
    26   12  137 1    
    27   13   14 ar   
    28   13   15 1    
    29   14  138 1    
    30   15   16 1    
    31   15  139 1    
    32   15  140 1    
    33   16   17 1    
    34   17   18 1    
    35   17  141 1    
    36   17  142 1    
    37   18   19 1    
    38   18   67 1    
    39   18  143 1    
    40   19   20 am   BACKBONE|DICT|INTERRES
    41   19  144 1    
    42   20   21 2    
    43   20   22 1    
    44   22   23 1    
    45   22   24 1    
    46   22  145 1    
    47   23  146 1    
    48   23  147 1    
    49   23  148 1    
    50   24   25 am   BACKBONE|DICT|INTERRES
    51   24  149 1    
    52   25   26 2    
    53   25   27 1    
    54   27   28 1    
    55   27   29 1    
    56   27  150 1    
    57   28  151 1    
    58   28  152 1    
    59   28  153 1    
    60   29   30 am   BACKBONE|DICT|INTERRES
    61   29  154 1    
    62   30   31 2    
    63   30   32 1    
    64   32   33 1    
    65   32   34 1    
    66   32  155 1    
    67   33  156 1    
    68   33  157 1    
    69   33  158 1    
    70   34   35 am   BACKBONE|DICT|INTERRES
    71   34  159 1    
    72   35   36 2    
    73   35   37 1    
    74   37   38 1    
    75   37   39 1    
    76   37  160 1    
    77   38  161 1    
    78   38  162 1    
    79   38  163 1    
    80   39   40 am   BACKBONE|DICT|INTERRES
    81   39  164 1    
    82   40   41 2    
    83   40   42 1    
    84   42   43 1    
    85   42   44 1    
    86   42  165 1    
    87   43  166 1    
    88   43  167 1    
    89   43  168 1    
    90   44   45 am   BACKBONE|DICT|INTERRES
    91   44  169 1    
    92   45   46 2    
    93   45   47 1    
    94   47   48 1    
    95   47   49 1    
    96   47  170 1    
    97   48  171 1    
    98   48  172 1    
    99   48  173 1    
   100   49   50 am   BACKBONE|DICT|INTERRES
   101   49  174 1    
   102   50   51 2    
   103   50   52 1    
   104   52   53 1    
   105   52   54 1    
   106   52  175 1    
   107   53  176 1    
   108   53  177 1    
   109   53  178 1    
   110   54   55 am   BACKBONE|DICT|INTERRES
   111   54  179 1    
   112   55   56 2    
   113   55   57 1    
   114   57   58 1    
   115   57   59 1    
   116   57  180 1    
   117   58  181 1    
   118   58  182 1    
   119   58  183 1    
   120   59   60 am   BACKBONE|DICT|INTERRES
   121   59  184 1    
   122   60   61 2    
   123   60   62 1    
   124   62   63 1    
   125   62   64 1    
   126   62  185 1    
   127   63  186 1    
   128   63  187 1    
   129   63  188 1    
   130   64   65 am   BACKBONE|DICT|INTERRES
   131   64  189 1    
   132   65   66 2    
   133   67   68 2    
   134   67   69 am   BACKBONE|DICT|INTERRES
   135   69   70 1    
   136   69  190 1    
   137   70   71 1    
   138   70   72 1    
   139   70  191 1    
   140   71  192 1    
   141   71  193 1    
   142   71  194 1    
   143   72   73 2    
   144   72   74 am   BACKBONE|DICT|INTERRES
   145   74   75 1    
   146   74  195 1    
   147   75   76 1    
   148   75   77 1    
   149   75  196 1    
   150   76  197 1    
   151   76  198 1    
   152   76  199 1    
   153   77   78 2    
   154   77   79 am   BACKBONE|DICT|INTERRES
   155   79   80 1    
   156   79  200 1    
   157   80   81 1    
   158   80   82 1    
   159   80  201 1    
   160   81  202 1    
   161   81  203 1    
   162   81  204 1    
   163   82   83 2    
   164   82   84 am   BACKBONE|DICT|INTERRES
   165   84   85 1    
   166   84  205 1    
   167   85   86 1    
   168   85   87 1    
   169   85  206 1    
   170   86  207 1    
   171   86  208 1    
   172   86  209 1    
   173   87   88 2    
   174   87   89 am   BACKBONE|DICT|INTERRES
   175   89   90 1    
   176   89  210 1    
   177   90   91 1    
   178   90   92 1    
   179   90  211 1    
   180   91  212 1    
   181   91  213 1    
   182   91  214 1    
   183   92   93 2    
   184   92   94 am   BACKBONE|DICT|INTERRES
   185   94   95 1    
   186   94  215 1    
   187   95   96 1    
   188   95   97 1    
   189   95  216 1    
   190   96  217 1    
   191   96  218 1    
   192   96  219 1    
   193   97   98 2    
   194   97   99 am   BACKBONE|DICT|INTERRES
   195   99  100 1    
   196   99  220 1    
   197  100  101 1    
   198  100  102 1    
   199  100  221 1    
   200  101  222 1    
   201  101  223 1    
   202  101  224 1    
   203  102  103 2    
   204  102  104 am   BACKBONE|DICT|INTERRES
   205  104  105 1    
   206  104  225 1    
   207  105  106 1    
   208  105  107 1    
   209  105  226 1    
   210  106  227 1    
   211  106  228 1    
   212  106  229 1    
   213  107  108 2    
   214  107  109 am   BACKBONE|DICT|INTERRES
   215  109  110 1    
   216  109  230 1    
   217  110  111 1    
   218  110  112 1    
   219  110  231 1    
   220  111  232 1    
   221  111  233 1    
   222  111  234 1    
   223  112  113 2    
   224  112  114 am   BACKBONE|DICT|INTERRES
   225  114  115 1    
   226  114  235 1    
   227  115  116 1    
   228  115  117 1    
   229  115  236 1    
   230  116  237 1    
   231  116  238 1    
   232  116  239 1    
   233  117  118 2    
   234  117  119 am   BACKBONE|DICT|INTERRES
   235  119  120 1    
   236  119  240 1    
   237  120  121 1    
   238  120  124 1    
   239  120  241 1    
   240  121  122 am   BACKBONE|DICT|INTERRES
   241  121  123 2    
   242  122  242 1    
   243  122  243 1    
   244  124  125 1    
   245  124  244 1    
   246  124  245 1    
   247  125  126 1    
   248  126  246 1    
   249  126  247 1    
@<TRIPOS>SUBSTRUCTURE
     1 UNK         1 GROUP             0       ****    0 ROOT    
