@<TRIPOS>MOLECULE
3R540
247   249    1
SMALL
USER_CHARGES


@<TRIPOS>ATOM
      1 CA          0.3037  -10.5482  -46.3405 C.3       0 UNK        -0.1800 
      2 C           1.1899  -11.5004  -47.1300 C.2       0 UNK         0.5000 
      3 O           2.3373  -11.1650  -47.4274 O.2       0 UNK        -0.5000 
      4 N           0.6670  -12.6857  -47.4674 N.am      1 UNK        -0.5000 
      5 CA          1.3800  -13.7676  -48.1559 C.3       1 UNK         0.1400 
      6 C6          0.4291  -14.9191  -48.5638 C.3       23 UNK        -0.0398 
      7 S7         -0.8826  -14.3579  -49.7032 S.3       23 UNK        -0.2404 
      8 C8         -0.4565  -15.2367  -51.2394 C.3       23 UNK        -0.0205 
      9 C9         -0.7800  -16.7202  -51.1481 C.ar      23 UNK        -0.0193 
     10 C10        -2.1078  -17.1499  -51.2169 C.ar      23 UNK        -0.1150 
     11 C11        -2.4181  -18.5111  -51.1544 C.ar      23 UNK        -0.0193 
     12 C12        -1.3907  -19.4422  -50.9898 C.ar      23 UNK        -0.1150 
     13 C13        -0.0590  -19.0264  -50.9137 C.ar      23 UNK        -0.0193 
     14 C14         0.2416  -17.6638  -51.0082 C.ar      23 UNK        -0.1150 
     15 C15         1.0477  -20.0576  -50.7408 C.3       23 UNK        -0.0205 
     16 S16         2.1118  -19.7400  -49.2944 S.3       23 UNK        -0.2404 
     17 C17         0.9135  -19.6510  -47.9219 C.3       23 UNK        -0.0398 
     18 CA          0.5156  -21.0470  -47.3690 C.3       11 UNK         0.1400 
     19 N           0.6258  -21.1219  -45.9088 N.am      11 UNK        -0.5000 
     20 C           0.5085  -22.2440  -45.1853 C.2       10 UNK         0.5000 
     21 O           0.3455  -23.3589  -45.6792 O.2       10 UNK        -0.5000 
     22 CA          0.5224  -22.0922  -43.6522 C.3       10 UNK         0.1400 
     23 CB          1.9599  -22.0377  -43.1150 C.3       10 UNK        -0.1800 
     24 N          -0.2271  -20.9198  -43.1963 N.am      10 UNK        -0.5000 
     25 C          -1.5492  -20.7643  -43.3588 C.2       9 UNK         0.5000 
     26 O          -2.2790  -21.6217  -43.8545 O.2       9 UNK        -0.5000 
     27 CA         -2.1533  -19.4088  -42.9514 C.3       9 UNK         0.1400 
     28 CB         -2.3995  -19.3516  -41.4367 C.3       9 UNK        -0.1800 
     29 N          -1.3252  -18.2752  -43.3624 N.am      9 UNK        -0.5000 
     30 C          -1.0321  -17.9645  -44.6338 C.2       8 UNK         0.5000 
     31 O          -1.4691  -18.5766  -45.6086 O.2       8 UNK        -0.5000 
     32 CA         -0.0352  -16.8130  -44.8491 C.3       8 UNK         0.1400 
     33 CB         -0.7308  -15.4514  -44.6900 C.3       8 UNK        -0.1800 
     34 N           1.1147  -16.8973  -43.9475 N.am      8 UNK        -0.5000 
     35 C           1.9933  -17.9100  -43.9281 C.2       7 UNK         0.5000 
     36 O           1.9494  -18.8679  -44.6976 O.2       7 UNK        -0.5000 
     37 CA          3.0556  -17.8946  -42.8169 C.3       7 UNK         0.1400 
     38 CB          4.2527  -17.0104  -43.1927 C.3       7 UNK        -0.1800 
     39 N           2.4900  -17.4632  -41.5400 N.am      7 UNK        -0.5000 
     40 C           1.6324  -18.1965  -40.8155 C.2       6 UNK         0.5000 
     41 O           1.2696  -19.3307  -41.1277 O.2       6 UNK        -0.5000 
     42 CA          1.0534  -17.5336  -39.5525 C.3       6 UNK         0.1400 
     43 CB          2.0086  -17.7079  -38.3626 C.3       6 UNK        -0.1800 
     44 N           0.7757  -16.1100  -39.7478 N.am      6 UNK        -0.5000 
     45 C          -0.1706  -15.6298  -40.5671 C.2       5 UNK         0.5000 
     46 O          -0.9455  -16.3408  -41.2058 O.2       5 UNK        -0.5000 
     47 CA         -0.2244  -14.1000  -40.7374 C.3       5 UNK         0.1400 
     48 CB         -1.1079  -13.4658  -39.6531 C.3       5 UNK        -0.1800 
     49 N           1.1013  -13.4736  -40.7155 N.am      5 UNK        -0.5000 
     50 C           2.0546  -13.6929  -41.6304 C.2       4 UNK         0.5000 
     51 O           1.9210  -14.4647  -42.5811 O.2       4 UNK        -0.5000 
     52 CA          3.4007  -12.9868  -41.4034 C.3       4 UNK         0.1400 
     53 CB          4.3854  -13.9233  -40.6871 C.3       4 UNK        -0.1800 
     54 N           3.9960  -12.5411  -42.6610 N.am      4 UNK        -0.5000 
     55 C           3.5871  -11.4771  -43.3592 C.2       3 UNK         0.5000 
     56 O           2.6443  -10.7610  -43.0187 O.2       3 UNK        -0.5000 
     57 CA          4.3768  -11.1240  -44.6327 C.3       3 UNK         0.1400 
     58 CB          5.7786  -10.5797  -44.2952 C.3       3 UNK        -0.1800 
     59 N           4.4407  -12.1915  -45.6356 N.am      3 UNK        -0.5000 
     60 C           5.0632  -13.3794  -45.5873 C.2       2 UNK         0.5000 
     61 O           5.6838  -13.7889  -44.6042 O.2       2 UNK        -0.5000 
     62 CA          5.0004  -14.2299  -46.8797 C.3       2 UNK         0.1400 
     63 CB          5.2504  -15.7342  -46.6424 C.3       2 UNK        -0.1800 
     64 N           3.7738  -14.0082  -47.6585 N.am      2 UNK        -0.5000 
     65 C           2.5235  -14.2844  -47.2606 C.2       1 UNK         0.5000 
     66 O           2.2482  -14.8672  -46.2141 O.2       1 UNK        -0.5000 
     67 C          -0.8887  -21.4660  -47.8537 C.2       11 UNK         0.5000 
     68 O          -1.0013  -22.2732  -48.7760 O.2       11 UNK        -0.5000 
     69 N          -1.9337  -20.9476  -47.1925 N.am      12 UNK        -0.5000 
     70 CA         -3.3316  -21.2968  -47.4469 C.3       12 UNK         0.1400 
     71 CB         -4.2513  -20.3654  -46.6452 C.3       12 UNK        -0.1800 
     72 C          -3.6446  -22.7744  -47.1452 C.2       12 UNK         0.5000 
     73 O          -4.3795  -23.4025  -47.9075 O.2       12 UNK        -0.5000 
     74 N          -3.0569  -23.3138  -46.0677 N.am      13 UNK        -0.5000 
     75 CA         -3.1394  -24.7266  -45.6969 C.3       13 UNK         0.1400 
     76 CB         -2.5739  -24.9324  -44.2842 C.3       13 UNK        -0.1800 
     77 C          -2.4354  -25.6442  -46.7127 C.2       13 UNK         0.5000 
     78 O          -2.9945  -26.6793  -47.0736 O.2       13 UNK        -0.5000 
     79 N          -1.2549  -25.2330  -47.1992 N.am      14 UNK        -0.5000 
     80 CA         -0.5086  -25.9138  -48.2632 C.3       14 UNK         0.1400 
     81 CB          0.8832  -25.2795  -48.4059 C.3       14 UNK        -0.1800 
     82 C          -1.2560  -25.9107  -49.6119 C.2       14 UNK         0.5000 
     83 O          -1.2050  -26.9014  -50.3410 O.2       14 UNK        -0.5000 
     84 N          -1.9806  -24.8190  -49.8887 N.am      15 UNK        -0.5000 
     85 CA         -2.9063  -24.6698  -51.0134 C.3       15 UNK         0.1400 
     86 CB         -3.1414  -23.1693  -51.2533 C.3       15 UNK        -0.1800 
     87 C          -4.2474  -25.4133  -50.8198 C.2       15 UNK         0.5000 
     88 O          -5.0762  -25.3951  -51.7298 O.2       15 UNK        -0.5000 
     89 N          -4.4581  -26.0311  -49.6459 N.am      16 UNK        -0.5000 
     90 CA         -5.6534  -26.7699  -49.2202 C.3       16 UNK         0.1400 
     91 CB         -5.8090  -28.0648  -50.0442 C.3       16 UNK        -0.1800 
     92 C          -6.9338  -25.9073  -49.2108 C.2       16 UNK         0.5000 
     93 O          -8.0268  -26.4242  -49.4479 O.2       16 UNK        -0.5000 
     94 N          -6.7633  -24.5998  -48.9622 N.am      17 UNK        -0.5000 
     95 CA         -7.7675  -23.5313  -49.0039 C.3       17 UNK         0.1400 
     96 CB         -8.8345  -23.7378  -47.9093 C.3       17 UNK        -0.1800 
     97 C          -8.3919  -23.2858  -50.3981 C.2       17 UNK         0.5000 
     98 O          -9.3708  -22.5432  -50.4956 O.2       17 UNK        -0.5000 
     99 N          -7.8180  -23.8791  -51.4531 N.am      18 UNK        -0.5000 
    100 CA        -8.1829  -23.6435  -52.8471 C.3       18 UNK         0.1400 
    101 CB        -7.9571  -24.9399  -53.6419 C.3       18 UNK        -0.1800 
    102 C         -7.3290  -22.5027  -53.4227 C.2       18 UNK         0.5000 
    103 O         -6.2818  -22.1707  -52.8634 O.2       18 UNK        -0.5000 
    104 N         -7.7612  -21.9458  -54.5603 N.am      19 UNK        -0.5000 
    105 CA        -7.0745  -20.8781  -55.2942 C.3       19 UNK         0.1400 
    106 CB        -8.1038  -20.1380  -56.1672 C.3       19 UNK        -0.1800 
    107 C         -5.8689  -21.4009  -56.1098 C.2       19 UNK         0.5000 
    108 O         -5.7699  -21.1428  -57.3114 O.2       19 UNK        -0.5000 
    109 N         -4.9718  -22.1412  -55.4487 N.am      20 UNK        -0.5000 
    110 CA        -3.7747  -22.7571  -56.0185 C.3       20 UNK         0.1400 
    111 CB        -3.3501  -23.9353  -55.1238 C.3       20 UNK        -0.1800 
    112 C         -2.6524  -21.7172  -56.2074 C.2       20 UNK         0.5000 
    113 O         -1.6750  -21.7155  -55.4575 O.2       20 UNK        -0.5000 
    114 N         -2.8404  -20.8366  -57.2010 N.am      21 UNK        -0.5000 
    115 CA        -1.9708  -19.7137  -57.5747 C.3       21 UNK         0.1400 
    116 CB        -0.5978  -20.2134  -58.0724 C.3       21 UNK        -0.1800 
    117 C         -1.8659  -18.6420  -56.4673 C.2       21 UNK         0.5000 
    118 O         -0.8042  -18.0473  -56.2734 O.2       21 UNK        -0.5000 
    119 N         -2.9847  -18.4129  -55.7683 N.am      22 UNK        -0.5000 
    120 CA        -3.1183  -17.4453  -54.6659 C.3       22 UNK         0.1400 
    121 C         -3.1239  -15.9492  -55.1006 C.2       22 UNK         0.5000 
    122 N         -3.2410  -15.6234  -56.3824 N.am      22 UNK        -0.7600 
    123 O         -3.0170  -15.0645  -54.2562 O.2       22 UNK        -0.5000 
    124 C124       -4.3570  -17.7587  -53.7868 C.3       23 UNK        -0.0398 
    125 S125       -4.2702  -19.4051  -53.0025 S.3       23 UNK        -0.2404 
    126 C126       -3.8578  -18.9825  -51.2799 C.3       23 UNK        -0.0205 
    127 H127        0.1804   -9.6119  -46.8845 H         1 UNK         0.0600 
    128 H128        0.7609  -10.3266  -45.3759 H         1 UNK         0.0600 
    129 H129       -0.6850  -10.9704  -46.1593 H         1 UNK         0.0600 
    130 H130       -0.2815  -12.9006  -47.1972 H         1 UNK         0.3000 
    131 H131        1.8135  -13.3524  -49.0684 H         1 UNK         0.0600 
    132 H132        0.9931  -15.7310  -49.0245 H         1 UNK         0.0800 
    133 H133       -0.0547  -15.3498  -47.6864 H         1 UNK         0.0800 
    134 H134        0.5969  -15.0776  -51.4752 H         1 UNK         0.0800 
    135 H135       -1.0226  -14.7994  -52.0636 H         1 UNK         0.0800 
    136 H136       -2.8963  -16.4201  -51.3335 H         1 UNK         0.1150 
    137 H137       -1.6303  -20.4940  -50.9313 H         1 UNK         0.1150 
    138 H138        1.2719  -17.3408  -50.9601 H         1 UNK         0.1150 
    139 H139        0.6323  -21.0630  -50.6553 H         1 UNK         0.0800 
    140 H140        1.6671  -20.0599  -51.6384 H         1 UNK         0.0800 
    141 H141        0.0501  -19.0466  -48.2063 H         1 UNK         0.0800 
    142 H142        1.4078  -19.0624  -47.1512 H         1 UNK         0.0800 
    143 H143        1.2154  -21.7912  -47.7555 H         1 UNK         0.0600 
    144 H144        0.8245  -20.2524  -45.4218 H         1 UNK         0.3000 
    145 H145        0.0415  -22.9763  -43.2289 H         1 UNK         0.0600 
    146 H146        1.9719  -21.9907  -42.0260 H         1 UNK         0.0600 
    147 H147        2.5188  -22.9270  -43.4089 H         1 UNK         0.0600 
    148 H148        2.5021  -21.1713  -43.4924 H         1 UNK         0.0600 
    149 H149        0.3027  -20.1878  -42.7352 H         1 UNK         0.3000 
    150 H150       -3.1174  -19.3121  -43.4546 H         1 UNK         0.0600 
    151 H151       -3.0331  -20.1781  -41.1127 H         1 UNK         0.0600 
    152 H152       -2.9019  -18.4263  -41.1544 H         1 UNK         0.0600 
    153 H153       -1.4681  -19.4109  -40.8736 H         1 UNK         0.0600 
    154 H154       -0.9645  -17.6830  -42.6197 H         1 UNK         0.3000 
    155 H155        0.3446  -16.8884  -45.8694 H         1 UNK         0.0600 
    156 H156       -1.5360  -15.3401  -45.4169 H         1 UNK         0.0600 
    157 H157       -0.0341  -14.6279  -44.8461 H         1 UNK         0.0600 
    158 H158       -1.1662  -15.3327  -43.6985 H         1 UNK         0.0600 
    159 H159        1.2754  -16.1020  -43.3355 H         1 UNK         0.3000 
    160 H160        3.4243  -18.9151  -42.6924 H         1 UNK         0.0600 
    161 H161        3.9510  -15.9896  -43.4304 H         1 UNK         0.0600 
    162 H162        4.7639  -17.4136  -44.0667 H         1 UNK         0.0600 
    163 H163        4.9847  -16.9698  -42.3863 H         1 UNK         0.0600 
    164 H164        2.6909  -16.5188  -41.2492 H         1 UNK         0.3000 
    165 H165        0.1133  -18.0353  -39.3133 H         1 UNK         0.0600 
    166 H166        1.5750  -17.3055  -37.4469 H         1 UNK         0.0600 
    167 H167        2.2202  -18.7630  -38.1843 H         1 UNK         0.0600 
    168 H168        2.9620  -17.2058  -38.5323 H         1 UNK         0.0600 
    169 H169        1.3648  -15.4556  -39.2549 H         1 UNK         0.3000 
    170 H170       -0.6764  -13.8919  -41.7094 H         1 UNK         0.0600 
    171 H171       -2.1080  -13.9014  -39.6611 H         1 UNK         0.0600 
    172 H172       -0.6929  -13.6146  -38.6554 H         1 UNK         0.0600 
    173 H173       -1.2211  -12.3935  -39.8139 H         1 UNK         0.0600 
    174 H174        1.2845  -12.8331  -39.9564 H         1 UNK         0.3000 
    175 H175        3.2371  -12.1126  -40.7696 H         1 UNK         0.0600 
    176 H176        4.6254  -14.7961  -41.2935 H         1 UNK         0.0600 
    177 H177        5.3200  -13.4098  -40.4603 H         1 UNK         0.0600 
    178 H178        3.9743  -14.2802  -39.7420 H         1 UNK         0.0600 
    179 H179        4.7245  -13.1198  -43.0688 H         1 UNK         0.3000 
    180 H180        3.8300  -10.3128  -45.1163 H         1 UNK         0.0600 
    181 H181        6.4052  -11.3282  -43.8097 H         1 UNK         0.0600 
    182 H182        5.7107   -9.7264  -43.6194 H         1 UNK         0.0600 
    183 H183        6.2958  -10.2418  -45.1933 H         1 UNK         0.0600 
    184 H184        3.9026  -11.9886  -46.4727 H         1 UNK         0.3000 
    185 H185        5.8189  -13.8660  -47.5022 H         1 UNK         0.0600 
    186 H186        6.2052  -15.9022  -46.1430 H         1 UNK         0.0600 
    187 H187        4.4744  -16.1819  -46.0236 H         1 UNK         0.0600 
    188 H188        5.2785  -16.2802  -47.5852 H         1 UNK         0.0600 
    189 H189        3.8990  -13.4992  -48.5230 H         1 UNK         0.3000 
    190 H190       -1.7607  -20.2512  -46.4718 H         1 UNK         0.3000 
    191 H191       -3.5249  -21.1278  -48.5075 H         1 UNK         0.0600 
    192 H192       -4.0940  -20.4696  -45.5716 H         1 UNK         0.0600 
    193 H193       -5.3005  -20.5843  -46.8473 H         1 UNK         0.0600 
    194 H194       -4.0790  -19.3214  -46.9080 H         1 UNK         0.0600 
    195 H195       -2.5285  -22.7090  -45.4455 H         1 UNK         0.3000 
    196 H196       -4.1958  -25.0030  -45.6788 H         1 UNK         0.0600 
    197 H197       -2.6629  -25.9751  -43.9769 H         1 UNK         0.0600 
    198 H198       -3.1130  -24.3305  -43.5525 H         1 UNK         0.0600 
    199 H199       -1.5197  -24.6630  -44.2270 H         1 UNK         0.0600 
    200 H200       -0.8284  -24.3973  -46.8082 H         1 UNK         0.3000 
    201 H201       -0.3765  -26.9549  -47.9619 H         1 UNK         0.0600 
    202 H202        1.4408  -25.3392  -47.4711 H         1 UNK         0.0600 
    203 H203        0.8222  -24.2294  -48.6913 H         1 UNK         0.0600 
    204 H204        1.4697  -25.7931  -49.1685 H         1 UNK         0.0600 
    205 H205       -1.8966  -24.0198  -49.2683 H         1 UNK         0.3000 
    206 H206       -2.4384  -25.0863  -51.9076 H         1 UNK         0.0600 
    207 H207       -2.2146  -22.6708  -51.5356 H         1 UNK         0.0600 
    208 H208       -3.8575  -22.9984  -52.0565 H         1 UNK         0.0600 
    209 H209       -3.5337  -22.6745  -50.3663 H         1 UNK         0.0600 
    210 H210       -3.7267  -25.9758  -48.9479 H         1 UNK         0.3000 
    211 H211       -5.4800  -27.0586  -48.1830 H         1 UNK         0.0600 
    212 H212       -6.0537  -27.8548  -51.0859 H         1 UNK         0.0600 
    213 H213       -6.6045  -28.6927  -49.6416 H         1 UNK         0.0600 
    214 H214       -4.8924  -28.6544  -50.0268 H         1 UNK         0.0600 
    215 H215       -5.8198  -24.2824  -48.7471 H         1 UNK         0.3000 
    216 H216       -7.2256  -22.6162  -48.7609 H         1 UNK         0.0600 
    217 H217       -9.4851  -22.8665  -47.8266 H         1 UNK         0.0600 
    218 H218       -8.3734  -23.8891  -46.9332 H         1 UNK         0.0600 
    219 H219       -9.4698  -24.5987  -48.1187 H         1 UNK         0.0600 
    220 H220       -6.9713  -24.4171  -51.3090 H         1 UNK         0.3000 
    221 H221       -9.2370  -23.3677  -52.9178 H         1 UNK         0.0600 
    222 H222       -6.9032  -25.2185  -53.6708 H         1 UNK         0.0600 
    223 H223       -8.5105  -25.7715  -53.2052 H         1 UNK         0.0600 
    224 H224       -8.2938  -24.8321  -54.6735 H         1 UNK         0.0600 
    225 H225       -8.6075  -22.2990  -54.9831 H         1 UNK         0.3000 
    226 H226       -6.6841  -20.1577  -54.5737 H         1 UNK         0.0600 
    227 H227       -8.5385  -20.7946  -56.9219 H         1 UNK         0.0600 
    228 H228       -8.9172  -19.7364  -55.5626 H         1 UNK         0.0600 
    229 H229       -7.6443  -19.2964  -56.6872 H         1 UNK         0.0600 
    230 H230       -5.1168  -22.2611  -54.4503 H         1 UNK         0.3000 
    231 H231       -4.0222  -23.1638  -57.0013 H         1 UNK         0.0600 
    232 H232       -2.5030  -24.4672  -55.5583 H         1 UNK         0.0600 
    233 H233       -4.1604  -24.6547  -55.0029 H         1 UNK         0.0600 
    234 H234       -3.0501  -23.6008  -54.1319 H         1 UNK         0.0600 
    235 H235       -3.7179  -20.9008  -57.7065 H         1 UNK         0.3000 
    236 H236       -2.4602  -19.2233  -58.4172 H         1 UNK         0.0600 
    237 H237       -0.0126  -19.3936  -58.4906 H         1 UNK         0.0600 
    238 H238       -0.0092  -20.6552  -57.2680 H         1 UNK         0.0600 
    239 H239       -0.7109  -20.9621  -58.8564 H         1 UNK         0.0600 
    240 H240       -3.8043  -18.9592  -55.9836 H         1 UNK         0.3000 
    241 H241       -2.2327  -17.5591  -54.0382 H         1 UNK         0.0600 
    242 H242       -3.3279  -16.3354  -57.0891 H         1 UNK         0.3800 
    243 H243       -3.2395  -14.6510  -56.6481 H         1 UNK         0.3800 
    244 H244       -4.4881  -17.0049  -53.0094 H         1 UNK         0.0800 
    245 H245       -5.2650  -17.7182  -54.3904 H         1 UNK         0.0800 
    246 H246       -4.0101  -19.8669  -50.6597 H         1 UNK         0.0800 
    247 H247       -4.5478  -18.2256  -50.9042 H         1 UNK         0.0800 
@<TRIPOS>BOND
     1    1    2 1    
     2    1  127 1    
     3    1  128 1    
     4    1  129 1    
     5    2    3 2    
     6    2    4 am   BACKBONE|DICT|INTERRES
     7    4    5 1    
     8    4  130 1    
     9    5    6 1    
    10    5   65 1    
    11    5  131 1    
    12    6    7 1    
    13    6  132 1    
    14    6  133 1    
    15    7    8 1    
    16    8    9 1    
    17    8  134 1    
    18    8  135 1    
    19    9   10 ar   
    20    9   14 ar   
    21   10   11 ar   
    22   10  136 1    
    23   11   12 ar   
    24   11  126 1    
    25   12   13 ar   
    26   12  137 1    
    27   13   14 ar   
    28   13   15 1    
    29   14  138 1    
    30   15   16 1    
    31   15  139 1    
    32   15  140 1    
    33   16   17 1    
    34   17   18 1    
    35   17  141 1    
    36   17  142 1    
    37   18   19 1    
    38   18   67 1    
    39   18  143 1    
    40   19   20 am   BACKBONE|DICT|INTERRES
    41   19  144 1    
    42   20   21 2    
    43   20   22 1    
    44   22   23 1    
    45   22   24 1    
    46   22  145 1    
    47   23  146 1    
    48   23  147 1    
    49   23  148 1    
    50   24   25 am   BACKBONE|DICT|INTERRES
    51   24  149 1    
    52   25   26 2    
    53   25   27 1    
    54   27   28 1    
    55   27   29 1    
    56   27  150 1    
    57   28  151 1    
    58   28  152 1    
    59   28  153 1    
    60   29   30 am   BACKBONE|DICT|INTERRES
    61   29  154 1    
    62   30   31 2    
    63   30   32 1    
    64   32   33 1    
    65   32   34 1    
    66   32  155 1    
    67   33  156 1    
    68   33  157 1    
    69   33  158 1    
    70   34   35 am   BACKBONE|DICT|INTERRES
    71   34  159 1    
    72   35   36 2    
    73   35   37 1    
    74   37   38 1    
    75   37   39 1    
    76   37  160 1    
    77   38  161 1    
    78   38  162 1    
    79   38  163 1    
    80   39   40 am   BACKBONE|DICT|INTERRES
    81   39  164 1    
    82   40   41 2    
    83   40   42 1    
    84   42   43 1    
    85   42   44 1    
    86   42  165 1    
    87   43  166 1    
    88   43  167 1    
    89   43  168 1    
    90   44   45 am   BACKBONE|DICT|INTERRES
    91   44  169 1    
    92   45   46 2    
    93   45   47 1    
    94   47   48 1    
    95   47   49 1    
    96   47  170 1    
    97   48  171 1    
    98   48  172 1    
    99   48  173 1    
   100   49   50 am   BACKBONE|DICT|INTERRES
   101   49  174 1    
   102   50   51 2    
   103   50   52 1    
   104   52   53 1    
   105   52   54 1    
   106   52  175 1    
   107   53  176 1    
   108   53  177 1    
   109   53  178 1    
   110   54   55 am   BACKBONE|DICT|INTERRES
   111   54  179 1    
   112   55   56 2    
   113   55   57 1    
   114   57   58 1    
   115   57   59 1    
   116   57  180 1    
   117   58  181 1    
   118   58  182 1    
   119   58  183 1    
   120   59   60 am   BACKBONE|DICT|INTERRES
   121   59  184 1    
   122   60   61 2    
   123   60   62 1    
   124   62   63 1    
   125   62   64 1    
   126   62  185 1    
   127   63  186 1    
   128   63  187 1    
   129   63  188 1    
   130   64   65 am   BACKBONE|DICT|INTERRES
   131   64  189 1    
   132   65   66 2    
   133   67   68 2    
   134   67   69 am   BACKBONE|DICT|INTERRES
   135   69   70 1    
   136   69  190 1    
   137   70   71 1    
   138   70   72 1    
   139   70  191 1    
   140   71  192 1    
   141   71  193 1    
   142   71  194 1    
   143   72   73 2    
   144   72   74 am   BACKBONE|DICT|INTERRES
   145   74   75 1    
   146   74  195 1    
   147   75   76 1    
   148   75   77 1    
   149   75  196 1    
   150   76  197 1    
   151   76  198 1    
   152   76  199 1    
   153   77   78 2    
   154   77   79 am   BACKBONE|DICT|INTERRES
   155   79   80 1    
   156   79  200 1    
   157   80   81 1    
   158   80   82 1    
   159   80  201 1    
   160   81  202 1    
   161   81  203 1    
   162   81  204 1    
   163   82   83 2    
   164   82   84 am   BACKBONE|DICT|INTERRES
   165   84   85 1    
   166   84  205 1    
   167   85   86 1    
   168   85   87 1    
   169   85  206 1    
   170   86  207 1    
   171   86  208 1    
   172   86  209 1    
   173   87   88 2    
   174   87   89 am   BACKBONE|DICT|INTERRES
   175   89   90 1    
   176   89  210 1    
   177   90   91 1    
   178   90   92 1    
   179   90  211 1    
   180   91  212 1    
   181   91  213 1    
   182   91  214 1    
   183   92   93 2    
   184   92   94 am   BACKBONE|DICT|INTERRES
   185   94   95 1    
   186   94  215 1    
   187   95   96 1    
   188   95   97 1    
   189   95  216 1    
   190   96  217 1    
   191   96  218 1    
   192   96  219 1    
   193   97   98 2    
   194   97   99 am   BACKBONE|DICT|INTERRES
   195   99  100 1    
   196   99  220 1    
   197  100  101 1    
   198  100  102 1    
   199  100  221 1    
   200  101  222 1    
   201  101  223 1    
   202  101  224 1    
   203  102  103 2    
   204  102  104 am   BACKBONE|DICT|INTERRES
   205  104  105 1    
   206  104  225 1    
   207  105  106 1    
   208  105  107 1    
   209  105  226 1    
   210  106  227 1    
   211  106  228 1    
   212  106  229 1    
   213  107  108 2    
   214  107  109 am   BACKBONE|DICT|INTERRES
   215  109  110 1    
   216  109  230 1    
   217  110  111 1    
   218  110  112 1    
   219  110  231 1    
   220  111  232 1    
   221  111  233 1    
   222  111  234 1    
   223  112  113 2    
   224  112  114 am   BACKBONE|DICT|INTERRES
   225  114  115 1    
   226  114  235 1    
   227  115  116 1    
   228  115  117 1    
   229  115  236 1    
   230  116  237 1    
   231  116  238 1    
   232  116  239 1    
   233  117  118 2    
   234  117  119 am   BACKBONE|DICT|INTERRES
   235  119  120 1    
   236  119  240 1    
   237  120  121 1    
   238  120  124 1    
   239  120  241 1    
   240  121  122 am   BACKBONE|DICT|INTERRES
   241  121  123 2    
   242  122  242 1    
   243  122  243 1    
   244  124  125 1    
   245  124  244 1    
   246  124  245 1    
   247  125  126 1    
   248  126  246 1    
   249  126  247 1    
@<TRIPOS>SUBSTRUCTURE
     1 UNK         1 GROUP             0       ****    0 ROOT    
