@<TRIPOS>MOLECULE
3R540
247   249    1
SMALL
USER_CHARGES


@<TRIPOS>ATOM
      1 CA          4.3804  -10.1221  -52.3728 C.3       0 UNK        -0.1800 
      2 C           4.5440  -11.4330  -51.6164 C.2       0 UNK         0.5000 
      3 O           5.5016  -12.1676  -51.8608 O.2       0 UNK        -0.5000 
      4 N           3.6191  -11.7264  -50.6994 N.am      1 UNK        -0.5000 
      5 CA          3.5928  -12.9294  -49.8703 C.3       1 UNK         0.1400 
      6 C6          3.1361  -14.1991  -50.6395 C.3       23 UNK        -0.0398 
      7 S7          1.5541  -14.0120  -51.5363 S.3       23 UNK        -0.2404 
      8 C8          0.4489  -15.0754  -50.5630 C.3       23 UNK        -0.0205 
      9 C9          0.6401  -16.5486  -50.8825 C.ar      23 UNK        -0.0193 
     10 C10         0.1348  -17.0683  -52.0758 C.ar      23 UNK        -0.1150 
     11 C11         0.2324  -18.4338  -52.3559 C.ar      23 UNK        -0.0193 
     12 C12         0.8588  -19.2808  -51.4369 C.ar      23 UNK        -0.1150 
     13 C13         1.3972  -18.7679  -50.2523 C.ar      23 UNK        -0.0193 
     14 C14         1.2822  -17.4003  -49.9796 C.ar      23 UNK        -0.1150 
     15 C15         2.1353  -19.6814  -49.2837 C.3       23 UNK        -0.0205 
     16 S16         1.3218  -19.7811  -47.6597 S.3       23 UNK        -0.2404 
     17 C17        -0.0557  -20.9308  -47.9847 C.3       23 UNK        -0.0398 
     18 CA          0.1884  -22.3540  -47.4206 C.3       11 UNK         0.1400 
     19 N           0.5622  -22.3532  -46.0011 N.am      11 UNK        -0.5000 
     20 C           0.9675  -23.4330  -45.3167 C.2       10 UNK         0.5000 
     21 O           1.1519  -24.5360  -45.8291 O.2       10 UNK        -0.5000 
     22 CA          1.1235  -23.2720  -43.7946 C.3       10 UNK         0.1400 
     23 CB          2.5229  -22.7558  -43.4271 C.3       10 UNK        -0.1800 
     24 N           0.0938  -22.3890  -43.2433 N.am      10 UNK        -0.5000 
     25 C          -1.1975  -22.7337  -43.1268 C.2       9 UNK         0.5000 
     26 O          -1.6257  -23.8532  -43.4028 O.2       9 UNK        -0.5000 
     27 CA         -2.1858  -21.6429  -42.6760 C.3       9 UNK         0.1400 
     28 CB         -2.3261  -21.6385  -41.1471 C.3       9 UNK        -0.1800 
     29 N          -1.7999  -20.3118  -43.1452 N.am      9 UNK        -0.5000 
     30 C          -1.8699  -19.9199  -44.4272 C.2       8 UNK         0.5000 
     31 O          -2.3172  -20.6296  -45.3291 O.2       8 UNK        -0.5000 
     32 CA         -1.3028  -18.5287  -44.7790 C.3       8 UNK         0.1400 
     33 CB         -2.4168  -17.4746  -44.7543 C.3       8 UNK        -0.1800 
     34 N          -0.2120  -18.0932  -43.9055 N.am      8 UNK        -0.5000 
     35 C           0.9400  -18.7584  -43.7296 C.2       7 UNK         0.5000 
     36 O           1.2178  -19.7980  -44.3246 O.2       7 UNK        -0.5000 
     37 CA          1.9126  -18.2264  -42.6586 C.3       7 UNK         0.1400 
     38 CB          2.9498  -17.2949  -43.3028 C.3       7 UNK        -0.1800 
     39 N           1.2557  -17.5161  -41.5589 N.am      7 UNK        -0.5000 
     40 C           0.2661  -17.9867  -40.7836 C.2       6 UNK         0.5000 
     41 O          -0.1636  -19.1377  -40.8532 O.2       6 UNK        -0.5000 
     42 CA         -0.3938  -16.9906  -39.8065 C.3       6 UNK         0.1400 
     43 CB          0.0822  -17.2529  -38.3699 C.3       6 UNK        -0.1800 
     44 N          -0.1530  -15.5815  -40.1405 N.am      6 UNK        -0.5000 
     45 C          -0.5442  -14.9750  -41.2702 C.2       5 UNK         0.5000 
     46 O          -1.1992  -15.5342  -42.1535 O.2       5 UNK        -0.5000 
     47 CA         -0.0376  -13.5358  -41.4587 C.3       5 UNK         0.1400 
     48 CB          1.4841  -13.5353  -41.6818 C.3       5 UNK        -0.1800 
     49 N          -0.6703  -12.8987  -42.6102 N.am      5 UNK        -0.5000 
     50 C          -1.7758  -12.1455  -42.5540 C.2       4 UNK         0.5000 
     51 O          -2.3816  -11.9046  -41.5084 O.2       4 UNK        -0.5000 
     52 CA         -2.2815  -11.5243  -43.8719 C.3       4 UNK         0.1400 
     53 CB         -2.0140  -10.0106  -43.8872 C.3       4 UNK        -0.1800 
     54 N          -1.6684  -12.1147  -45.0626 N.am      4 UNK        -0.5000 
     55 C          -2.0722  -13.2524  -45.6420 C.2       3 UNK         0.5000 
     56 O          -3.0329  -13.9146  -45.2510 O.2       3 UNK        -0.5000 
     57 CA         -1.2745  -13.7232  -46.8742 C.3       3 UNK         0.1400 
     58 CB         -1.9611  -13.2256  -48.1557 C.3       3 UNK        -0.1800 
     59 N           0.1285  -13.2911  -46.8811 N.am      3 UNK        -0.5000 
     60 C           1.0574  -13.6729  -45.9946 C.2       2 UNK         0.5000 
     61 O           0.8172  -14.4283  -45.0521 O.2       2 UNK        -0.5000 
     62 CA          2.4783  -13.0972  -46.1859 C.3       2 UNK         0.1400 
     63 CB          3.4827  -13.6330  -45.1499 C.3       2 UNK        -0.1800 
     64 N           3.0299  -13.3376  -47.5218 N.am      2 UNK        -0.5000 
     65 C           2.7422  -12.6323  -48.6219 C.2       1 UNK         0.5000 
     66 O           1.8640  -11.7648  -48.6636 O.2       1 UNK        -0.5000 
     67 C          -1.0372  -23.2621  -47.6664 C.2       11 UNK         0.5000 
     68 O          -1.0334  -24.0622  -48.6024 O.2       11 UNK        -0.5000 
     69 N          -2.0476  -23.1606  -46.7889 N.am      12 UNK        -0.5000 
     70 CA         -3.2424  -24.0056  -46.7998 C.3       12 UNK         0.1400 
     71 CB         -4.2834  -23.4491  -45.8188 C.3       12 UNK        -0.1800 
     72 C          -2.9356  -25.4858  -46.5106 C.2       12 UNK         0.5000 
     73 O          -3.4802  -26.3530  -47.1927 O.2       12 UNK        -0.5000 
     74 N          -2.0320  -25.7556  -45.5570 N.am      13 UNK        -0.5000 
     75 CA         -1.5288  -27.0981  -45.2437 C.3       13 UNK         0.1400 
     76 CB         -0.6681  -27.0453  -43.9730 C.3       13 UNK        -0.1800 
     77 C          -0.7444  -27.7375  -46.4079 C.2       13 UNK         0.5000 
     78 O          -0.8108  -28.9532  -46.5905 O.2       13 UNK        -0.5000 
     79 N          -0.0617  -26.9029  -47.2034 N.am      14 UNK        -0.5000 
     80 CA          0.6041  -27.2714  -48.4552 C.3       14 UNK         0.1400 
     81 CB          1.7066  -26.2411  -48.7529 C.3       14 UNK        -0.1800 
     82 C          -0.3649  -27.4154  -49.6522 C.2       14 UNK         0.5000 
     83 O           0.0934  -27.7113  -50.7564 O.2       14 UNK        -0.5000 
     84 N          -1.6720  -27.2151  -49.4209 N.am      15 UNK        -0.5000 
     85 CA         -2.7838  -27.3204  -50.3704 C.3       15 UNK         0.1400 
     86 CB         -2.9071  -28.7537  -50.9303 C.3       15 UNK        -0.1800 
     87 C          -2.7655  -26.2354  -51.4661 C.2       15 UNK         0.5000 
     88 O          -3.2221  -26.4849  -52.5832 O.2       15 UNK        -0.5000 
     89 N          -2.2662  -25.0419  -51.1247 N.am      16 UNK        -0.5000 
     90 CA         -2.2233  -23.8738  -51.9982 C.3       16 UNK         0.1400 
     91 CB         -0.9006  -23.8610  -52.7886 C.3       16 UNK        -0.1800 
     92 C          -2.4308  -22.6193  -51.1399 C.2       16 UNK         0.5000 
     93 O          -1.5276  -21.7891  -51.0448 O.2       16 UNK        -0.5000 
     94 N          -3.5955  -22.5496  -50.4730 N.am      17 UNK        -0.5000 
     95 CA         -3.9907  -21.4934  -49.5338 C.3       17 UNK         0.1400 
     96 CB         -5.4383  -21.7270  -49.0742 C.3       17 UNK        -0.1800 
     97 C          -3.8348  -20.0810  -50.1205 C.2       17 UNK         0.5000 
     98 O          -4.2914  -19.8443  -51.2409 O.2       17 UNK        -0.5000 
     99 N          -3.1844  -19.1996  -49.3474 N.am      18 UNK        -0.5000 
    100 CA        -2.7121  -17.8748  -49.7487 C.3       18 UNK         0.1400 
    101 CB        -2.0670  -17.1813  -48.5393 C.3       18 UNK        -0.1800 
    102 C         -3.8115  -16.9995  -50.3731 C.2       18 UNK         0.5000 
    103 O         -4.7520  -16.6119  -49.6785 O.2       18 UNK        -0.5000 
    104 N         -3.6954  -16.7744  -51.6879 N.am      19 UNK        -0.5000 
    105 CA        -4.6188  -16.1000  -52.6100 C.3       19 UNK         0.1400 
    106 CB        -4.8718  -14.6419  -52.1822 C.3       19 UNK        -0.1800 
    107 C         -5.9461  -16.8488  -52.8622 C.2       19 UNK         0.5000 
    108 O         -6.5079  -16.7223  -53.9507 O.2       19 UNK        -0.5000 
    109 N         -6.4267  -17.6072  -51.8717 N.am      20 UNK        -0.5000 
    110 CA        -7.6920  -18.3340  -51.8850 C.3       20 UNK         0.1400 
    111 CB        -8.0405  -18.7399  -50.4446 C.3       20 UNK        -0.1800 
    112 C         -7.7034  -19.5678  -52.8052 C.2       20 UNK         0.5000 
    113 O         -8.7496  -19.8617  -53.3859 O.2       20 UNK        -0.5000 
    114 N         -6.5730  -20.2804  -52.9097 N.am      21 UNK        -0.5000 
    115 CA        -6.4811  -21.5600  -53.6182 C.3       21 UNK         0.1400 
    116 CB        -6.8313  -22.7151  -52.6598 C.3       21 UNK        -0.1800 
    117 C         -5.1202  -21.7550  -54.3079 C.2       21 UNK         0.5000 
    118 O         -4.6717  -22.8920  -54.4580 O.2       21 UNK        -0.5000 
    119 N         -4.4881  -20.6565  -54.7365 N.am      22 UNK        -0.5000 
    120 CA        -3.2103  -20.6744  -55.4745 C.3       22 UNK         0.1400 
    121 C         -3.3107  -21.1838  -56.9440 C.2       22 UNK         0.5000 
    122 N         -4.4954  -21.3108  -57.5300 N.am      22 UNK        -0.7600 
    123 O         -2.2911  -21.4737  -57.5637 O.2       22 UNK        -0.5000 
    124 C124       -2.4988  -19.3008  -55.4320 C.3       23 UNK        -0.0398 
    125 S125       -2.1367  -18.7621  -53.7313 S.3       23 UNK        -0.2404 
    126 C126       -0.3340  -18.9813  -53.6561 C.3       23 UNK        -0.0205 
    127 H127        4.2941  -10.3146  -53.4422 H         1 UNK         0.0600 
    128 H128        5.2478   -9.4828  -52.2088 H         1 UNK         0.0600 
    129 H129        3.4913   -9.5782  -52.0527 H         1 UNK         0.0600 
    130 H130        2.8568  -11.0880  -50.5065 H         1 UNK         0.3000 
    131 H131        4.6110  -13.1016  -49.5141 H         1 UNK         0.0600 
    132 H132        3.0892  -15.0578  -49.9689 H         1 UNK         0.0800 
    133 H133        3.8941  -14.4590  -51.3792 H         1 UNK         0.0800 
    134 H134        0.5882  -14.8834  -49.4981 H         1 UNK         0.0800 
    135 H135       -0.5808  -14.8020  -50.7958 H         1 UNK         0.0800 
    136 H136       -0.3540  -16.4103  -52.7809 H         1 UNK         0.1150 
    137 H137        0.9351  -20.3383  -51.6488 H         1 UNK         0.1150 
    138 H138        1.6836  -17.0056  -49.0569 H         1 UNK         0.1150 
    139 H139        2.2491  -20.6856  -49.6951 H         1 UNK         0.0800 
    140 H140        3.1451  -19.2939  -49.1426 H         1 UNK         0.0800 
    141 H141       -0.2277  -20.9726  -49.0592 H         1 UNK         0.0800 
    142 H142       -0.9557  -20.4923  -47.5554 H         1 UNK         0.0800 
    143 H143        1.0253  -22.7875  -47.9721 H         1 UNK         0.0600 
    144 H144        0.5066  -21.4652  -45.5156 H         1 UNK         0.3000 
    145 H145        1.0051  -24.2569  -43.3388 H         1 UNK         0.0600 
    146 H146        2.6237  -22.6172  -42.3507 H         1 UNK         0.0600 
    147 H147        3.2881  -23.4687  -43.7363 H         1 UNK         0.0600 
    148 H148        2.7526  -21.8076  -43.9118 H         1 UNK         0.0600 
    149 H149        0.3646  -21.4307  -43.0674 H         1 UNK         0.3000 
    150 H150       -3.1632  -21.8801  -43.1008 H         1 UNK         0.0600 
    151 H151       -2.7168  -22.5929  -40.7920 H         1 UNK         0.0600 
    152 H152       -3.0133  -20.8607  -40.8138 H         1 UNK         0.0600 
    153 H153       -1.3679  -21.4763  -40.6530 H         1 UNK         0.0600 
    154 H154       -1.3736  -19.6976  -42.4599 H         1 UNK         0.3000 
    155 H155       -0.9065  -18.5845  -45.7941 H         1 UNK         0.0600 
    156 H156       -2.8192  -17.3388  -43.7496 H         1 UNK         0.0600 
    157 H157       -2.0480  -16.5084  -45.0978 H         1 UNK         0.0600 
    158 H158       -3.2446  -17.7593  -45.4047 H         1 UNK         0.0600 
    159 H159       -0.3746  -17.2489  -43.3690 H         1 UNK         0.3000 
    160 H160        2.4334  -19.0859  -42.2320 H         1 UNK         0.0600 
    161 H161        3.6974  -16.9710  -42.5786 H         1 UNK         0.0600 
    162 H162        2.4795  -16.4051  -43.7233 H         1 UNK         0.0600 
    163 H163        3.4788  -17.7994  -44.1125 H         1 UNK         0.0600 
    164 H164        1.5349  -16.5570  -41.4219 H         1 UNK         0.3000 
    165 H165       -1.4711  -17.1636  -39.8488 H         1 UNK         0.0600 
    166 H166       -0.4398  -16.6137  -37.6576 H         1 UNK         0.0600 
    167 H167       -0.1094  -18.2862  -38.0771 H         1 UNK         0.0600 
    168 H168        1.1528  -17.0745  -38.2618 H         1 UNK         0.0600 
    169 H169        0.3871  -15.0546  -39.4689 H         1 UNK         0.3000 
    170 H170       -0.2562  -12.9677  -40.5520 H         1 UNK         0.0600 
    171 H171        1.8498  -12.5375  -41.9252 H         1 UNK         0.0600 
    172 H172        1.7677  -14.2056  -42.4931 H         1 UNK         0.0600 
    173 H173        2.0160  -13.8625  -40.7879 H         1 UNK         0.0600 
    174 H174       -0.2949  -13.1478  -43.5159 H         1 UNK         0.3000 
    175 H175       -3.3621  -11.6777  -43.9127 H         1 UNK         0.0600 
    176 H176       -2.4166   -9.5478  -44.7885 H         1 UNK         0.0600 
    177 H177       -0.9468   -9.7897  -43.8431 H         1 UNK         0.0600 
    178 H178       -2.4859   -9.5205  -43.0345 H         1 UNK         0.0600 
    179 H179       -0.8787  -11.6268  -45.4588 H         1 UNK         0.3000 
    180 H180       -1.2842  -14.8144  -46.8730 H         1 UNK         0.0600 
    181 H181       -2.0070  -12.1363  -48.1890 H         1 UNK         0.0600 
    182 H182       -2.9836  -13.6006  -48.2216 H         1 UNK         0.0600 
    183 H183       -1.4375  -13.5601  -49.0478 H         1 UNK         0.0600 
    184 H184        0.4184  -12.6605  -47.6222 H         1 UNK         0.3000 
    185 H185        2.4013  -12.0184  -46.0339 H         1 UNK         0.0600 
    186 H186        3.5841  -14.7173  -45.2086 H         1 UNK         0.0600 
    187 H187        4.4708  -13.1961  -45.2953 H         1 UNK         0.0600 
    188 H188        3.1723  -13.3815  -44.1367 H         1 UNK         0.0600 
    189 H189        3.7400  -14.0536  -47.5752 H         1 UNK         0.3000 
    190 H190       -2.0043  -22.4435  -46.0715 H         1 UNK         0.3000 
    191 H191       -3.6678  -23.9589  -47.8034 H         1 UNK         0.0600 
    192 H192       -4.5292  -22.4122  -46.0491 H         1 UNK         0.0600 
    193 H193       -5.2098  -24.0224  -45.8687 H         1 UNK         0.0600 
    194 H194       -3.9298  -23.4887  -44.7891 H         1 UNK         0.0600 
    195 H195       -1.6829  -24.9938  -44.9830 H         1 UNK         0.3000 
    196 H196       -2.3922  -27.7349  -45.0404 H         1 UNK         0.0600 
    197 H197       -0.3325  -28.0432  -43.6883 H         1 UNK         0.0600 
    198 H198       -1.2292  -26.6387  -43.1315 H         1 UNK         0.0600 
    199 H199        0.2200  -26.4300  -44.1138 H         1 UNK         0.0600 
    200 H200       -0.0083  -25.9250  -46.9408 H         1 UNK         0.3000 
    201 H201        1.0842  -28.2422  -48.3168 H         1 UNK         0.0600 
    202 H202        2.4062  -26.1607  -47.9207 H         1 UNK         0.0600 
    203 H203        1.2946  -25.2498  -48.9390 H         1 UNK         0.0600 
    204 H204        2.2833  -26.5257  -49.6337 H         1 UNK         0.0600 
    205 H205       -1.9483  -26.9527  -48.4823 H         1 UNK         0.3000 
    206 H206       -3.6863  -27.1288  -49.7890 H         1 UNK         0.0600 
    207 H207       -2.9233  -29.4905  -50.1272 H         1 UNK         0.0600 
    208 H208       -3.8314  -28.8735  -51.4965 H         1 UNK         0.0600 
    209 H209       -2.0825  -29.0023  -51.5987 H         1 UNK         0.0600 
    210 H210       -1.8947  -24.8989  -50.1884 H         1 UNK         0.3000 
    211 H211       -3.0496  -23.9108  -52.7087 H         1 UNK         0.0600 
    212 H212       -0.0368  -23.8428  -52.1229 H         1 UNK         0.0600 
    213 H213       -0.8409  -22.9841  -53.4347 H         1 UNK         0.0600 
    214 H214       -0.8139  -24.7413  -53.4255 H         1 UNK         0.0600 
    215 H215       -4.2649  -23.2899  -50.6167 H         1 UNK         0.3000 
    216 H216       -3.3392  -21.5790  -48.6642 H         1 UNK         0.0600 
    217 H217       -5.7182  -21.0122  -48.2994 H         1 UNK         0.0600 
    218 H218       -5.5733  -22.7245  -48.6570 H         1 UNK         0.0600 
    219 H219       -6.1468  -21.6088  -49.8940 H         1 UNK         0.0600 
    220 H220       -2.9152  -19.4884  -48.4201 H         1 UNK         0.3000 
    221 H221       -1.9334  -18.0392  -50.4930 H         1 UNK         0.0600 
    222 H222       -2.7816  -17.0361  -47.7290 H         1 UNK         0.0600 
    223 H223       -1.2252  -17.7566  -48.1539 H         1 UNK         0.0600 
    224 H224       -1.6852  -16.2001  -48.8190 H         1 UNK         0.0600 
    225 H225       -2.9301  -17.2422  -52.1584 H         1 UNK         0.3000 
    226 H226       -4.0988  -16.0726  -53.5688 H         1 UNK         0.0600 
    227 H227       -3.9346  -14.1008  -52.0513 H         1 UNK         0.0600 
    228 H228       -5.4511  -14.1113  -52.9387 H         1 UNK         0.0600 
    229 H229       -5.4289  -14.5811  -51.2470 H         1 UNK         0.0600 
    230 H230       -5.8978  -17.6273  -51.0077 H         1 UNK         0.3000 
    231 H231       -8.4670  -17.6520  -52.2409 H         1 UNK         0.0600 
    232 H232       -7.2729  -19.3826  -50.0125 H         1 UNK         0.0600 
    233 H233       -8.9856  -19.2832  -50.4068 H         1 UNK         0.0600 
    234 H234       -8.1429  -17.8646  -49.8028 H         1 UNK         0.0600 
    235 H235       -5.7456  -19.9925  -52.3872 H         1 UNK         0.3000 
    236 H236       -7.2101  -21.5719  -54.4309 H         1 UNK         0.0600 
    237 H237       -7.7931  -22.5536  -52.1729 H         1 UNK         0.0600 
    238 H238       -6.8976  -23.6628  -53.1954 H         1 UNK         0.0600 
    239 H239       -6.0757  -22.8315  -51.8848 H         1 UNK         0.0600 
    240 H240       -4.9062  -19.7531  -54.5708 H         1 UNK         0.3000 
    241 H241       -2.5569  -21.3862  -54.9654 H         1 UNK         0.0600 
    242 H242       -5.3415  -21.0748  -57.0375 H         1 UNK         0.3800 
    243 H243       -4.5454  -21.6454  -58.4796 H         1 UNK         0.3800 
    244 H244       -1.5674  -19.3279  -56.0005 H         1 UNK         0.0800 
    245 H245       -3.1187  -18.5385  -55.9065 H         1 UNK         0.0800 
    246 H246        0.1361  -18.4616  -54.4921 H         1 UNK         0.0800 
    247 H247       -0.0993  -20.0412  -53.7680 H         1 UNK         0.0800 
@<TRIPOS>BOND
     1    1    2 1    
     2    1  127 1    
     3    1  128 1    
     4    1  129 1    
     5    2    3 2    
     6    2    4 am   BACKBONE|DICT|INTERRES
     7    4    5 1    
     8    4  130 1    
     9    5    6 1    
    10    5   65 1    
    11    5  131 1    
    12    6    7 1    
    13    6  132 1    
    14    6  133 1    
    15    7    8 1    
    16    8    9 1    
    17    8  134 1    
    18    8  135 1    
    19    9   10 ar   
    20    9   14 ar   
    21   10   11 ar   
    22   10  136 1    
    23   11   12 ar   
    24   11  126 1    
    25   12   13 ar   
    26   12  137 1    
    27   13   14 ar   
    28   13   15 1    
    29   14  138 1    
    30   15   16 1    
    31   15  139 1    
    32   15  140 1    
    33   16   17 1    
    34   17   18 1    
    35   17  141 1    
    36   17  142 1    
    37   18   19 1    
    38   18   67 1    
    39   18  143 1    
    40   19   20 am   BACKBONE|DICT|INTERRES
    41   19  144 1    
    42   20   21 2    
    43   20   22 1    
    44   22   23 1    
    45   22   24 1    
    46   22  145 1    
    47   23  146 1    
    48   23  147 1    
    49   23  148 1    
    50   24   25 am   BACKBONE|DICT|INTERRES
    51   24  149 1    
    52   25   26 2    
    53   25   27 1    
    54   27   28 1    
    55   27   29 1    
    56   27  150 1    
    57   28  151 1    
    58   28  152 1    
    59   28  153 1    
    60   29   30 am   BACKBONE|DICT|INTERRES
    61   29  154 1    
    62   30   31 2    
    63   30   32 1    
    64   32   33 1    
    65   32   34 1    
    66   32  155 1    
    67   33  156 1    
    68   33  157 1    
    69   33  158 1    
    70   34   35 am   BACKBONE|DICT|INTERRES
    71   34  159 1    
    72   35   36 2    
    73   35   37 1    
    74   37   38 1    
    75   37   39 1    
    76   37  160 1    
    77   38  161 1    
    78   38  162 1    
    79   38  163 1    
    80   39   40 am   BACKBONE|DICT|INTERRES
    81   39  164 1    
    82   40   41 2    
    83   40   42 1    
    84   42   43 1    
    85   42   44 1    
    86   42  165 1    
    87   43  166 1    
    88   43  167 1    
    89   43  168 1    
    90   44   45 am   BACKBONE|DICT|INTERRES
    91   44  169 1    
    92   45   46 2    
    93   45   47 1    
    94   47   48 1    
    95   47   49 1    
    96   47  170 1    
    97   48  171 1    
    98   48  172 1    
    99   48  173 1    
   100   49   50 am   BACKBONE|DICT|INTERRES
   101   49  174 1    
   102   50   51 2    
   103   50   52 1    
   104   52   53 1    
   105   52   54 1    
   106   52  175 1    
   107   53  176 1    
   108   53  177 1    
   109   53  178 1    
   110   54   55 am   BACKBONE|DICT|INTERRES
   111   54  179 1    
   112   55   56 2    
   113   55   57 1    
   114   57   58 1    
   115   57   59 1    
   116   57  180 1    
   117   58  181 1    
   118   58  182 1    
   119   58  183 1    
   120   59   60 am   BACKBONE|DICT|INTERRES
   121   59  184 1    
   122   60   61 2    
   123   60   62 1    
   124   62   63 1    
   125   62   64 1    
   126   62  185 1    
   127   63  186 1    
   128   63  187 1    
   129   63  188 1    
   130   64   65 am   BACKBONE|DICT|INTERRES
   131   64  189 1    
   132   65   66 2    
   133   67   68 2    
   134   67   69 am   BACKBONE|DICT|INTERRES
   135   69   70 1    
   136   69  190 1    
   137   70   71 1    
   138   70   72 1    
   139   70  191 1    
   140   71  192 1    
   141   71  193 1    
   142   71  194 1    
   143   72   73 2    
   144   72   74 am   BACKBONE|DICT|INTERRES
   145   74   75 1    
   146   74  195 1    
   147   75   76 1    
   148   75   77 1    
   149   75  196 1    
   150   76  197 1    
   151   76  198 1    
   152   76  199 1    
   153   77   78 2    
   154   77   79 am   BACKBONE|DICT|INTERRES
   155   79   80 1    
   156   79  200 1    
   157   80   81 1    
   158   80   82 1    
   159   80  201 1    
   160   81  202 1    
   161   81  203 1    
   162   81  204 1    
   163   82   83 2    
   164   82   84 am   BACKBONE|DICT|INTERRES
   165   84   85 1    
   166   84  205 1    
   167   85   86 1    
   168   85   87 1    
   169   85  206 1    
   170   86  207 1    
   171   86  208 1    
   172   86  209 1    
   173   87   88 2    
   174   87   89 am   BACKBONE|DICT|INTERRES
   175   89   90 1    
   176   89  210 1    
   177   90   91 1    
   178   90   92 1    
   179   90  211 1    
   180   91  212 1    
   181   91  213 1    
   182   91  214 1    
   183   92   93 2    
   184   92   94 am   BACKBONE|DICT|INTERRES
   185   94   95 1    
   186   94  215 1    
   187   95   96 1    
   188   95   97 1    
   189   95  216 1    
   190   96  217 1    
   191   96  218 1    
   192   96  219 1    
   193   97   98 2    
   194   97   99 am   BACKBONE|DICT|INTERRES
   195   99  100 1    
   196   99  220 1    
   197  100  101 1    
   198  100  102 1    
   199  100  221 1    
   200  101  222 1    
   201  101  223 1    
   202  101  224 1    
   203  102  103 2    
   204  102  104 am   BACKBONE|DICT|INTERRES
   205  104  105 1    
   206  104  225 1    
   207  105  106 1    
   208  105  107 1    
   209  105  226 1    
   210  106  227 1    
   211  106  228 1    
   212  106  229 1    
   213  107  108 2    
   214  107  109 am   BACKBONE|DICT|INTERRES
   215  109  110 1    
   216  109  230 1    
   217  110  111 1    
   218  110  112 1    
   219  110  231 1    
   220  111  232 1    
   221  111  233 1    
   222  111  234 1    
   223  112  113 2    
   224  112  114 am   BACKBONE|DICT|INTERRES
   225  114  115 1    
   226  114  235 1    
   227  115  116 1    
   228  115  117 1    
   229  115  236 1    
   230  116  237 1    
   231  116  238 1    
   232  116  239 1    
   233  117  118 2    
   234  117  119 am   BACKBONE|DICT|INTERRES
   235  119  120 1    
   236  119  240 1    
   237  120  121 1    
   238  120  124 1    
   239  120  241 1    
   240  121  122 am   BACKBONE|DICT|INTERRES
   241  121  123 2    
   242  122  242 1    
   243  122  243 1    
   244  124  125 1    
   245  124  244 1    
   246  124  245 1    
   247  125  126 1    
   248  126  246 1    
   249  126  247 1    
@<TRIPOS>SUBSTRUCTURE
     1 UNK         1 GROUP             0       ****    0 ROOT    
