@<TRIPOS>MOLECULE
3R540
247   249    1
SMALL
USER_CHARGES


@<TRIPOS>ATOM
      1 CA         -1.4153  -11.3304  -44.4933 C.3       0 UNK        -0.1800 
      2 C          -1.9664  -11.6993  -45.8639 C.2       0 UNK         0.5000 
      3 O          -3.1368  -11.4425  -46.1471 O.2       0 UNK        -0.5000 
      4 N          -1.1277  -12.3039  -46.7068 N.am      1 UNK        -0.5000 
      5 CA         -1.4375  -12.7490  -48.0620 C.3       1 UNK         0.1400 
      6 C6         -1.9861  -14.2004  -48.0495 C.3       23 UNK        -0.0398 
      7 S7         -2.8668  -14.6418  -49.5809 S.3       23 UNK        -0.2404 
      8 C8         -2.8999  -16.4546  -49.4511 C.3       23 UNK        -0.0205 
      9 C9         -1.5936  -17.0874  -49.9074 C.ar      23 UNK        -0.0193 
     10 C10        -1.3665  -17.2908  -51.2697 C.ar      23 UNK        -0.1150 
     11 C11        -0.1805  -17.8777  -51.7215 C.ar      23 UNK        -0.0193 
     12 C12         0.7678  -18.2963  -50.7834 C.ar      23 UNK        -0.1150 
     13 C13         0.5473  -18.1186  -49.4153 C.ar      23 UNK        -0.0193 
     14 C14        -0.6310  -17.5007  -48.9819 C.ar      23 UNK        -0.1150 
     15 C15         1.5739  -18.6226  -48.4099 C.3       23 UNK        -0.0205 
     16 S16         1.5029  -20.4338  -48.2128 S.3       23 UNK        -0.2404 
     17 C17        -0.2405  -20.6443  -47.7352 C.3       23 UNK        -0.0398 
     18 CA         -0.5289  -21.9546  -46.9721 C.3       11 UNK         0.1400 
     19 N           0.1046  -22.0052  -45.6484 N.am      11 UNK        -0.5000 
     20 C           0.0877  -23.0820  -44.8476 C.2       10 UNK         0.5000 
     21 O          -0.4335  -24.1537  -45.1556 O.2       10 UNK        -0.5000 
     22 CA          0.7021  -22.9285  -43.4461 C.3       10 UNK         0.1400 
     23 CB          2.2347  -23.0062  -43.5069 C.3       10 UNK        -0.1800 
     24 N           0.2833  -21.6962  -42.7769 N.am      10 UNK        -0.5000 
     25 C          -0.9828  -21.4066  -42.4419 C.2       9 UNK         0.5000 
     26 O          -1.9285  -22.1695  -42.6309 O.2       9 UNK        -0.5000 
     27 CA         -1.2538  -20.0148  -41.8421 C.3       9 UNK         0.1400 
     28 CB         -0.9134  -19.9847  -40.3454 C.3       9 UNK        -0.1800 
     29 N          -0.5303  -18.9506  -42.5365 N.am      9 UNK        -0.5000 
     30 C          -0.6969  -18.6375  -43.8298 C.2       8 UNK         0.5000 
     31 O          -1.5148  -19.1819  -44.5726 O.2       8 UNK        -0.5000 
     32 CA          0.2593  -17.5781  -44.4027 C.3       8 UNK         0.1400 
     33 CB         -0.2172  -16.1603  -44.0569 C.3       8 UNK        -0.1800 
     34 N           1.6372  -17.7781  -43.9453 N.am      8 UNK        -0.5000 
     35 C           2.3763  -18.8530  -44.2584 C.2       7 UNK         0.5000 
     36 O           1.9905  -19.7477  -45.0089 O.2       7 UNK        -0.5000 
     37 CA          3.7448  -18.9848  -43.5690 C.3       7 UNK         0.1400 
     38 CB          4.8140  -18.1454  -44.2794 C.3       7 UNK        -0.1800 
     39 N           3.6834  -18.6172  -42.1547 N.am      7 UNK        -0.5000 
     40 C           3.0800  -19.3668  -41.2214 C.2       6 UNK         0.5000 
     41 O           2.5441  -20.4471  -41.4615 O.2       6 UNK        -0.5000 
     42 CA          3.0348  -18.8146  -39.7853 C.3       6 UNK         0.1400 
     43 CB          4.2547  -19.2970  -38.9868 C.3       6 UNK        -0.1800 
     44 N           2.9591  -17.3558  -39.7116 N.am      6 UNK        -0.5000 
     45 C           1.9753  -16.6008  -40.2184 C.2       5 UNK         0.5000 
     46 O           1.0155  -17.0606  -40.8412 O.2       5 UNK        -0.5000 
     47 CA          2.0801  -15.0746  -40.0083 C.3       5 UNK         0.1400 
     48 CB          3.3314  -14.6277  -39.2179 C.3       5 UNK        -0.1800 
     49 N           1.9957  -14.3242  -41.2647 N.am      5 UNK        -0.5000 
     50 C           2.7606  -14.4798  -42.3540 C.2       4 UNK         0.5000 
     51 O           3.6209  -15.3551  -42.4833 O.2       4 UNK        -0.5000 
     52 CA          2.5236  -13.4640  -43.4796 C.3       4 UNK         0.1400 
     53 CB          3.1327  -12.0967  -43.1265 C.3       4 UNK        -0.1800 
     54 N           3.1198  -13.9403  -44.7267 N.am      4 UNK        -0.5000 
     55 C           2.5205  -13.8784  -45.9186 C.2       3 UNK         0.5000 
     56 O           1.3890  -13.4115  -46.0774 O.2       3 UNK        -0.5000 
     57 CA          3.2977  -14.4286  -47.1301 C.3       3 UNK         0.1400 
     58 CB          3.7174  -15.8931  -46.9257 C.3       3 UNK        -0.1800 
     59 N           2.4280  -14.3427  -48.2976 N.am      3 UNK        -0.5000 
     60 C           2.7144  -13.7617  -49.4675 C.2       2 UNK         0.5000 
     61 O           3.8412  -13.3865  -49.7934 O.2       2 UNK        -0.5000 
     62 CA          1.5235  -13.5346  -50.4253 C.3       2 UNK         0.1400 
     63 CB          1.4878  -14.6203  -51.5084 C.3       2 UNK        -0.1800 
     64 N           0.2334  -13.5135  -49.7244 N.am      2 UNK        -0.5000 
     65 C          -0.1680  -12.5236  -48.9131 C.2       1 UNK         0.5000 
     66 O           0.4516  -11.4630  -48.7969 O.2       1 UNK        -0.5000 
     67 C          -2.0538  -22.1722  -46.9013 C.2       11 UNK         0.5000 
     68 O          -2.6057  -22.8429  -47.7748 O.2       11 UNK        -0.5000 
     69 N          -2.7044  -21.6080  -45.8747 N.am      12 UNK        -0.5000 
     70 CA         -4.1304  -21.7856  -45.6106 C.3       12 UNK         0.1400 
     71 CB         -4.5981  -20.7517  -44.5755 C.3       12 UNK        -0.1800 
     72 C          -4.4640  -23.2188  -45.1593 C.2       12 UNK         0.5000 
     73 O          -5.4014  -23.8140  -45.6901 O.2       12 UNK        -0.5000 
     74 N          -3.6763  -23.7586  -44.2179 N.am      13 UNK        -0.5000 
     75 CA         -3.8261  -25.1080  -43.6662 C.3       13 UNK         0.1400 
     76 CB         -2.8762  -25.2830  -42.4717 C.3       13 UNK        -0.1800 
     77 C          -3.5967  -26.2201  -44.7050 C.2       13 UNK         0.5000 
     78 O          -4.3352  -27.2056  -44.7136 O.2       13 UNK        -0.5000 
     79 N          -2.5995  -26.0303  -45.5793 N.am      14 UNK        -0.5000 
     80 CA         -2.2950  -26.9236  -46.6994 C.3       14 UNK         0.1400 
     81 CB         -0.8638  -26.6368  -47.1821 C.3       14 UNK        -0.1800 
     82 C          -3.2833  -26.7876  -47.8755 C.2       14 UNK         0.5000 
     83 O          -3.2685  -27.6336  -48.7697 O.2       14 UNK        -0.5000 
     84 N          -4.0811  -25.7082  -47.8768 N.am      15 UNK        -0.5000 
     85 CA         -4.9919  -25.2521  -48.9341 C.3       15 UNK         0.1400 
     86 CB         -6.0955  -26.2897  -49.2213 C.3       15 UNK        -0.1800 
     87 C          -4.2678  -24.7896  -50.2164 C.2       15 UNK         0.5000 
     88 O          -4.9179  -24.5707  -51.2389 O.2       15 UNK        -0.5000 
     89 N          -2.9446  -24.5936  -50.1307 N.am      16 UNK        -0.5000 
     90 CA         -2.0790  -24.0843  -51.1927 C.3       16 UNK         0.1400 
     91 CB         -0.6169  -24.1530  -50.7277 C.3       16 UNK        -0.1800 
     92 C          -2.4472  -22.6506  -51.6064 C.2       16 UNK         0.5000 
     93 O          -2.3814  -22.3267  -52.7916 O.2       16 UNK        -0.5000 
     94 N          -2.8828  -21.8458  -50.6254 N.am      17 UNK        -0.5000 
     95 CA         -3.4153  -20.4966  -50.8116 C.3       17 UNK         0.1400 
     96 CB         -3.8052  -19.9171  -49.4408 C.3       17 UNK        -0.1800 
     97 C          -4.6225  -20.4663  -51.7655 C.2       17 UNK         0.5000 
     98 O          -4.6351  -19.6823  -52.7147 O.2       17 UNK        -0.5000 
     99 N          -5.5946  -21.3486  -51.4982 N.am      18 UNK        -0.5000 
    100 CA        -6.8267  -21.4966  -52.2696 C.3       18 UNK         0.1400 
    101 CB        -7.8509  -22.2774  -51.4315 C.3       18 UNK        -0.1800 
    102 C         -6.6023  -22.1842  -53.6267 C.2       18 UNK         0.5000 
    103 O         -7.2712  -21.8310  -54.5980 O.2       18 UNK        -0.5000 
    104 N         -5.6762  -23.1521  -53.6719 N.am      19 UNK        -0.5000 
    105 CA        -5.3066  -23.8833  -54.8830 C.3       19 UNK         0.1400 
    106 CB        -4.4320  -25.0899  -54.5110 C.3       19 UNK        -0.1800 
    107 C         -4.5955  -22.9931  -55.9171 C.2       19 UNK         0.5000 
    108 O         -4.9054  -23.0828  -57.1060 O.2       19 UNK        -0.5000 
    109 N         -3.6615  -22.1540  -55.4491 N.am      20 UNK        -0.5000 
    110 CA        -2.9193  -21.2117  -56.2818 C.3       20 UNK         0.1400 
    111 CB        -1.6293  -20.8009  -55.5592 C.3       20 UNK        -0.1800 
    112 C         -3.7702  -19.9850  -56.6534 C.2       20 UNK         0.5000 
    113 O         -3.9379  -19.7160  -57.8425 O.2       20 UNK        -0.5000 
    114 N         -4.2808  -19.2873  -55.6245 N.am      21 UNK        -0.5000 
    115 CA        -5.1287  -18.0879  -55.6481 C.3       21 UNK         0.1400 
    116 CB        -6.5985  -18.5235  -55.8025 C.3       21 UNK        -0.1800 
    117 C         -4.7277  -17.0215  -56.7027 C.2       21 UNK         0.5000 
    118 O         -5.3679  -16.9561  -57.7531 O.2       21 UNK        -0.5000 
    119 N         -3.6887  -16.1944  -56.5054 N.am      22 UNK        -0.5000 
    120 CA        -2.8703  -15.9289  -55.3083 C.3       22 UNK         0.1400 
    121 C         -3.6327  -15.2239  -54.1468 C.2       22 UNK         0.5000 
    122 N         -2.9206  -14.7481  -53.1365 N.am      22 UNK        -0.7600 
    123 O         -4.8535  -15.0862  -54.1546 O.2       22 UNK        -0.5000 
    124 C124       -2.0189  -17.1474  -54.8525 C.3       23 UNK        -0.0398 
    125 S125       -0.3558  -16.6743  -54.2627 S.3       23 UNK        -0.2404 
    126 C126        0.0882  -18.0965  -53.2072 C.3       23 UNK        -0.0205 
    127 H127       -0.3607  -11.5921  -44.3985 H         1 UNK         0.0600 
    128 H128       -1.5156  -10.2584  -44.3237 H         1 UNK         0.0600 
    129 H129       -1.9673  -11.8546  -43.7131 H         1 UNK         0.0600 
    130 H130       -0.1676  -12.4911  -46.4194 H         1 UNK         0.3000 
    131 H131       -2.2004  -12.0885  -48.4797 H         1 UNK         0.0600 
    132 H132       -2.7078  -14.3119  -47.2389 H         1 UNK         0.0800 
    133 H133       -1.1937  -14.9178  -47.8339 H         1 UNK         0.0800 
    134 H134       -3.7136  -16.8193  -50.0790 H         1 UNK         0.0800 
    135 H135       -3.1435  -16.7541  -48.4305 H         1 UNK         0.0800 
    136 H136       -2.1244  -16.9902  -51.9746 H         1 UNK         0.1150 
    137 H137        1.6790  -18.7745  -51.1146 H         1 UNK         0.1150 
    138 H138       -0.8106  -17.3658  -47.9249 H         1 UNK         0.1150 
    139 H139        2.5753  -18.3388  -48.7360 H         1 UNK         0.0800 
    140 H140        1.4247  -18.1532  -47.4384 H         1 UNK         0.0800 
    141 H141       -0.5575  -19.7875  -47.1383 H         1 UNK         0.0800 
    142 H142       -0.8122  -20.6085  -48.6641 H         1 UNK         0.0800 
    143 H143       -0.1190  -22.7824  -47.5539 H         1 UNK         0.0600 
    144 H144        0.5970  -21.1698  -45.3453 H         1 UNK         0.3000 
    145 H145        0.3501  -23.7658  -42.8402 H         1 UNK         0.0600 
    146 H146        2.6613  -22.1713  -44.0622 H         1 UNK         0.0600 
    147 H147        2.6690  -23.0005  -42.5072 H         1 UNK         0.0600 
    148 H148        2.5594  -23.9255  -43.9959 H         1 UNK         0.0600 
    149 H149        1.0201  -21.0421  -42.5319 H         1 UNK         0.3000 
    150 H150       -2.3208  -19.8094  -41.9500 H         1 UNK         0.0600 
    151 H151       -1.1243  -19.0073  -39.9108 H         1 UNK         0.0600 
    152 H152        0.1368  -20.2119  -40.1665 H         1 UNK         0.0600 
    153 H153       -1.5044  -20.7201  -39.7982 H         1 UNK         0.0600 
    154 H154        0.1409  -18.4187  -41.9904 H         1 UNK         0.3000 
    155 H155        0.2445  -17.6784  -45.4888 H         1 UNK         0.0600 
    156 H156       -0.1833  -15.9680  -42.9845 H         1 UNK         0.0600 
    157 H157       -1.2452  -16.0033  -44.3861 H         1 UNK         0.0600 
    158 H158        0.3948  -15.4110  -44.5534 H         1 UNK         0.0600 
    159 H159        2.0055  -17.1166  -43.2760 H         1 UNK         0.3000 
    160 H160        4.0473  -20.0320  -43.6384 H         1 UNK         0.0600 
    161 H161        4.6131  -17.0792  -44.1884 H         1 UNK         0.0600 
    162 H162        4.8586  -18.3869  -45.3422 H         1 UNK         0.0600 
    163 H163        5.8027  -18.3343  -43.8612 H         1 UNK         0.0600 
    164 H164        4.0576  -17.7138  -41.8961 H         1 UNK         0.3000 
    165 H165        2.1382  -19.2136  -39.3078 H         1 UNK         0.0600 
    166 H166        5.1855  -18.9018  -39.3957 H         1 UNK         0.0600 
    167 H167        4.1893  -18.9918  -37.9423 H         1 UNK         0.0600 
    168 H168        4.3255  -20.3855  -39.0017 H         1 UNK         0.0600 
    169 H169        3.7162  -16.8913  -39.2319 H         1 UNK         0.3000 
    170 H170        1.2035  -14.7946  -39.4225 H         1 UNK         0.0600 
    171 H171        3.3653  -15.0894  -38.2302 H         1 UNK         0.0600 
    172 H172        4.2569  -14.8754  -39.7394 H         1 UNK         0.0600 
    173 H173        3.3246  -13.5490  -39.0608 H         1 UNK         0.0600 
    174 H174        1.2932  -13.5985  -41.2776 H         1 UNK         0.3000 
    175 H175        1.4430  -13.3508  -43.5887 H         1 UNK         0.0600 
    176 H176        4.2125  -12.1625  -42.9877 H         1 UNK         0.0600 
    177 H177        2.9405  -11.3672  -43.9136 H         1 UNK         0.0600 
    178 H178        2.7060  -11.6975  -42.2057 H         1 UNK         0.0600 
    179 H179        4.0138  -14.4017  -44.6263 H         1 UNK         0.3000 
    180 H180        4.1859  -13.8097  -47.2713 H         1 UNK         0.0600 
    181 H181        4.5417  -15.9586  -46.2171 H         1 UNK         0.0600 
    182 H182        2.8976  -16.5018  -46.5435 H         1 UNK         0.0600 
    183 H183        4.0640  -16.3410  -47.8572 H         1 UNK         0.0600 
    184 H184        1.4562  -14.5333  -48.1028 H         1 UNK         0.3000 
    185 H185        1.6675  -12.5690  -50.9145 H         1 UNK         0.0600 
    186 H186        0.6503  -14.4758  -52.1908 H         1 UNK         0.0600 
    187 H187        2.4007  -14.6087  -52.1048 H         1 UNK         0.0600 
    188 H188        1.3983  -15.6121  -51.0689 H         1 UNK         0.0600 
    189 H189       -0.3490  -14.3343  -49.8219 H         1 UNK         0.3000 
    190 H190       -2.1895  -21.0188  -45.2285 H         1 UNK         0.3000 
    191 H191       -4.6720  -21.5960  -46.5396 H         1 UNK         0.0600 
    192 H192       -5.6676  -20.8473  -44.3844 H         1 UNK         0.0600 
    193 H193       -4.4192  -19.7356  -44.9276 H         1 UNK         0.0600 
    194 H194       -4.0822  -20.8688  -43.6226 H         1 UNK         0.0600 
    195 H195       -2.9454  -23.1839  -43.8037 H         1 UNK         0.3000 
    196 H196       -4.8506  -25.2041  -43.3012 H         1 UNK         0.0600 
    197 H197       -2.9731  -26.2780  -42.0356 H         1 UNK         0.0600 
    198 H198       -3.0955  -24.5608  -41.6852 H         1 UNK         0.0600 
    199 H199       -1.8341  -25.1514  -42.7653 H         1 UNK         0.0600 
    200 H200       -1.9904  -25.2235  -45.4642 H         1 UNK         0.3000 
    201 H201       -2.3390  -27.9562  -46.3473 H         1 UNK         0.0600 
    202 H202       -0.1414  -26.7764  -46.3777 H         1 UNK         0.0600 
    203 H203       -0.7610  -25.6147  -47.5495 H         1 UNK         0.0600 
    204 H204       -0.5793  -27.3081  -47.9934 H         1 UNK         0.0600 
    205 H205       -4.0120  -25.0832  -47.0840 H         1 UNK         0.3000 
    206 H206       -5.4790  -24.3614  -48.5350 H         1 UNK         0.0600 
    207 H207       -6.5920  -26.6013  -48.3023 H         1 UNK         0.0600 
    208 H208       -6.8607  -25.8729  -49.8773 H         1 UNK         0.0600 
    209 H209       -5.7007  -27.1803  -49.7105 H         1 UNK         0.0600 
    210 H210       -2.5211  -24.7123  -49.2217 H         1 UNK         0.3000 
    211 H211       -2.1964  -24.7314  -52.0631 H         1 UNK         0.0600 
    212 H212        0.0581  -23.8137  -51.5145 H         1 UNK         0.0600 
    213 H213       -0.3313  -25.1735  -50.4717 H         1 UNK         0.0600 
    214 H214       -0.4421  -23.5258  -49.8533 H         1 UNK         0.0600 
    215 H215       -2.8996  -22.2192  -49.6822 H         1 UNK         0.3000 
    216 H216       -2.6293  -19.8772  -51.2469 H         1 UNK         0.0600 
    217 H217       -4.3686  -18.9908  -49.5491 H         1 UNK         0.0600 
    218 H218       -2.9275  -19.6910  -48.8380 H         1 UNK         0.0600 
    219 H219       -4.4309  -20.6068  -48.8735 H         1 UNK         0.0600 
    220 H220       -5.4674  -21.9860  -50.7270 H         1 UNK         0.3000 
    221 H221       -7.2316  -20.5010  -52.4640 H         1 UNK         0.0600 
    222 H222       -7.4935  -23.2790  -51.1881 H         1 UNK         0.0600 
    223 H223       -8.0701  -21.7624  -50.4960 H         1 UNK         0.0600 
    224 H224       -8.7930  -22.3871  -51.9701 H         1 UNK         0.0600 
    225 H225       -5.2287  -23.4433  -52.8082 H         1 UNK         0.3000 
    226 H226       -6.2237  -24.2603  -55.3405 H         1 UNK         0.0600 
    227 H227       -4.1791  -25.6757  -55.3955 H         1 UNK         0.0600 
    228 H228       -3.4971  -24.7790  -54.0454 H         1 UNK         0.0600 
    229 H229       -4.9483  -25.7537  -53.8174 H         1 UNK         0.0600 
    230 H230       -3.4316  -22.1682  -54.4597 H         1 UNK         0.3000 
    231 H231       -2.6320  -21.7148  -57.2078 H         1 UNK         0.0600 
    232 H232       -1.0545  -20.0861  -56.1489 H         1 UNK         0.0600 
    233 H233       -0.9887  -21.6641  -55.3779 H         1 UNK         0.0600 
    234 H234       -1.8491  -20.3447  -54.5950 H         1 UNK         0.0600 
    235 H235       -4.1086  -19.6384  -54.6883 H         1 UNK         0.3000 
    236 H236       -5.0429  -17.6357  -54.6621 H         1 UNK         0.0600 
    237 H237       -6.7581  -19.0924  -56.7192 H         1 UNK         0.0600 
    238 H238       -6.9095  -19.1464  -54.9643 H         1 UNK         0.0600 
    239 H239       -7.2643  -17.6600  -55.8266 H         1 UNK         0.0600 
    240 H240       -3.4952  -15.5512  -57.2585 H         1 UNK         0.3000 
    241 H241       -2.1793  -15.1677  -55.6730 H         1 UNK         0.0600 
    242 H242       -3.3934  -14.2901  -52.3731 H         1 UNK         0.3800 
    243 H243       -1.9169  -14.8416  -53.1179 H         1 UNK         0.3800 
    244 H244       -2.5385  -17.7372  -54.0965 H         1 UNK         0.0800 
    245 H245       -1.8524  -17.8151  -55.6972 H         1 UNK         0.0800 
    246 H246        1.1495  -18.2949  -53.3636 H         1 UNK         0.0800 
    247 H247       -0.4347  -18.9928  -53.5330 H         1 UNK         0.0800 
@<TRIPOS>BOND
     1    1    2 1    
     2    1  127 1    
     3    1  128 1    
     4    1  129 1    
     5    2    3 2    
     6    2    4 am   BACKBONE|DICT|INTERRES
     7    4    5 1    
     8    4  130 1    
     9    5    6 1    
    10    5   65 1    
    11    5  131 1    
    12    6    7 1    
    13    6  132 1    
    14    6  133 1    
    15    7    8 1    
    16    8    9 1    
    17    8  134 1    
    18    8  135 1    
    19    9   10 ar   
    20    9   14 ar   
    21   10   11 ar   
    22   10  136 1    
    23   11   12 ar   
    24   11  126 1    
    25   12   13 ar   
    26   12  137 1    
    27   13   14 ar   
    28   13   15 1    
    29   14  138 1    
    30   15   16 1    
    31   15  139 1    
    32   15  140 1    
    33   16   17 1    
    34   17   18 1    
    35   17  141 1    
    36   17  142 1    
    37   18   19 1    
    38   18   67 1    
    39   18  143 1    
    40   19   20 am   BACKBONE|DICT|INTERRES
    41   19  144 1    
    42   20   21 2    
    43   20   22 1    
    44   22   23 1    
    45   22   24 1    
    46   22  145 1    
    47   23  146 1    
    48   23  147 1    
    49   23  148 1    
    50   24   25 am   BACKBONE|DICT|INTERRES
    51   24  149 1    
    52   25   26 2    
    53   25   27 1    
    54   27   28 1    
    55   27   29 1    
    56   27  150 1    
    57   28  151 1    
    58   28  152 1    
    59   28  153 1    
    60   29   30 am   BACKBONE|DICT|INTERRES
    61   29  154 1    
    62   30   31 2    
    63   30   32 1    
    64   32   33 1    
    65   32   34 1    
    66   32  155 1    
    67   33  156 1    
    68   33  157 1    
    69   33  158 1    
    70   34   35 am   BACKBONE|DICT|INTERRES
    71   34  159 1    
    72   35   36 2    
    73   35   37 1    
    74   37   38 1    
    75   37   39 1    
    76   37  160 1    
    77   38  161 1    
    78   38  162 1    
    79   38  163 1    
    80   39   40 am   BACKBONE|DICT|INTERRES
    81   39  164 1    
    82   40   41 2    
    83   40   42 1    
    84   42   43 1    
    85   42   44 1    
    86   42  165 1    
    87   43  166 1    
    88   43  167 1    
    89   43  168 1    
    90   44   45 am   BACKBONE|DICT|INTERRES
    91   44  169 1    
    92   45   46 2    
    93   45   47 1    
    94   47   48 1    
    95   47   49 1    
    96   47  170 1    
    97   48  171 1    
    98   48  172 1    
    99   48  173 1    
   100   49   50 am   BACKBONE|DICT|INTERRES
   101   49  174 1    
   102   50   51 2    
   103   50   52 1    
   104   52   53 1    
   105   52   54 1    
   106   52  175 1    
   107   53  176 1    
   108   53  177 1    
   109   53  178 1    
   110   54   55 am   BACKBONE|DICT|INTERRES
   111   54  179 1    
   112   55   56 2    
   113   55   57 1    
   114   57   58 1    
   115   57   59 1    
   116   57  180 1    
   117   58  181 1    
   118   58  182 1    
   119   58  183 1    
   120   59   60 am   BACKBONE|DICT|INTERRES
   121   59  184 1    
   122   60   61 2    
   123   60   62 1    
   124   62   63 1    
   125   62   64 1    
   126   62  185 1    
   127   63  186 1    
   128   63  187 1    
   129   63  188 1    
   130   64   65 am   BACKBONE|DICT|INTERRES
   131   64  189 1    
   132   65   66 2    
   133   67   68 2    
   134   67   69 am   BACKBONE|DICT|INTERRES
   135   69   70 1    
   136   69  190 1    
   137   70   71 1    
   138   70   72 1    
   139   70  191 1    
   140   71  192 1    
   141   71  193 1    
   142   71  194 1    
   143   72   73 2    
   144   72   74 am   BACKBONE|DICT|INTERRES
   145   74   75 1    
   146   74  195 1    
   147   75   76 1    
   148   75   77 1    
   149   75  196 1    
   150   76  197 1    
   151   76  198 1    
   152   76  199 1    
   153   77   78 2    
   154   77   79 am   BACKBONE|DICT|INTERRES
   155   79   80 1    
   156   79  200 1    
   157   80   81 1    
   158   80   82 1    
   159   80  201 1    
   160   81  202 1    
   161   81  203 1    
   162   81  204 1    
   163   82   83 2    
   164   82   84 am   BACKBONE|DICT|INTERRES
   165   84   85 1    
   166   84  205 1    
   167   85   86 1    
   168   85   87 1    
   169   85  206 1    
   170   86  207 1    
   171   86  208 1    
   172   86  209 1    
   173   87   88 2    
   174   87   89 am   BACKBONE|DICT|INTERRES
   175   89   90 1    
   176   89  210 1    
   177   90   91 1    
   178   90   92 1    
   179   90  211 1    
   180   91  212 1    
   181   91  213 1    
   182   91  214 1    
   183   92   93 2    
   184   92   94 am   BACKBONE|DICT|INTERRES
   185   94   95 1    
   186   94  215 1    
   187   95   96 1    
   188   95   97 1    
   189   95  216 1    
   190   96  217 1    
   191   96  218 1    
   192   96  219 1    
   193   97   98 2    
   194   97   99 am   BACKBONE|DICT|INTERRES
   195   99  100 1    
   196   99  220 1    
   197  100  101 1    
   198  100  102 1    
   199  100  221 1    
   200  101  222 1    
   201  101  223 1    
   202  101  224 1    
   203  102  103 2    
   204  102  104 am   BACKBONE|DICT|INTERRES
   205  104  105 1    
   206  104  225 1    
   207  105  106 1    
   208  105  107 1    
   209  105  226 1    
   210  106  227 1    
   211  106  228 1    
   212  106  229 1    
   213  107  108 2    
   214  107  109 am   BACKBONE|DICT|INTERRES
   215  109  110 1    
   216  109  230 1    
   217  110  111 1    
   218  110  112 1    
   219  110  231 1    
   220  111  232 1    
   221  111  233 1    
   222  111  234 1    
   223  112  113 2    
   224  112  114 am   BACKBONE|DICT|INTERRES
   225  114  115 1    
   226  114  235 1    
   227  115  116 1    
   228  115  117 1    
   229  115  236 1    
   230  116  237 1    
   231  116  238 1    
   232  116  239 1    
   233  117  118 2    
   234  117  119 am   BACKBONE|DICT|INTERRES
   235  119  120 1    
   236  119  240 1    
   237  120  121 1    
   238  120  124 1    
   239  120  241 1    
   240  121  122 am   BACKBONE|DICT|INTERRES
   241  121  123 2    
   242  122  242 1    
   243  122  243 1    
   244  124  125 1    
   245  124  244 1    
   246  124  245 1    
   247  125  126 1    
   248  126  246 1    
   249  126  247 1    
@<TRIPOS>SUBSTRUCTURE
     1 UNK         1 GROUP             0       ****    0 ROOT    
