@<TRIPOS>MOLECULE
3R540
247   249    1
SMALL
USER_CHARGES


@<TRIPOS>ATOM
      1 CA          4.4368  -13.0823  -47.8152 C.3       0 UNK        -0.1800 
      2 C           3.5191  -14.1882  -48.3169 C.2       0 UNK         0.5000 
      3 O           3.8478  -15.3659  -48.1769 O.2       0 UNK        -0.5000 
      4 N           2.3772  -13.8132  -48.9057 N.am      1 UNK        -0.5000 
      5 CA          1.3185  -14.7333  -49.3268 C.3       1 UNK         0.1400 
      6 C6          0.5026  -14.1371  -50.5019 C.3       23 UNK        -0.0398 
      7 S7         -0.5906  -15.3235  -51.3638 S.3       23 UNK        -0.2404 
      8 C8          0.5955  -16.4439  -52.1777 C.3       23 UNK        -0.0205 
      9 C9          0.5370  -17.8408  -51.5745 C.ar      23 UNK        -0.0193 
     10 C10        -0.5106  -18.6977  -51.9206 C.ar      23 UNK        -0.1150 
     11 C11        -0.5953  -19.9823  -51.3785 C.ar      23 UNK        -0.0193 
     12 C12         0.3922  -20.4147  -50.4932 C.ar      23 UNK        -0.1150 
     13 C13         1.4410  -19.5679  -50.1279 C.ar      23 UNK        -0.0193 
     14 C14         1.5164  -18.2858  -50.6804 C.ar      23 UNK        -0.1150 
     15 C15         2.4889  -20.0420  -49.1342 C.3       23 UNK        -0.0205 
     16 S16         2.1053  -19.5185  -47.4319 S.3       23 UNK        -0.2404 
     17 C17         0.6411  -20.5308  -47.0220 C.3       23 UNK        -0.0398 
     18 CA          0.9989  -21.9437  -46.5168 C.3       11 UNK         0.1400 
     19 N           1.7441  -21.9036  -45.2545 N.am      11 UNK        -0.5000 
     20 C           2.3854  -22.9380  -44.6936 C.2       10 UNK         0.5000 
     21 O           2.3442  -24.0862  -45.1371 O.2       10 UNK        -0.5000 
     22 CA          3.1831  -22.6403  -43.4142 C.3       10 UNK         0.1400 
     23 CB          4.5117  -21.9481  -43.7568 C.3       10 UNK        -0.1800 
     24 N           2.4146  -21.7848  -42.5112 N.am      10 UNK        -0.5000 
     25 C           1.7164  -22.2223  -41.4549 C.2       9 UNK         0.5000 
     26 O           1.7036  -23.3960  -41.0820 O.2       9 UNK        -0.5000 
     27 CA          0.8776  -21.1813  -40.6828 C.3       9 UNK         0.1400 
     28 CB          1.6877  -20.6002  -39.5140 C.3       9 UNK        -0.1800 
     29 N           0.3848  -20.0756  -41.5055 N.am      9 UNK        -0.5000 
     30 C          -0.4196  -20.1975  -42.5702 C.2       8 UNK         0.5000 
     31 O          -0.8619  -21.2694  -42.9793 O.2       8 UNK        -0.5000 
     32 CA         -0.7415  -18.9046  -43.3404 C.3       8 UNK         0.1400 
     33 CB         -1.9563  -18.2161  -42.7014 C.3       8 UNK        -0.1800 
     34 N           0.3722  -17.9518  -43.4236 N.am      8 UNK        -0.5000 
     35 C           1.6309  -18.2196  -43.8085 C.2       7 UNK         0.5000 
     36 O           2.0398  -19.3459  -44.0888 O.2       7 UNK        -0.5000 
     37 CA          2.6104  -17.0376  -43.8411 C.3       7 UNK         0.1400 
     38 CB          2.4244  -16.2115  -45.1199 C.3       7 UNK        -0.1800 
     39 N           2.4349  -16.1776  -42.6736 N.am      7 UNK        -0.5000 
     40 C           2.9516  -16.4335  -41.4639 C.2       6 UNK         0.5000 
     41 O           3.6872  -17.3905  -41.2213 O.2       6 UNK        -0.5000 
     42 CA          2.5715  -15.4638  -40.3285 C.3       6 UNK         0.1400 
     43 CB          3.5786  -14.3065  -40.2485 C.3       6 UNK        -0.1800 
     44 N           1.2224  -14.9159  -40.4774 N.am      6 UNK        -0.5000 
     45 C           0.0953  -15.6286  -40.3437 C.2       5 UNK         0.5000 
     46 O           0.0721  -16.8194  -40.0302 O.2       5 UNK        -0.5000 
     47 CA         -1.2256  -14.8923  -40.6438 C.3       5 UNK         0.1400 
     48 CB         -1.7908  -14.2608  -39.3629 C.3       5 UNK        -0.1800 
     49 N          -1.1164  -13.8607  -41.6831 N.am      5 UNK        -0.5000 
     50 C          -0.7652  -14.0933  -42.9546 C.2       4 UNK         0.5000 
     51 O          -0.4078  -15.1968  -43.3708 O.2       4 UNK        -0.5000 
     52 CA         -0.7701  -12.8918  -43.9129 C.3       4 UNK         0.1400 
     53 CB          0.6684  -12.4681  -44.2488 C.3       4 UNK        -0.1800 
     54 N          -1.4669  -13.2488  -45.1457 N.am      4 UNK        -0.5000 
     55 C          -2.8011  -13.2558  -45.2865 C.2       3 UNK         0.5000 
     56 O          -3.5765  -12.8243  -44.4320 O.2       3 UNK        -0.5000 
     57 CA         -3.3757  -13.8577  -46.5881 C.3       3 UNK         0.1400 
     58 CB         -3.6197  -12.7595  -47.6341 C.3       3 UNK        -0.1800 
     59 N          -2.5113  -14.8818  -47.1726 N.am      3 UNK        -0.5000 
     60 C          -2.2231  -16.0569  -46.5984 C.2       2 UNK         0.5000 
     61 O          -2.8078  -16.4810  -45.6032 O.2       2 UNK        -0.5000 
     62 CA         -1.1028  -16.9101  -47.2313 C.3       2 UNK         0.1400 
     63 CB         -1.7185  -18.1617  -47.8703 C.3       2 UNK        -0.1800 
     64 N          -0.2710  -16.2490  -48.2448 N.am      2 UNK        -0.5000 
     65 C           0.4378  -15.1190  -48.1191 C.2       1 UNK         0.5000 
     66 O           0.3898  -14.3846  -47.1296 O.2       1 UNK        -0.5000 
     67 C          -0.2557  -22.8435  -46.4819 C.2       11 UNK         0.5000 
     68 O          -0.7360  -23.2355  -47.5465 O.2       11 UNK        -0.5000 
     69 N          -0.7362  -23.2089  -45.2843 N.am      12 UNK        -0.5000 
     70 CA         -1.7850  -24.2082  -45.0578 C.3       12 UNK         0.1400 
     71 CB         -2.0908  -24.2872  -43.5542 C.3       12 UNK        -0.1800 
     72 C          -1.4592  -25.6129  -45.6127 C.2       12 UNK         0.5000 
     73 O          -2.3814  -26.3976  -45.8335 O.2       12 UNK        -0.5000 
     74 N          -0.1697  -25.9036  -45.8447 N.am      13 UNK        -0.5000 
     75 CA          0.3043  -27.1175  -46.5117 C.3       13 UNK         0.1400 
     76 CB          1.8092  -27.2727  -46.2442 C.3       13 UNK        -0.1800 
     77 C           0.0232  -27.1375  -48.0307 C.2       13 UNK         0.5000 
     78 O           0.0492  -28.2160  -48.6261 O.2       13 UNK        -0.5000 
     79 N          -0.2269  -25.9649  -48.6313 N.am      14 UNK        -0.5000 
     80 CA         -0.6031  -25.7958  -50.0343 C.3       14 UNK         0.1400 
     81 CB          0.1309  -24.5621  -50.5956 C.3       14 UNK        -0.1800 
     82 C          -2.1400  -25.7061  -50.1562 C.2       14 UNK         0.5000 
     83 O          -2.8529  -26.3832  -49.4126 O.2       14 UNK        -0.5000 
     84 N          -2.6414  -24.8762  -51.0834 N.am      15 UNK        -0.5000 
     85 CA         -4.0763  -24.6483  -51.2988 C.3       15 UNK         0.1400 
     86 CB         -4.2978  -24.1005  -52.7167 C.3       15 UNK        -0.1800 
     87 C          -4.7173  -23.7203  -50.2430 C.2       15 UNK         0.5000 
     88 O          -5.9405  -23.5780  -50.2343 O.2       15 UNK        -0.5000 
     89 N          -3.8883  -23.1119  -49.3804 N.am      16 UNK        -0.5000 
     90 CA         -4.1989  -22.2934  -48.2024 C.3       16 UNK         0.1400 
     91 CB         -5.0221  -23.0952  -47.1765 C.3       16 UNK        -0.1800 
     92 C          -4.8624  -20.9334  -48.4903 C.2       16 UNK         0.5000 
     93 O          -4.4338  -19.9288  -47.9255 O.2       16 UNK        -0.5000 
     94 N          -5.8863  -20.9019  -49.3492 N.am      17 UNK        -0.5000 
     95 CA         -6.7345  -19.7386  -49.6298 C.3       17 UNK         0.1400 
     96 CB         -8.1290  -20.2336  -50.0536 C.3       17 UNK        -0.1800 
     97 C          -6.1072  -18.7201  -50.6111 C.2       17 UNK         0.5000 
     98 O          -6.7875  -18.2281  -51.5137 O.2       17 UNK        -0.5000 
     99 N          -4.8252  -18.4012  -50.3846 N.am      18 UNK        -0.5000 
    100 CA        -4.0115  -17.3851  -51.0601 C.3       18 UNK         0.1400 
    101 CB        -4.5103  -15.9741  -50.6789 C.3       18 UNK        -0.1800 
    102 C         -3.8703  -17.5894  -52.5839 C.2       18 UNK         0.5000 
    103 O         -4.1196  -18.6820  -53.1002 O.2       18 UNK        -0.5000 
    104 N         -3.4054  -16.5447  -53.2822 N.am      19 UNK        -0.5000 
    105 CA        -3.0774  -16.5505  -54.7117 C.3       19 UNK         0.1400 
    106 CB        -2.4865  -15.1855  -55.0926 C.3       19 UNK        -0.1800 
    107 C         -4.2581  -16.9099  -55.6346 C.2       19 UNK         0.5000 
    108 O         -4.0334  -17.4224  -56.7302 O.2       19 UNK        -0.5000 
    109 N         -5.4909  -16.6864  -55.1610 N.am      20 UNK        -0.5000 
    110 CA        -6.7271  -17.1122  -55.8163 C.3       20 UNK         0.1400 
    111 CB        -7.9205  -16.4964  -55.0701 C.3       20 UNK        -0.1800 
    112 C         -6.8792  -18.6455  -55.9001 C.2       20 UNK         0.5000 
    113 O         -7.5338  -19.1310  -56.8238 O.2       20 UNK        -0.5000 
    114 N         -6.2798  -19.3736  -54.9480 N.am      21 UNK        -0.5000 
    115 CA        -6.3057  -20.8314  -54.8771 C.3       21 UNK         0.1400 
    116 CB        -6.5445  -21.2545  -53.4225 C.3       21 UNK        -0.1800 
    117 C         -5.0096  -21.4457  -55.4283 C.2       21 UNK         0.5000 
    118 O         -5.0851  -22.4053  -56.1969 O.2       21 UNK        -0.5000 
    119 N         -3.8508  -20.8915  -55.0419 N.am      22 UNK        -0.5000 
    120 CA        -2.5317  -21.3521  -55.5167 C.3       22 UNK         0.1400 
    121 C         -2.1810  -20.9303  -56.9741 C.2       22 UNK         0.5000 
    122 N         -2.8168  -19.9264  -57.5634 N.am      22 UNK        -0.7600 
    123 O         -1.3142  -21.5413  -57.5931 O.2       22 UNK        -0.5000 
    124 C124       -1.3876  -20.9726  -54.5412 C.3       23 UNK        -0.0398 
    125 S125       -1.3478  -22.0479  -53.0661 S.3       23 UNK        -0.2404 
    126 C126       -1.7580  -20.9008  -51.7196 C.3       23 UNK        -0.0205 
    127 H127        5.4123  -13.1564  -48.2958 H         1 UNK         0.0600 
    128 H128        4.0297  -12.0921  -48.0215 H         1 UNK         0.0600 
    129 H129        4.5775  -13.1742  -46.7381 H         1 UNK         0.0600 
    130 H130        2.1480  -12.8307  -48.9513 H         1 UNK         0.3000 
    131 H131        1.8010  -15.6418  -49.6814 H         1 UNK         0.0600 
    132 H132        1.1814  -13.7235  -51.2494 H         1 UNK         0.0800 
    133 H133       -0.1038  -13.2968  -50.1593 H         1 UNK         0.0800 
    134 H134        1.6081  -16.0414  -52.1251 H         1 UNK         0.0800 
    135 H135        0.3499  -16.4999  -53.2393 H         1 UNK         0.0800 
    136 H136       -1.2585  -18.3566  -52.6170 H         1 UNK         0.1150 
    137 H137        0.3354  -21.4083  -50.0738 H         1 UNK         0.1150 
    138 H138        2.3427  -17.6444  -50.4113 H         1 UNK         0.1150 
    139 H139        2.5911  -21.1274  -49.1719 H         1 UNK         0.0800 
    140 H140        3.4631  -19.6374  -49.4122 H         1 UNK         0.0800 
    141 H141       -0.0093  -20.5896  -47.8913 H         1 UNK         0.0800 
    142 H142        0.0702  -19.9979  -46.2623 H         1 UNK         0.0800 
    143 H143        1.6606  -22.4000  -47.2558 H         1 UNK         0.0600 
    144 H144        1.8508  -20.9812  -44.8368 H         1 UNK         0.3000 
    145 H145        3.4150  -23.5926  -42.9329 H         1 UNK         0.0600 
    146 H146        5.1066  -21.7758  -42.8598 H         1 UNK         0.0600 
    147 H147        5.1094  -22.5627  -44.4311 H         1 UNK         0.0600 
    148 H148        4.3543  -20.9842  -44.2429 H         1 UNK         0.0600 
    149 H149        2.3281  -20.8108  -42.7826 H         1 UNK         0.3000 
    150 H150        0.0079  -21.7002  -40.2748 H         1 UNK         0.0600 
    151 H151        2.0527  -21.3916  -38.8580 H         1 UNK         0.0600 
    152 H152        1.0791  -19.9297  -38.9067 H         1 UNK         0.0600 
    153 H153        2.5539  -20.0385  -39.8669 H         1 UNK         0.0600 
    154 H154        0.6896  -19.1470  -41.2474 H         1 UNK         0.3000 
    155 H155       -1.0069  -19.1789  -44.3619 H         1 UNK         0.0600 
    156 H156       -1.7829  -17.9916  -41.6491 H         1 UNK         0.0600 
    157 H157       -2.8385  -18.8548  -42.7577 H         1 UNK         0.0600 
    158 H158       -2.2000  -17.2816  -43.2042 H         1 UNK         0.0600 
    159 H159        0.1283  -16.9783  -43.2564 H         1 UNK         0.3000 
    160 H160        3.6263  -17.4387  -43.8440 H         1 UNK         0.0600 
    161 H161        3.1340  -15.3856  -45.1673 H         1 UNK         0.0600 
    162 H162        1.4208  -15.7942  -45.1841 H         1 UNK         0.0600 
    163 H163        2.5798  -16.8241  -46.0086 H         1 UNK         0.0600 
    164 H164        1.7863  -15.4095  -42.7741 H         1 UNK         0.3000 
    165 H165        2.6132  -16.0195  -39.3892 H         1 UNK         0.0600 
    166 H166        3.3618  -13.6523  -39.4038 H         1 UNK         0.0600 
    167 H167        4.5942  -14.6817  -40.1151 H         1 UNK         0.0600 
    168 H168        3.5692  -13.7000  -41.1552 H         1 UNK         0.0600 
    169 H169        1.1481  -13.9414  -40.7294 H         1 UNK         0.3000 
    170 H170       -1.9410  -15.6372  -40.9969 H         1 UNK         0.0600 
    171 H171       -1.9071  -15.0086  -38.5771 H         1 UNK         0.0600 
    172 H172       -1.1365  -13.4781  -38.9770 H         1 UNK         0.0600 
    173 H173       -2.7731  -13.8222  -39.5390 H         1 UNK         0.0600 
    174 H174       -1.3855  -12.9253  -41.4138 H         1 UNK         0.3000 
    175 H175       -1.2772  -12.0480  -43.4404 H         1 UNK         0.0600 
    176 H176        1.2291  -13.2762  -44.7206 H         1 UNK         0.0600 
    177 H177        0.6786  -11.6163  -44.9289 H         1 UNK         0.0600 
    178 H178        1.2102  -12.1739  -43.3492 H         1 UNK         0.0600 
    179 H179       -0.8928  -13.6676  -45.8728 H         1 UNK         0.3000 
    180 H180       -4.3341  -14.3211  -46.3451 H         1 UNK         0.0600 
    181 H181       -2.6895  -12.2724  -47.9298 H         1 UNK         0.0600 
    182 H182       -4.2845  -11.9885  -47.2425 H         1 UNK         0.0600 
    183 H183       -4.0870  -13.1659  -48.5314 H         1 UNK         0.0600 
    184 H184       -1.9767  -14.6129  -47.9844 H         1 UNK         0.3000 
    185 H185       -0.4328  -17.2216  -46.4276 H         1 UNK         0.0600 
    186 H186       -2.0485  -18.8639  -47.1040 H         1 UNK         0.0600 
    187 H187       -2.5901  -17.9113  -48.4722 H         1 UNK         0.0600 
    188 H188       -1.0129  -18.6790  -48.5172 H         1 UNK         0.0600 
    189 H189       -0.1901  -16.7490  -49.1191 H         1 UNK         0.3000 
    190 H190       -0.3402  -22.7819  -44.4551 H         1 UNK         0.3000 
    191 H191       -2.6824  -23.8607  -45.5697 H         1 UNK         0.0600 
    192 H192       -1.1968  -24.5196  -42.9741 H         1 UNK         0.0600 
    193 H193       -2.8323  -25.0585  -43.3417 H         1 UNK         0.0600 
    194 H194       -2.4967  -23.3456  -43.1854 H         1 UNK         0.0600 
    195 H195        0.5367  -25.2152  -45.6102 H         1 UNK         0.3000 
    196 H196       -0.2098  -27.9742  -46.0713 H         1 UNK         0.0600 
    197 H197        2.3798  -26.4479  -46.6731 H         1 UNK         0.0600 
    198 H198        2.1911  -28.1973  -46.6789 H         1 UNK         0.0600 
    199 H199        2.0197  -27.3050  -45.1750 H         1 UNK         0.0600 
    200 H200       -0.2951  -25.1300  -48.0598 H         1 UNK         0.3000 
    201 H201       -0.2844  -26.6647  -50.6132 H         1 UNK         0.0600 
    202 H202       -0.2424  -23.6367  -50.1583 H         1 UNK         0.0600 
    203 H203        0.0189  -24.4911  -51.6778 H         1 UNK         0.0600 
    204 H204        1.2006  -24.6153  -50.3925 H         1 UNK         0.0600 
    205 H205       -2.0076  -24.3508  -51.6699 H         1 UNK         0.3000 
    206 H206       -4.5862  -25.6118  -51.2347 H         1 UNK         0.0600 
    207 H207       -5.3460  -24.1925  -52.9997 H         1 UNK         0.0600 
    208 H208       -4.0320  -23.0465  -52.7914 H         1 UNK         0.0600 
    209 H209       -3.7179  -24.6500  -53.4584 H         1 UNK         0.0600 
    210 H210       -2.9045  -23.3045  -49.5013 H         1 UNK         0.3000 
    211 H211       -3.2340  -22.0750  -47.7423 H         1 UNK         0.0600 
    212 H212       -6.0388  -23.2792  -47.5251 H         1 UNK         0.0600 
    213 H213       -5.0945  -22.5571  -46.2306 H         1 UNK         0.0600 
    214 H214       -4.5645  -24.0627  -46.9704 H         1 UNK         0.0600 
    215 H215       -6.1458  -21.7805  -49.7910 H         1 UNK         0.3000 
    216 H216       -6.8728  -19.1902  -48.6957 H         1 UNK         0.0600 
    217 H217       -8.7895  -19.4051  -50.3122 H         1 UNK         0.0600 
    218 H218       -8.6076  -20.7809  -49.2414 H         1 UNK         0.0600 
    219 H219       -8.0788  -20.9026  -50.9102 H         1 UNK         0.0600 
    220 H220       -4.3838  -18.8735  -49.6028 H         1 UNK         0.3000 
    221 H221       -3.0023  -17.4959  -50.6648 H         1 UNK         0.0600 
    222 H222       -5.4777  -15.7524  -51.1312 H         1 UNK         0.0600 
    223 H223       -4.6191  -15.8776  -49.5982 H         1 UNK         0.0600 
    224 H224       -3.8110  -15.1983  -50.9913 H         1 UNK         0.0600 
    225 H225       -3.2023  -15.6883  -52.7872 H         1 UNK         0.3000 
    226 H226       -2.3078  -17.3095  -54.8666 H         1 UNK         0.0600 
    227 H227       -1.5901  -14.9672  -54.5117 H         1 UNK         0.0600 
    228 H228       -2.2028  -15.1619  -56.1457 H         1 UNK         0.0600 
    229 H229       -3.2006  -14.3781  -54.9261 H         1 UNK         0.0600 
    230 H230       -5.5825  -16.2746  -54.2442 H         1 UNK         0.3000 
    231 H231       -6.7204  -16.7235  -56.8367 H         1 UNK         0.0600 
    232 H232       -7.8657  -15.4077  -55.0666 H         1 UNK         0.0600 
    233 H233       -7.9633  -16.8353  -54.0338 H         1 UNK         0.0600 
    234 H234       -8.8630  -16.7722  -55.5450 H         1 UNK         0.0600 
    235 H235       -5.7333  -18.9024  -54.2342 H         1 UNK         0.3000 
    236 H236       -7.1372  -21.2190  -55.4696 H         1 UNK         0.0600 
    237 H237       -6.6777  -22.3327  -53.3442 H         1 UNK         0.0600 
    238 H238       -5.7196  -20.9687  -52.7685 H         1 UNK         0.0600 
    239 H239       -7.4526  -20.7894  -53.0432 H         1 UNK         0.0600 
    240 H240       -3.8658  -20.1127  -54.3908 H         1 UNK         0.3000 
    241 H241       -2.5670  -22.4433  -55.5509 H         1 UNK         0.0600 
    242 H242       -2.5709  -19.6858  -58.5102 H         1 UNK         0.3800 
    243 H243       -3.4830  -19.3448  -57.0701 H         1 UNK         0.3800 
    244 H244       -0.4111  -21.0808  -55.0168 H         1 UNK         0.0800 
    245 H245       -1.4657  -19.9235  -54.2609 H         1 UNK         0.0800 
    246 H246       -2.6490  -20.3329  -51.9748 H         1 UNK         0.0800 
    247 H247       -2.0236  -21.4831  -50.8373 H         1 UNK         0.0800 
@<TRIPOS>BOND
     1    1    2 1    
     2    1  127 1    
     3    1  128 1    
     4    1  129 1    
     5    2    3 2    
     6    2    4 am   BACKBONE|DICT|INTERRES
     7    4    5 1    
     8    4  130 1    
     9    5    6 1    
    10    5   65 1    
    11    5  131 1    
    12    6    7 1    
    13    6  132 1    
    14    6  133 1    
    15    7    8 1    
    16    8    9 1    
    17    8  134 1    
    18    8  135 1    
    19    9   10 ar   
    20    9   14 ar   
    21   10   11 ar   
    22   10  136 1    
    23   11   12 ar   
    24   11  126 1    
    25   12   13 ar   
    26   12  137 1    
    27   13   14 ar   
    28   13   15 1    
    29   14  138 1    
    30   15   16 1    
    31   15  139 1    
    32   15  140 1    
    33   16   17 1    
    34   17   18 1    
    35   17  141 1    
    36   17  142 1    
    37   18   19 1    
    38   18   67 1    
    39   18  143 1    
    40   19   20 am   BACKBONE|DICT|INTERRES
    41   19  144 1    
    42   20   21 2    
    43   20   22 1    
    44   22   23 1    
    45   22   24 1    
    46   22  145 1    
    47   23  146 1    
    48   23  147 1    
    49   23  148 1    
    50   24   25 am   BACKBONE|DICT|INTERRES
    51   24  149 1    
    52   25   26 2    
    53   25   27 1    
    54   27   28 1    
    55   27   29 1    
    56   27  150 1    
    57   28  151 1    
    58   28  152 1    
    59   28  153 1    
    60   29   30 am   BACKBONE|DICT|INTERRES
    61   29  154 1    
    62   30   31 2    
    63   30   32 1    
    64   32   33 1    
    65   32   34 1    
    66   32  155 1    
    67   33  156 1    
    68   33  157 1    
    69   33  158 1    
    70   34   35 am   BACKBONE|DICT|INTERRES
    71   34  159 1    
    72   35   36 2    
    73   35   37 1    
    74   37   38 1    
    75   37   39 1    
    76   37  160 1    
    77   38  161 1    
    78   38  162 1    
    79   38  163 1    
    80   39   40 am   BACKBONE|DICT|INTERRES
    81   39  164 1    
    82   40   41 2    
    83   40   42 1    
    84   42   43 1    
    85   42   44 1    
    86   42  165 1    
    87   43  166 1    
    88   43  167 1    
    89   43  168 1    
    90   44   45 am   BACKBONE|DICT|INTERRES
    91   44  169 1    
    92   45   46 2    
    93   45   47 1    
    94   47   48 1    
    95   47   49 1    
    96   47  170 1    
    97   48  171 1    
    98   48  172 1    
    99   48  173 1    
   100   49   50 am   BACKBONE|DICT|INTERRES
   101   49  174 1    
   102   50   51 2    
   103   50   52 1    
   104   52   53 1    
   105   52   54 1    
   106   52  175 1    
   107   53  176 1    
   108   53  177 1    
   109   53  178 1    
   110   54   55 am   BACKBONE|DICT|INTERRES
   111   54  179 1    
   112   55   56 2    
   113   55   57 1    
   114   57   58 1    
   115   57   59 1    
   116   57  180 1    
   117   58  181 1    
   118   58  182 1    
   119   58  183 1    
   120   59   60 am   BACKBONE|DICT|INTERRES
   121   59  184 1    
   122   60   61 2    
   123   60   62 1    
   124   62   63 1    
   125   62   64 1    
   126   62  185 1    
   127   63  186 1    
   128   63  187 1    
   129   63  188 1    
   130   64   65 am   BACKBONE|DICT|INTERRES
   131   64  189 1    
   132   65   66 2    
   133   67   68 2    
   134   67   69 am   BACKBONE|DICT|INTERRES
   135   69   70 1    
   136   69  190 1    
   137   70   71 1    
   138   70   72 1    
   139   70  191 1    
   140   71  192 1    
   141   71  193 1    
   142   71  194 1    
   143   72   73 2    
   144   72   74 am   BACKBONE|DICT|INTERRES
   145   74   75 1    
   146   74  195 1    
   147   75   76 1    
   148   75   77 1    
   149   75  196 1    
   150   76  197 1    
   151   76  198 1    
   152   76  199 1    
   153   77   78 2    
   154   77   79 am   BACKBONE|DICT|INTERRES
   155   79   80 1    
   156   79  200 1    
   157   80   81 1    
   158   80   82 1    
   159   80  201 1    
   160   81  202 1    
   161   81  203 1    
   162   81  204 1    
   163   82   83 2    
   164   82   84 am   BACKBONE|DICT|INTERRES
   165   84   85 1    
   166   84  205 1    
   167   85   86 1    
   168   85   87 1    
   169   85  206 1    
   170   86  207 1    
   171   86  208 1    
   172   86  209 1    
   173   87   88 2    
   174   87   89 am   BACKBONE|DICT|INTERRES
   175   89   90 1    
   176   89  210 1    
   177   90   91 1    
   178   90   92 1    
   179   90  211 1    
   180   91  212 1    
   181   91  213 1    
   182   91  214 1    
   183   92   93 2    
   184   92   94 am   BACKBONE|DICT|INTERRES
   185   94   95 1    
   186   94  215 1    
   187   95   96 1    
   188   95   97 1    
   189   95  216 1    
   190   96  217 1    
   191   96  218 1    
   192   96  219 1    
   193   97   98 2    
   194   97   99 am   BACKBONE|DICT|INTERRES
   195   99  100 1    
   196   99  220 1    
   197  100  101 1    
   198  100  102 1    
   199  100  221 1    
   200  101  222 1    
   201  101  223 1    
   202  101  224 1    
   203  102  103 2    
   204  102  104 am   BACKBONE|DICT|INTERRES
   205  104  105 1    
   206  104  225 1    
   207  105  106 1    
   208  105  107 1    
   209  105  226 1    
   210  106  227 1    
   211  106  228 1    
   212  106  229 1    
   213  107  108 2    
   214  107  109 am   BACKBONE|DICT|INTERRES
   215  109  110 1    
   216  109  230 1    
   217  110  111 1    
   218  110  112 1    
   219  110  231 1    
   220  111  232 1    
   221  111  233 1    
   222  111  234 1    
   223  112  113 2    
   224  112  114 am   BACKBONE|DICT|INTERRES
   225  114  115 1    
   226  114  235 1    
   227  115  116 1    
   228  115  117 1    
   229  115  236 1    
   230  116  237 1    
   231  116  238 1    
   232  116  239 1    
   233  117  118 2    
   234  117  119 am   BACKBONE|DICT|INTERRES
   235  119  120 1    
   236  119  240 1    
   237  120  121 1    
   238  120  124 1    
   239  120  241 1    
   240  121  122 am   BACKBONE|DICT|INTERRES
   241  121  123 2    
   242  122  242 1    
   243  122  243 1    
   244  124  125 1    
   245  124  244 1    
   246  124  245 1    
   247  125  126 1    
   248  126  246 1    
   249  126  247 1    
@<TRIPOS>SUBSTRUCTURE
     1 UNK         1 GROUP             0       ****    0 ROOT    
