@<TRIPOS>MOLECULE
3R540
247   249    1
SMALL
USER_CHARGES


@<TRIPOS>ATOM
      1 CA          8.3088  -15.0941  -44.2641 C.3       0 UNK        -0.1800 
      2 C           6.9859  -14.4368  -44.6306 C.2       0 UNK         0.5000 
      3 O           6.4891  -13.5957  -43.8802 O.2       0 UNK        -0.5000 
      4 N           6.4111  -14.8136  -45.7798 N.am      1 UNK        -0.5000 
      5 CA          5.1601  -14.2684  -46.3081 C.3       1 UNK         0.1400 
      6 C6          4.4573  -15.2669  -47.2608 C.3       23 UNK        -0.0398 
      7 S7          2.7322  -14.7788  -47.6320 S.3       23 UNK        -0.2404 
      8 C8          2.7147  -14.8284  -49.4524 C.3       23 UNK        -0.0205 
      9 C9          2.3157  -16.1989  -49.9857 C.ar      23 UNK        -0.0193 
     10 C10         1.1492  -16.3431  -50.7431 C.ar      23 UNK        -0.1150 
     11 C11         0.7738  -17.5943  -51.2408 C.ar      23 UNK        -0.0193 
     12 C12         1.5709  -18.7099  -50.9726 C.ar      23 UNK        -0.1150 
     13 C13         2.7311  -18.5830  -50.2038 C.ar      23 UNK        -0.0193 
     14 C14         3.1059  -17.3241  -49.7292 C.ar      23 UNK        -0.1150 
     15 C15         3.5748  -19.8039  -49.8690 C.3       23 UNK        -0.0205 
     16 S16         3.0789  -20.5443  -48.2792 S.3       23 UNK        -0.2404 
     17 C17         1.4501  -21.2306  -48.7208 C.3       23 UNK        -0.0398 
     18 CA          0.9754  -22.3326  -47.7462 C.3       11 UNK         0.1400 
     19 N           0.6133  -21.8136  -46.4216 N.am      11 UNK        -0.5000 
     20 C           0.3017  -22.5825  -45.3675 C.2       10 UNK         0.5000 
     21 O           0.3640  -23.8106  -45.3805 O.2       10 UNK        -0.5000 
     22 CA         -0.2271  -21.8795  -44.1040 C.3       10 UNK         0.1400 
     23 CB          0.9271  -21.3920  -43.2163 C.3       10 UNK        -0.1800 
     24 N          -1.1405  -20.7771  -44.4098 N.am      10 UNK        -0.5000 
     25 C          -2.3264  -20.9308  -45.0176 C.2       9 UNK         0.5000 
     26 O          -2.7904  -22.0260  -45.3323 O.2       9 UNK        -0.5000 
     27 CA         -3.1119  -19.6554  -45.3738 C.3       9 UNK         0.1400 
     28 CB         -3.9421  -19.1759  -44.1746 C.3       9 UNK        -0.1800 
     29 N          -2.2540  -18.5704  -45.8509 N.am      9 UNK        -0.5000 
     30 C          -1.5154  -18.6235  -46.9696 C.2       8 UNK         0.5000 
     31 O          -1.5225  -19.5848  -47.7403 O.2       8 UNK        -0.5000 
     32 CA         -0.5590  -17.4385  -47.2222 C.3       8 UNK         0.1400 
     33 CB         -1.3139  -16.2038  -47.7368 C.3       8 UNK        -0.1800 
     34 N           0.1880  -17.0644  -46.0208 N.am      8 UNK        -0.5000 
     35 C           1.0242  -17.8744  -45.3580 C.2       7 UNK         0.5000 
     36 O           1.3138  -19.0102  -45.7300 O.2       7 UNK        -0.5000 
     37 CA          1.5696  -17.3571  -44.0154 C.3       7 UNK         0.1400 
     38 CB          2.7913  -16.4517  -44.2131 C.3       7 UNK        -0.1800 
     39 N           0.5457  -16.6409  -43.2551 N.am      7 UNK        -0.5000 
     40 C          -0.4769  -17.2397  -42.6297 C.2       6 UNK         0.5000 
     41 O          -0.6473  -18.4579  -42.6141 O.2       6 UNK        -0.5000 
     42 CA         -1.4959  -16.3227  -41.9294 C.3       6 UNK         0.1400 
     43 CB         -1.0003  -15.9321  -40.5291 C.3       6 UNK        -0.1800 
     44 N          -1.7869  -15.1113  -42.6965 N.am      6 UNK        -0.5000 
     45 C          -2.4209  -15.0994  -43.8772 C.2       5 UNK         0.5000 
     46 O          -2.8485  -16.1098  -44.4329 O.2       5 UNK        -0.5000 
     47 CA         -2.5653  -13.7338  -44.5733 C.3       5 UNK         0.1400 
     48 CB         -3.8401  -13.0200  -44.0998 C.3       5 UNK        -0.1800 
     49 N          -1.4128  -12.8494  -44.3792 N.am      5 UNK        -0.5000 
     50 C          -0.1634  -13.1260  -44.7738 C.2       4 UNK         0.5000 
     51 O           0.1725  -14.1923  -45.2930 O.2       4 UNK        -0.5000 
     52 CA          0.8950  -12.0441  -44.5126 C.3       4 UNK         0.1400 
     53 CB          1.9530  -12.5392  -43.5136 C.3       4 UNK        -0.1800 
     54 N           1.5568  -11.6613  -45.7548 N.am      4 UNK        -0.5000 
     55 C           1.0394  -10.8481  -46.6857 C.2       3 UNK         0.5000 
     56 O          -0.0749  -10.3307  -46.5884 O.2       3 UNK        -0.5000 
     57 CA          1.9246  -10.5597  -47.9218 C.3       3 UNK         0.1400 
     58 CB          1.5904   -9.2149  -48.5999 C.3       3 UNK        -0.1800 
     59 N           3.3633  -10.6612  -47.6408 N.am      3 UNK        -0.5000 
     60 C           4.0860   -9.9432  -46.7659 C.2       2 UNK         0.5000 
     61 O           3.6410   -8.9874  -46.1285 O.2       2 UNK        -0.5000 
     62 CA          5.5282  -10.4407  -46.5177 C.3       2 UNK         0.1400 
     63 CB          6.2650   -9.6278  -45.4382 C.3       2 UNK        -0.1800 
     64 N           5.5203  -11.8511  -46.1190 N.am      2 UNK        -0.5000 
     65 C           5.4022  -12.8884  -46.9553 C.2       1 UNK         0.5000 
     66 O           5.4375  -12.7694  -48.1815 O.2       1 UNK        -0.5000 
     67 C          -0.1763  -23.1411  -48.3782 C.2       11 UNK         0.5000 
     68 O           0.0676  -24.2363  -48.8851 O.2       11 UNK        -0.5000 
     69 N          -1.4081  -22.6141  -48.3112 N.am      12 UNK        -0.5000 
     70 CA         -2.6151  -23.2914  -48.7947 C.3       12 UNK         0.1400 
     71 CB         -3.8073  -22.3243  -48.7437 C.3       12 UNK        -0.1800 
     72 C          -2.9127  -24.5939  -48.0249 C.2       12 UNK         0.5000 
     73 O          -3.2258  -25.6112  -48.6453 O.2       12 UNK        -0.5000 
     74 N          -2.7523  -24.5545  -46.6945 N.am      13 UNK        -0.5000 
     75 CA         -2.8806  -25.7070  -45.8031 C.3       13 UNK         0.1400 
     76 CB         -2.8420  -25.2386  -44.3411 C.3       13 UNK        -0.1800 
     77 C          -1.8129  -26.7859  -46.0619 C.2       13 UNK         0.5000 
     78 O          -2.1519  -27.9685  -46.0928 O.2       13 UNK        -0.5000 
     79 N          -0.5580  -26.3674  -46.2829 N.am      14 UNK        -0.5000 
     80 CA          0.5655  -27.2417  -46.6325 C.3       14 UNK         0.1400 
     81 CB          1.8790  -26.4475  -46.5720 C.3       14 UNK        -0.1800 
     82 C           0.3976  -27.9106  -48.0095 C.2       14 UNK         0.5000 
     83 O           0.7471  -29.0815  -48.1629 O.2       14 UNK        -0.5000 
     84 N          -0.1692  -27.1707  -48.9725 N.am      15 UNK        -0.5000 
     85 CA         -0.5596  -27.6723  -50.2923 C.3       15 UNK         0.1400 
     86 CB         -0.8065  -26.4765  -51.2259 C.3       15 UNK        -0.1800 
     87 C          -1.8009  -28.5890  -50.2552 C.2       15 UNK         0.5000 
     88 O          -2.0406  -29.3099  -51.2247 O.2       15 UNK        -0.5000 
     89 N          -2.5606  -28.5365  -49.1501 N.am      16 UNK        -0.5000 
     90 CA         -3.8227  -29.2308  -48.8838 C.3       16 UNK         0.1400 
     91 CB         -3.5982  -30.7531  -48.7731 C.3       16 UNK        -0.1800 
     92 C          -4.9193  -28.8422  -49.8953 C.2       16 UNK         0.5000 
     93 O          -5.6129  -29.7118  -50.4276 O.2       16 UNK        -0.5000 
     94 N          -5.0345  -27.5358  -50.1578 N.am      17 UNK        -0.5000 
     95 CA         -5.9414  -26.9531  -51.1408 C.3       17 UNK         0.1400 
     96 CB         -5.1271  -26.5947  -52.3964 C.3       17 UNK        -0.1800 
     97 C          -6.6261  -25.7071  -50.5621 C.2       17 UNK         0.5000 
     98 O          -6.1852  -25.1678  -49.5445 O.2       17 UNK        -0.5000 
     99 N          -7.6837  -25.2496  -51.2430 N.am      18 UNK        -0.5000 
    100 CA        -8.3098  -23.9511  -50.9976 C.3       18 UNK         0.1400 
    101 CB        -9.6573  -23.8894  -51.7332 C.3       18 UNK        -0.1800 
    102 C         -7.3808  -22.8188  -51.4711 C.2       18 UNK         0.5000 
    103 O         -6.7508  -22.9520  -52.5235 O.2       18 UNK        -0.5000 
    104 N         -7.3103  -21.7339  -50.6907 N.am      19 UNK        -0.5000 
    105 CA        -6.4400  -20.5896  -50.9634 C.3       19 UNK         0.1400 
    106 CB        -6.3748  -19.6953  -49.7160 C.3       19 UNK        -0.1800 
    107 C         -6.8798  -19.7933  -52.2063 C.2       19 UNK         0.5000 
    108 O         -6.0378  -19.4581  -53.0401 O.2       19 UNK        -0.5000 
    109 N         -8.1924  -19.5391  -52.3215 N.am      20 UNK        -0.5000 
    110 CA        -8.8558  -18.8132  -53.4097 C.3       20 UNK         0.1400 
    111 CB        -8.8673  -19.6692  -54.6962 C.3       20 UNK        -0.1800 
    112 C         -8.2667  -17.3984  -53.6046 C.2       20 UNK         0.5000 
    113 O         -8.5761  -16.5051  -52.8152 O.2       20 UNK        -0.5000 
    114 N         -7.4280  -17.2228  -54.6345 N.am      21 UNK        -0.5000 
    115 CA        -6.7168  -15.9800  -54.9388 C.3       21 UNK         0.1400 
    116 CB        -6.2360  -16.0315  -56.3975 C.3       21 UNK        -0.1800 
    117 C         -5.5322  -15.6971  -53.9911 C.2       21 UNK         0.5000 
    118 O         -5.1197  -14.5417  -53.8803 O.2       21 UNK        -0.5000 
    119 N         -4.9968  -16.7383  -53.3392 N.am      22 UNK        -0.5000 
    120 CA        -3.9435  -16.6408  -52.3195 C.3       22 UNK         0.1400 
    121 C         -4.4755  -15.9684  -51.0200 C.2       22 UNK         0.5000 
    122 N         -3.7539  -15.0023  -50.4674 N.am      22 UNK        -0.7600 
    123 O         -5.5290  -16.3274  -50.5008 O.2       22 UNK        -0.5000 
    124 C124       -3.3186  -18.0384  -52.0661 C.3       23 UNK        -0.0398 
    125 S125       -1.9025  -18.0547  -50.9236 S.3       23 UNK        -0.2404 
    126 C126       -0.5083  -17.7446  -52.0414 C.3       23 UNK        -0.0205 
    127 H127        9.0893  -14.3390  -44.1710 H         1 UNK         0.0600 
    128 H128        8.6238  -15.8186  -45.0155 H         1 UNK         0.0600 
    129 H129        8.2180  -15.6119  -43.3093 H         1 UNK         0.0600 
    130 H130        6.8824  -15.4857  -46.3687 H         1 UNK         0.3000 
    131 H131        4.4849  -14.1134  -45.4635 H         1 UNK         0.0600 
    132 H132        5.0337  -15.3879  -48.1789 H         1 UNK         0.0800 
    133 H133        4.4207  -16.2561  -46.8043 H         1 UNK         0.0800 
    134 H134        3.6865  -14.5406  -49.8551 H         1 UNK         0.0800 
    135 H135        2.0113  -14.0702  -49.7994 H         1 UNK         0.0800 
    136 H136        0.5249  -15.4830  -50.9403 H         1 UNK         0.1150 
    137 H137        1.2741  -19.6805  -51.3438 H         1 UNK         0.1150 
    138 H138        4.0057  -17.2310  -49.1410 H         1 UNK         0.1150 
    139 H139        3.5062  -20.5477  -50.6643 H         1 UNK         0.0800 
    140 H140        4.6266  -19.5199  -49.8112 H         1 UNK         0.0800 
    141 H141        1.5278  -21.6310  -49.7336 H         1 UNK         0.0800 
    142 H142        0.7271  -20.4157  -48.7678 H         1 UNK         0.0800 
    143 H143        1.8031  -23.0305  -47.6020 H         1 UNK         0.0600 
    144 H144        0.6012  -20.8037  -46.3135 H         1 UNK         0.3000 
    145 H145       -0.7918  -22.6177  -43.5312 H         1 UNK         0.0600 
    146 H146        0.5552  -20.9403  -42.2967 H         1 UNK         0.0600 
    147 H147        1.5730  -22.2232  -42.9311 H         1 UNK         0.0600 
    148 H148        1.5498  -20.6574  -43.7244 H         1 UNK         0.0600 
    149 H149       -0.8481  -19.8486  -44.1265 H         1 UNK         0.3000 
    150 H150       -3.8015  -19.9092  -46.1815 H         1 UNK         0.0600 
    151 H151       -4.5970  -19.9685  -43.8104 H         1 UNK         0.0600 
    152 H152       -4.5750  -18.3311  -44.4468 H         1 UNK         0.0600 
    153 H153       -3.3079  -18.8651  -43.3441 H         1 UNK         0.0600 
    154 H154       -2.2362  -17.7251  -45.2871 H         1 UNK         0.3000 
    155 H155        0.1598  -17.7454  -47.9855 H         1 UNK         0.0600 
    156 H156       -1.9191  -16.4421  -48.6091 H         1 UNK         0.0600 
    157 H157       -1.9866  -15.7998  -46.9821 H         1 UNK         0.0600 
    158 H158       -0.6202  -15.4137  -48.0255 H         1 UNK         0.0600 
    159 H159        0.0511  -16.1190  -45.6755 H         1 UNK         0.3000 
    160 H160        1.8893  -18.2211  -43.4292 H         1 UNK         0.0600 
    161 H161        2.5441  -15.5769  -44.8120 H         1 UNK         0.0600 
    162 H162        3.5920  -16.9896  -44.7207 H         1 UNK         0.0600 
    163 H163        3.1877  -16.1048  -43.2588 H         1 UNK         0.0600 
    164 H164        0.5801  -15.6326  -43.2809 H         1 UNK         0.3000 
    165 H165       -2.4257  -16.8845  -41.8173 H         1 UNK         0.0600 
    166 H166       -1.7498  -15.3485  -39.9942 H         1 UNK         0.0600 
    167 H167       -0.7909  -16.8184  -39.9286 H         1 UNK         0.0600 
    168 H168       -0.0840  -15.3421  -40.5743 H         1 UNK         0.0600 
    169 H169       -1.4685  -14.2347  -42.3109 H         1 UNK         0.3000 
    170 H170       -2.6599  -13.9192  -45.6448 H         1 UNK         0.0600 
    171 H171       -4.7187  -13.6486  -44.2521 H         1 UNK         0.0600 
    172 H172       -3.7936  -12.7723  -43.0386 H         1 UNK         0.0600 
    173 H173       -4.0042  -12.0959  -44.6542 H         1 UNK         0.0600 
    174 H174       -1.6049  -11.9495  -43.9631 H         1 UNK         0.3000 
    175 H175        0.4125  -11.1625  -44.0851 H         1 UNK         0.0600 
    176 H176        2.5125  -13.3896  -43.9025 H         1 UNK         0.0600 
    177 H177        2.6687  -11.7512  -43.2780 H         1 UNK         0.0600 
    178 H178        1.4915  -12.8497  -42.5754 H         1 UNK         0.0600 
    179 H179        2.4517  -12.0861  -45.9377 H         1 UNK         0.3000 
    180 H180        1.7017  -11.3523  -48.6375 H         1 UNK         0.0600 
    181 H181        1.7186   -8.3737  -47.9182 H         1 UNK         0.0600 
    182 H182        0.5568   -9.1980  -48.9474 H         1 UNK         0.0600 
    183 H183        2.2255   -9.0429  -49.4688 H         1 UNK         0.0600 
    184 H184        3.8448  -11.4237  -48.1058 H         1 UNK         0.3000 
    185 H185        6.0795  -10.3297  -47.4538 H         1 UNK         0.0600 
    186 H186        6.3214   -8.5736  -45.7121 H         1 UNK         0.0600 
    187 H187        5.7628   -9.6919  -44.4720 H         1 UNK         0.0600 
    188 H188        7.2873   -9.9834  -45.3078 H         1 UNK         0.0600 
    189 H189        5.5415  -12.0423  -45.1241 H         1 UNK         0.3000 
    190 H190       -1.5270  -21.6932  -47.9017 H         1 UNK         0.3000 
    191 H191       -2.4470  -23.5593  -49.8398 H         1 UNK         0.0600 
    192 H192       -4.0411  -22.0218  -47.7232 H         1 UNK         0.0600 
    193 H193       -4.7019  -22.7883  -49.1608 H         1 UNK         0.0600 
    194 H194       -3.6072  -21.4217  -49.3216 H         1 UNK         0.0600 
    195 H195       -2.5463  -23.6604  -46.2557 H         1 UNK         0.3000 
    196 H196       -3.8579  -26.1578  -45.9873 H         1 UNK         0.0600 
    197 H197       -2.9756  -26.0786  -43.6584 H         1 UNK         0.0600 
    198 H198       -3.6374  -24.5220  -44.1356 H         1 UNK         0.0600 
    199 H199       -1.8925  -24.7635  -44.0951 H         1 UNK         0.0600 
    200 H200       -0.3443  -25.3787  -46.1766 H         1 UNK         0.3000 
    201 H201        0.6154  -28.0352  -45.8841 H         1 UNK         0.0600 
    202 H202        2.0504  -26.0459  -45.5732 H         1 UNK         0.0600 
    203 H203        1.8769  -25.6121  -47.2726 H         1 UNK         0.0600 
    204 H204        2.7316  -27.0816  -46.8180 H         1 UNK         0.0600 
    205 H205       -0.3573  -26.1900  -48.7869 H         1 UNK         0.3000 
    206 H206        0.2690  -28.2567  -50.6975 H         1 UNK         0.0600 
    207 H207        0.0813  -25.8491  -51.3069 H         1 UNK         0.0600 
    208 H208       -1.0621  -26.8106  -52.2322 H         1 UNK         0.0600 
    209 H209       -1.6263  -25.8518  -50.8702 H         1 UNK         0.0600 
    210 H210       -2.2754  -27.8851  -48.4309 H         1 UNK         0.3000 
    211 H211       -4.1664  -28.8771  -47.9108 H         1 UNK         0.0600 
    212 H212       -3.2943  -31.1904  -49.7245 H         1 UNK         0.0600 
    213 H213       -4.5107  -31.2596  -48.4569 H         1 UNK         0.0600 
    214 H214       -2.8280  -30.9831  -48.0367 H         1 UNK         0.0600 
    215 H215       -4.4704  -26.8676  -49.6372 H         1 UNK         0.3000 
    216 H216       -6.7244  -27.6651  -51.4098 H         1 UNK         0.0600 
    217 H217       -5.7614  -26.1653  -53.1727 H         1 UNK         0.0600 
    218 H218       -4.6483  -27.4779  -52.8199 H         1 UNK         0.0600 
    219 H219       -4.3453  -25.8678  -52.1711 H         1 UNK         0.0600 
    220 H220       -7.9651  -25.7268  -52.0869 H         1 UNK         0.3000 
    221 H221       -8.4918  -23.8458  -49.9258 H         1 UNK         0.0600 
    222 H222       -9.5333  -23.9935  -52.8120 H         1 UNK         0.0600 
    223 H223      -10.3285  -24.6787  -51.3943 H         1 UNK         0.0600 
    224 H224      -10.1575  -22.9373  -51.5515 H         1 UNK         0.0600 
    225 H225       -7.8576  -21.6977  -49.8428 H         1 UNK         0.3000 
    226 H226       -5.4345  -20.9711  -51.1545 H         1 UNK         0.0600 
    227 H227       -6.0501  -20.2585  -48.8410 H         1 UNK         0.0600 
    228 H228       -5.6607  -18.8845  -49.8546 H         1 UNK         0.0600 
    229 H229       -7.3415  -19.2459  -49.4861 H         1 UNK         0.0600 
    230 H230       -8.7965  -19.8469  -51.5733 H         1 UNK         0.3000 
    231 H231       -9.8933  -18.6720  -53.1031 H         1 UNK         0.0600 
    232 H232       -9.3699  -19.1468  -55.5113 H         1 UNK         0.0600 
    233 H233       -9.4061  -20.6027  -54.5335 H         1 UNK         0.0600 
    234 H234       -7.8638  -19.9284  -55.0348 H         1 UNK         0.0600 
    235 H235       -7.2073  -18.0223  -55.2105 H         1 UNK         0.3000 
    236 H236       -7.4186  -15.1489  -54.8419 H         1 UNK         0.0600 
    237 H237       -7.0726  -16.1585  -57.0848 H         1 UNK         0.0600 
    238 H238       -5.7272  -15.1073  -56.6745 H         1 UNK         0.0600 
    239 H239       -5.5373  -16.8528  -56.5618 H         1 UNK         0.0600 
    240 H240       -5.4276  -17.6524  -53.4421 H         1 UNK         0.3000 
    241 H241       -3.1586  -16.0045  -52.7330 H         1 UNK         0.0600 
    242 H242       -2.8872  -14.6914  -50.8760 H         1 UNK         0.3800 
    243 H243       -4.0915  -14.5639  -49.6257 H         1 UNK         0.3800 
    244 H244       -4.0619  -18.7101  -51.6415 H         1 UNK         0.0800 
    245 H245       -3.0108  -18.4903  -53.0101 H         1 UNK         0.0800 
    246 H246       -0.6949  -16.8413  -52.6239 H         1 UNK         0.0800 
    247 H247       -0.4189  -18.5658  -52.7543 H         1 UNK         0.0800 
@<TRIPOS>BOND
     1    1    2 1    
     2    1  127 1    
     3    1  128 1    
     4    1  129 1    
     5    2    3 2    
     6    2    4 am   BACKBONE|DICT|INTERRES
     7    4    5 1    
     8    4  130 1    
     9    5    6 1    
    10    5   65 1    
    11    5  131 1    
    12    6    7 1    
    13    6  132 1    
    14    6  133 1    
    15    7    8 1    
    16    8    9 1    
    17    8  134 1    
    18    8  135 1    
    19    9   10 ar   
    20    9   14 ar   
    21   10   11 ar   
    22   10  136 1    
    23   11   12 ar   
    24   11  126 1    
    25   12   13 ar   
    26   12  137 1    
    27   13   14 ar   
    28   13   15 1    
    29   14  138 1    
    30   15   16 1    
    31   15  139 1    
    32   15  140 1    
    33   16   17 1    
    34   17   18 1    
    35   17  141 1    
    36   17  142 1    
    37   18   19 1    
    38   18   67 1    
    39   18  143 1    
    40   19   20 am   BACKBONE|DICT|INTERRES
    41   19  144 1    
    42   20   21 2    
    43   20   22 1    
    44   22   23 1    
    45   22   24 1    
    46   22  145 1    
    47   23  146 1    
    48   23  147 1    
    49   23  148 1    
    50   24   25 am   BACKBONE|DICT|INTERRES
    51   24  149 1    
    52   25   26 2    
    53   25   27 1    
    54   27   28 1    
    55   27   29 1    
    56   27  150 1    
    57   28  151 1    
    58   28  152 1    
    59   28  153 1    
    60   29   30 am   BACKBONE|DICT|INTERRES
    61   29  154 1    
    62   30   31 2    
    63   30   32 1    
    64   32   33 1    
    65   32   34 1    
    66   32  155 1    
    67   33  156 1    
    68   33  157 1    
    69   33  158 1    
    70   34   35 am   BACKBONE|DICT|INTERRES
    71   34  159 1    
    72   35   36 2    
    73   35   37 1    
    74   37   38 1    
    75   37   39 1    
    76   37  160 1    
    77   38  161 1    
    78   38  162 1    
    79   38  163 1    
    80   39   40 am   BACKBONE|DICT|INTERRES
    81   39  164 1    
    82   40   41 2    
    83   40   42 1    
    84   42   43 1    
    85   42   44 1    
    86   42  165 1    
    87   43  166 1    
    88   43  167 1    
    89   43  168 1    
    90   44   45 am   BACKBONE|DICT|INTERRES
    91   44  169 1    
    92   45   46 2    
    93   45   47 1    
    94   47   48 1    
    95   47   49 1    
    96   47  170 1    
    97   48  171 1    
    98   48  172 1    
    99   48  173 1    
   100   49   50 am   BACKBONE|DICT|INTERRES
   101   49  174 1    
   102   50   51 2    
   103   50   52 1    
   104   52   53 1    
   105   52   54 1    
   106   52  175 1    
   107   53  176 1    
   108   53  177 1    
   109   53  178 1    
   110   54   55 am   BACKBONE|DICT|INTERRES
   111   54  179 1    
   112   55   56 2    
   113   55   57 1    
   114   57   58 1    
   115   57   59 1    
   116   57  180 1    
   117   58  181 1    
   118   58  182 1    
   119   58  183 1    
   120   59   60 am   BACKBONE|DICT|INTERRES
   121   59  184 1    
   122   60   61 2    
   123   60   62 1    
   124   62   63 1    
   125   62   64 1    
   126   62  185 1    
   127   63  186 1    
   128   63  187 1    
   129   63  188 1    
   130   64   65 am   BACKBONE|DICT|INTERRES
   131   64  189 1    
   132   65   66 2    
   133   67   68 2    
   134   67   69 am   BACKBONE|DICT|INTERRES
   135   69   70 1    
   136   69  190 1    
   137   70   71 1    
   138   70   72 1    
   139   70  191 1    
   140   71  192 1    
   141   71  193 1    
   142   71  194 1    
   143   72   73 2    
   144   72   74 am   BACKBONE|DICT|INTERRES
   145   74   75 1    
   146   74  195 1    
   147   75   76 1    
   148   75   77 1    
   149   75  196 1    
   150   76  197 1    
   151   76  198 1    
   152   76  199 1    
   153   77   78 2    
   154   77   79 am   BACKBONE|DICT|INTERRES
   155   79   80 1    
   156   79  200 1    
   157   80   81 1    
   158   80   82 1    
   159   80  201 1    
   160   81  202 1    
   161   81  203 1    
   162   81  204 1    
   163   82   83 2    
   164   82   84 am   BACKBONE|DICT|INTERRES
   165   84   85 1    
   166   84  205 1    
   167   85   86 1    
   168   85   87 1    
   169   85  206 1    
   170   86  207 1    
   171   86  208 1    
   172   86  209 1    
   173   87   88 2    
   174   87   89 am   BACKBONE|DICT|INTERRES
   175   89   90 1    
   176   89  210 1    
   177   90   91 1    
   178   90   92 1    
   179   90  211 1    
   180   91  212 1    
   181   91  213 1    
   182   91  214 1    
   183   92   93 2    
   184   92   94 am   BACKBONE|DICT|INTERRES
   185   94   95 1    
   186   94  215 1    
   187   95   96 1    
   188   95   97 1    
   189   95  216 1    
   190   96  217 1    
   191   96  218 1    
   192   96  219 1    
   193   97   98 2    
   194   97   99 am   BACKBONE|DICT|INTERRES
   195   99  100 1    
   196   99  220 1    
   197  100  101 1    
   198  100  102 1    
   199  100  221 1    
   200  101  222 1    
   201  101  223 1    
   202  101  224 1    
   203  102  103 2    
   204  102  104 am   BACKBONE|DICT|INTERRES
   205  104  105 1    
   206  104  225 1    
   207  105  106 1    
   208  105  107 1    
   209  105  226 1    
   210  106  227 1    
   211  106  228 1    
   212  106  229 1    
   213  107  108 2    
   214  107  109 am   BACKBONE|DICT|INTERRES
   215  109  110 1    
   216  109  230 1    
   217  110  111 1    
   218  110  112 1    
   219  110  231 1    
   220  111  232 1    
   221  111  233 1    
   222  111  234 1    
   223  112  113 2    
   224  112  114 am   BACKBONE|DICT|INTERRES
   225  114  115 1    
   226  114  235 1    
   227  115  116 1    
   228  115  117 1    
   229  115  236 1    
   230  116  237 1    
   231  116  238 1    
   232  116  239 1    
   233  117  118 2    
   234  117  119 am   BACKBONE|DICT|INTERRES
   235  119  120 1    
   236  119  240 1    
   237  120  121 1    
   238  120  124 1    
   239  120  241 1    
   240  121  122 am   BACKBONE|DICT|INTERRES
   241  121  123 2    
   242  122  242 1    
   243  122  243 1    
   244  124  125 1    
   245  124  244 1    
   246  124  245 1    
   247  125  126 1    
   248  126  246 1    
   249  126  247 1    
@<TRIPOS>SUBSTRUCTURE
     1 UNK         1 GROUP             0       ****    0 ROOT    
