@<TRIPOS>MOLECULE
3R540
247   249    1
SMALL
USER_CHARGES


@<TRIPOS>ATOM
      1 CA          4.0515  -15.6667  -46.4353 C.3       0 UNK        -0.1800 
      2 C           2.6056  -16.0780  -46.2034 C.2       0 UNK         0.5000 
      3 O           2.2329  -16.3838  -45.0711 O.2       0 UNK        -0.5000 
      4 N           1.7942  -16.1109  -47.2676 N.am      1 UNK        -0.5000 
      5 CA          0.3757  -16.4687  -47.2108 C.3       1 UNK         0.1400 
      6 C6         -0.2395  -16.7325  -48.6116 C.3       23 UNK        -0.0398 
      7 S7          0.5556  -18.0909  -49.5308 S.3       23 UNK        -0.2404 
      8 C8         -0.8898  -19.1324  -49.9108 C.3       23 UNK        -0.0205 
      9 C9         -0.5644  -20.1921  -50.9496 C.ar      23 UNK        -0.0193 
     10 C10        -0.3754  -19.8293  -52.2858 C.ar      23 UNK        -0.1150 
     11 C11        -0.1470  -20.8043  -53.2607 C.ar      23 UNK        -0.0193 
     12 C12        -0.0944  -22.1513  -52.8877 C.ar      23 UNK        -0.1150 
     13 C13        -0.2685  -22.5251  -51.5524 C.ar      23 UNK        -0.0193 
     14 C14        -0.5017  -21.5399  -50.5893 C.ar      23 UNK        -0.1150 
     15 C15        -0.2558  -23.9943  -51.1564 C.3       23 UNK        -0.0205 
     16 S16         1.4232  -24.6884  -51.0013 S.3       23 UNK        -0.2404 
     17 C17         2.1893  -23.6871  -49.6799 C.3       23 UNK        -0.0398 
     18 CA          1.9133  -24.2225  -48.2492 C.3       11 UNK         0.1400 
     19 N           3.0460  -23.9853  -47.3502 N.am      11 UNK        -0.5000 
     20 C           3.1558  -24.4806  -46.1086 C.2       10 UNK         0.5000 
     21 O           2.3385  -25.2477  -45.6003 O.2       10 UNK        -0.5000 
     22 CA          4.3574  -23.9896  -45.2797 C.3       10 UNK         0.1400 
     23 CB          5.5849  -24.8785  -45.5284 C.3       10 UNK        -0.1800 
     24 N           4.7089  -22.5886  -45.5390 N.am      10 UNK        -0.5000 
     25 C           3.8991  -21.5492  -45.2980 C.2       9 UNK         0.5000 
     26 O           2.7460  -21.6655  -44.8776 O.2       9 UNK        -0.5000 
     27 CA          4.4459  -20.1499  -45.6288 C.3       9 UNK         0.1400 
     28 CB          3.9391  -19.6845  -47.0034 C.3       9 UNK        -0.1800 
     29 N           4.0297  -19.1834  -44.6167 N.am      9 UNK        -0.5000 
     30 C           4.5083  -19.1369  -43.3657 C.2       8 UNK         0.5000 
     31 O           5.4516  -19.8212  -42.9667 O.2       8 UNK        -0.5000 
     32 CA          3.8089  -18.1690  -42.3954 C.3       8 UNK         0.1400 
     33 CB          4.5271  -16.8111  -42.3716 C.3       8 UNK        -0.1800 
     34 N           2.4072  -17.9579  -42.7518 N.am      8 UNK        -0.5000 
     35 C           1.4092  -18.8068  -42.4766 C.2       7 UNK         0.5000 
     36 O           1.5576  -19.8503  -41.8392 O.2       7 UNK        -0.5000 
     37 CA          0.0130  -18.3923  -42.9924 C.3       7 UNK         0.1400 
     38 CB         -1.1275  -19.2577  -42.4205 C.3       7 UNK        -0.1800 
     39 N          -0.2737  -16.9660  -42.8082 N.am      7 UNK        -0.5000 
     40 C          -0.2247  -16.2748  -41.6575 C.2       6 UNK         0.5000 
     41 O           0.0322  -16.7628  -40.5567 O.2       6 UNK        -0.5000 
     42 CA         -0.5407  -14.7781  -41.7642 C.3       6 UNK         0.1400 
     43 CB          0.5378  -14.0406  -42.5766 C.3       6 UNK        -0.1800 
     44 N          -1.8536  -14.6013  -42.3806 N.am      6 UNK        -0.5000 
     45 C          -3.0042  -14.5417  -41.6940 C.2       5 UNK         0.5000 
     46 O          -3.0700  -14.4997  -40.4649 O.2       5 UNK        -0.5000 
     47 CA         -4.3053  -14.5517  -42.5171 C.3       5 UNK         0.1400 
     48 CB         -4.7325  -13.1189  -42.8683 C.3       5 UNK        -0.1800 
     49 N          -4.1670  -15.3510  -43.7372 N.am      5 UNK        -0.5000 
     50 C          -4.1696  -16.6941  -43.7456 C.2       4 UNK         0.5000 
     51 O          -4.3982  -17.3683  -42.7406 O.2       4 UNK        -0.5000 
     52 CA         -3.8121  -17.4144  -45.0628 C.3       4 UNK         0.1400 
     53 CB         -4.6268  -18.7022  -45.2925 C.3       4 UNK        -0.1800 
     54 N          -3.8181  -16.5460  -46.2419 N.am      4 UNK        -0.5000 
     55 C          -4.8645  -15.9786  -46.8595 C.2       3 UNK         0.5000 
     56 O          -6.0395  -16.1656  -46.5424 O.2       3 UNK        -0.5000 
     57 CA         -4.5137  -15.0115  -48.0158 C.3       3 UNK         0.1400 
     58 CB         -5.6447  -14.0105  -48.3267 C.3       3 UNK        -0.1800 
     59 N          -3.2343  -14.3096  -47.8302 N.am      3 UNK        -0.5000 
     60 C          -2.8848  -13.5326  -46.7923 C.2       2 UNK         0.5000 
     61 O          -3.6415  -13.2619  -45.8615 O.2       2 UNK        -0.5000 
     62 CA         -1.4077  -13.0812  -46.7535 C.3       2 UNK         0.1400 
     63 CB         -1.0194  -12.4134  -45.4208 C.3       2 UNK        -0.1800 
     64 N          -0.4946  -14.1894  -47.0704 N.am      2 UNK        -0.5000 
     65 C          -0.4400  -15.3907  -46.4707 C.2       1 UNK         0.5000 
     66 O          -1.0372  -15.6796  -45.4302 O.2       1 UNK        -0.5000 
     67 C           0.6156  -23.6259  -47.6682 C.2       11 UNK         0.5000 
     68 O          -0.4137  -24.2986  -47.6476 O.2       11 UNK        -0.5000 
     69 N           0.6988  -22.3820  -47.1744 N.am      12 UNK        -0.5000 
     70 CA         -0.4144  -21.6519  -46.5700 C.3       12 UNK         0.1400 
     71 CB         -0.0090  -20.1914  -46.3511 C.3       12 UNK        -0.1800 
     72 C          -0.8808  -22.2825  -45.2522 C.2       12 UNK         0.5000 
     73 O          -2.0850  -22.4035  -45.0389 O.2       12 UNK        -0.5000 
     74 N           0.0767  -22.7084  -44.4189 N.am      13 UNK        -0.5000 
     75 CA         -0.1712  -23.4233  -43.1674 C.3       13 UNK         0.1400 
     76 CB          1.1602  -23.6179  -42.4268 C.3       13 UNK        -0.1800 
     77 C          -0.8834  -24.7744  -43.3762 C.2       13 UNK         0.5000 
     78 O          -1.7194  -25.1512  -42.5541 O.2       13 UNK        -0.5000 
     79 N          -0.5493  -25.4682  -44.4724 N.am      14 UNK        -0.5000 
     80 CA         -1.1565  -26.7360  -44.8630 C.3       14 UNK         0.1400 
     81 CB         -0.1981  -27.4919  -45.7981 C.3       14 UNK        -0.1800 
     82 C          -2.5359  -26.5535  -45.5219 C.2       14 UNK         0.5000 
     83 O          -3.5023  -27.1815  -45.0869 O.2       14 UNK        -0.5000 
     84 N          -2.5968  -25.7382  -46.5831 N.am      15 UNK        -0.5000 
     85 CA         -3.7500  -25.6595  -47.4815 C.3       15 UNK         0.1400 
     86 CB         -3.2540  -25.3128  -48.8947 C.3       15 UNK        -0.1800 
     87 C          -4.8188  -24.6423  -47.0514 C.2       15 UNK         0.5000 
     88 O          -5.9797  -24.8154  -47.4246 O.2       15 UNK        -0.5000 
     89 N          -4.4141  -23.5831  -46.3321 N.am      16 UNK        -0.5000 
     90 CA         -5.2137  -22.3932  -46.0018 C.3       16 UNK         0.1400 
     91 CB         -6.3382  -22.7410  -45.0048 C.3       16 UNK        -0.1800 
     92 C          -5.7202  -21.6463  -47.2591 C.2       16 UNK         0.5000 
     93 O          -6.8406  -21.1330  -47.2711 O.2       16 UNK        -0.5000 
     94 N          -4.8882  -21.6320  -48.3100 N.am      17 UNK        -0.5000 
     95 CA         -5.2018  -21.0705  -49.6217 C.3       17 UNK         0.1400 
     96 CB         -4.1989  -21.6191  -50.6460 C.3       17 UNK        -0.1800 
     97 C          -5.1886  -19.5315  -49.6285 C.2       17 UNK         0.5000 
     98 O          -4.3961  -18.9092  -48.9186 O.2       17 UNK        -0.5000 
     99 N          -6.0416  -18.9534  -50.4821 N.am      18 UNK        -0.5000 
    100 CA        -6.2488  -17.5109  -50.6274 C.3       18 UNK         0.1400 
    101 CB        -7.6338  -17.2832  -51.2555 C.3       18 UNK        -0.1800 
    102 C         -5.1618  -16.7856  -51.4492 C.2       18 UNK         0.5000 
    103 O         -5.2215  -15.5602  -51.5473 O.2       18 UNK        -0.5000 
    104 N         -4.2112  -17.5351  -52.0311 N.am      19 UNK        -0.5000 
    105 CA        -3.1541  -17.0695  -52.9407 C.3       19 UNK         0.1400 
    106 CB        -2.1775  -16.1067  -52.2289 C.3       19 UNK        -0.1800 
    107 C         -3.7421  -16.4738  -54.2370 C.2       19 UNK         0.5000 
    108 O         -3.3898  -15.3613  -54.6352 O.2       19 UNK        -0.5000 
    109 N         -4.6602  -17.2263  -54.8586 N.am      20 UNK        -0.5000 
    110 CA        -5.4366  -16.8482  -56.0416 C.3       20 UNK         0.1400 
    111 CB        -6.6647  -17.7721  -56.1312 C.3       20 UNK        -0.1800 
    112 C         -4.5982  -16.8452  -57.3391 C.2       20 UNK         0.5000 
    113 O         -4.8405  -17.6518  -58.2384 O.2       20 UNK        -0.5000 
    114 N         -3.6135  -15.9383  -57.3948 N.am      21 UNK        -0.5000 
    115 CA        -2.6881  -15.6639  -58.5024 C.3       21 UNK         0.1400 
    116 CB        -3.4540  -15.1714  -59.7483 C.3       21 UNK        -0.1800 
    117 C         -1.7135  -16.8180  -58.8271 C.2       21 UNK         0.5000 
    118 O         -1.1009  -16.8139  -59.8964 O.2       21 UNK        -0.5000 
    119 N         -1.5644  -17.7721  -57.9001 N.am      22 UNK        -0.5000 
    120 CA        -0.6588  -18.9262  -58.0115 C.3       22 UNK         0.1400 
    121 C          0.8331  -18.6279  -57.6775 C.2       22 UNK         0.5000 
    122 N          1.1865  -17.4420  -57.1967 N.am      22 UNK        -0.7600 
    123 O          1.6892  -19.4868  -57.8695 O.2       22 UNK        -0.5000 
    124 C124       -1.2021  -20.1565  -57.2395 C.3       23 UNK        -0.0398 
    125 S125       -1.5363  -19.8695  -55.4643 S.3       23 UNK        -0.2404 
    126 C126        0.0367  -20.4041  -54.7155 C.3       23 UNK        -0.0205 
    127 H127        4.7244  -16.4471  -46.0802 H         1 UNK         0.0600 
    128 H128        4.2712  -14.7511  -45.8866 H         1 UNK         0.0600 
    129 H129        4.2590  -15.4920  -47.4912 H         1 UNK         0.0600 
    130 H130        2.1592  -15.8808  -48.1808 H         1 UNK         0.3000 
    131 H131        0.2890  -17.3873  -46.6289 H         1 UNK         0.0600 
    132 H132       -1.3044  -16.9528  -48.5140 H         1 UNK         0.0800 
    133 H133       -0.1735  -15.8442  -49.2417 H         1 UNK         0.0800 
    134 H134       -1.2614  -19.5900  -48.9934 H         1 UNK         0.0800 
    135 H135       -1.7096  -18.5216  -50.2869 H         1 UNK         0.0800 
    136 H136       -0.4197  -18.7875  -52.5696 H         1 UNK         0.1150 
    137 H137        0.0752  -22.9127  -53.6362 H         1 UNK         0.1150 
    138 H138       -0.6649  -21.8256  -49.5623 H         1 UNK         0.1150 
    139 H139       -0.8000  -24.1443  -50.2258 H         1 UNK         0.0800 
    140 H140       -0.7985  -24.5700  -51.9076 H         1 UNK         0.0800 
    141 H141        3.2606  -23.7293  -49.8810 H         1 UNK         0.0800 
    142 H142        1.9290  -22.6336  -49.7904 H         1 UNK         0.0800 
    143 H143        1.7808  -25.3056  -48.3010 H         1 UNK         0.0600 
    144 H144        3.7713  -23.3663  -47.6805 H         1 UNK         0.3000 
    145 H145        4.0843  -24.0734  -44.2257 H         1 UNK         0.0600 
    146 H146        6.4143  -24.5963  -44.8795 H         1 UNK         0.0600 
    147 H147        5.3563  -25.9254  -45.3238 H         1 UNK         0.0600 
    148 H148        5.9284  -24.8131  -46.5615 H         1 UNK         0.0600 
    149 H149        5.6401  -22.4162  -45.8899 H         1 UNK         0.3000 
    150 H150        5.5371  -20.1869  -45.6512 H         1 UNK         0.0600 
    151 H151        4.2116  -20.3949  -47.7848 H         1 UNK         0.0600 
    152 H152        4.3734  -18.7231  -47.2774 H         1 UNK         0.0600 
    153 H153        2.8547  -19.5753  -47.0216 H         1 UNK         0.0600 
    154 H154        3.2371  -18.5990  -44.8393 H         1 UNK         0.3000 
    155 H155        3.8588  -18.6012  -41.3937 H         1 UNK         0.0600 
    156 H156        4.0628  -16.1330  -41.6552 H         1 UNK         0.0600 
    157 H157        4.5097  -16.3280  -43.3492 H         1 UNK         0.0600 
    158 H158        5.5719  -16.9270  -42.0805 H         1 UNK         0.0600 
    159 H159        2.2109  -17.1582  -43.3488 H         1 UNK         0.3000 
    160 H160        0.0335  -18.5426  -44.0695 H         1 UNK         0.0600 
    161 H161       -1.1986  -19.1657  -41.3364 H         1 UNK         0.0600 
    162 H162       -0.9717  -20.3116  -42.6518 H         1 UNK         0.0600 
    163 H163       -2.0904  -18.9755  -42.8440 H         1 UNK         0.0600 
    164 H164       -0.4719  -16.4533  -43.6615 H         1 UNK         0.3000 
    165 H165       -0.5407  -14.3563  -40.7567 H         1 UNK         0.0600 
    166 H166        0.6010  -14.3997  -43.6040 H         1 UNK         0.0600 
    167 H167        0.3411  -12.9690  -42.6074 H         1 UNK         0.0600 
    168 H168        1.5219  -14.1760  -42.1262 H         1 UNK         0.0600 
    169 H169       -1.8969  -14.6719  -43.3880 H         1 UNK         0.3000 
    170 H170       -5.0925  -14.9918  -41.9011 H         1 UNK         0.0600 
    171 H171       -4.9842  -12.5597  -41.9665 H         1 UNK         0.0600 
    172 H172       -3.9376  -12.5714  -43.3755 H         1 UNK         0.0600 
    173 H173       -5.6117  -13.1123  -43.5129 H         1 UNK         0.0600 
    174 H174       -3.9922  -14.8402  -44.5961 H         1 UNK         0.3000 
    175 H175       -2.7730  -17.7228  -44.9420 H         1 UNK         0.0600 
    176 H176       -4.4877  -19.4055  -44.4708 H         1 UNK         0.0600 
    177 H177       -5.6954  -18.5040  -45.3740 H         1 UNK         0.0600 
    178 H178       -4.3062  -19.2039  -46.2046 H         1 UNK         0.0600 
    179 H179       -2.8986  -16.2598  -46.5432 H         1 UNK         0.3000 
    180 H180       -4.3775  -15.6425  -48.8928 H         1 UNK         0.0600 
    181 H181       -5.8670  -13.3726  -47.4707 H         1 UNK         0.0600 
    182 H182       -6.5646  -14.5297  -48.5980 H         1 UNK         0.0600 
    183 H183       -5.3800  -13.3680  -49.1665 H         1 UNK         0.0600 
    184 H184       -2.5465  -14.4629  -48.5530 H         1 UNK         0.3000 
    185 H185       -1.2884  -12.3387  -47.5438 H         1 UNK         0.0600 
    186 H186        0.0391  -12.1547  -45.3985 H         1 UNK         0.0600 
    187 H187       -1.5848  -11.4936  -45.2676 H         1 UNK         0.0600 
    188 H188       -1.2258  -13.0627  -44.5732 H         1 UNK         0.0600 
    189 H189        0.0812  -14.0444  -47.8878 H         1 UNK         0.3000 
    190 H190        1.5978  -21.9252  -47.1566 H         1 UNK         0.3000 
    191 H191       -1.2538  -21.6741  -47.2677 H         1 UNK         0.0600 
    192 H192        0.3888  -19.7579  -47.2642 H         1 UNK         0.0600 
    193 H193       -0.8673  -19.5922  -46.0447 H         1 UNK         0.0600 
    194 H194        0.7609  -20.0963  -45.5864 H         1 UNK         0.0600 
    195 H195        1.0473  -22.5117  -44.6500 H         1 UNK         0.3000 
    196 H196       -0.8188  -22.7987  -42.5492 H         1 UNK         0.0600 
    197 H197        1.0042  -24.1062  -41.4642 H         1 UNK         0.0600 
    198 H198        1.6464  -22.6614  -42.2328 H         1 UNK         0.0600 
    199 H199        1.8525  -24.2341  -43.0008 H         1 UNK         0.0600 
    200 H200        0.1804  -25.1069  -45.0746 H         1 UNK         0.3000 
    201 H201       -1.2932  -27.3473  -43.9683 H         1 UNK         0.0600 
    202 H202        0.7463  -27.7090  -45.2985 H         1 UNK         0.0600 
    203 H203        0.0280  -26.9195  -46.6985 H         1 UNK         0.0600 
    204 H204       -0.6269  -28.4443  -46.1119 H         1 UNK         0.0600 
    205 H205       -1.7573  -25.2451  -46.8831 H         1 UNK         0.3000 
    206 H206       -4.2291  -26.6399  -47.5314 H         1 UNK         0.0600 
    207 H207       -2.4991  -26.0216  -49.2358 H         1 UNK         0.0600 
    208 H208       -4.0733  -25.3379  -49.6142 H         1 UNK         0.0600 
    209 H209       -2.8188  -24.3138  -48.9319 H         1 UNK         0.0600 
    210 H210       -3.4459  -23.5381  -46.0312 H         1 UNK         0.3000 
    211 H211       -4.5409  -21.7009  -45.4969 H         1 UNK         0.0600 
    212 H212       -7.0986  -23.3799  -45.4543 H         1 UNK         0.0600 
    213 H213       -6.8376  -21.8384  -44.6509 H         1 UNK         0.0600 
    214 H214       -5.9415  -23.2553  -44.1294 H         1 UNK         0.0600 
    215 H215       -3.9791  -22.0541  -48.2057 H         1 UNK         0.3000 
    216 H216       -6.2001  -21.4127  -49.9032 H         1 UNK         0.0600 
    217 H217       -4.2156  -22.7088  -50.6759 H         1 UNK         0.0600 
    218 H218       -3.1849  -21.3052  -50.4084 H         1 UNK         0.0600 
    219 H219       -4.4247  -21.2638  -51.6521 H         1 UNK         0.0600 
    220 H220       -6.6397  -19.5423  -51.0441 H         1 UNK         0.3000 
    221 H221       -6.2550  -17.0641  -49.6313 H         1 UNK         0.0600 
    222 H222       -7.6932  -17.7006  -52.2616 H         1 UNK         0.0600 
    223 H223       -8.4202  -17.7399  -50.6542 H         1 UNK         0.0600 
    224 H224       -7.8633  -16.2192  -51.3282 H         1 UNK         0.0600 
    225 H225       -4.2566  -18.5322  -51.8824 H         1 UNK         0.3000 
    226 H226       -2.5894  -17.9541  -53.2358 H         1 UNK         0.0600 
    227 H227       -1.7983  -16.5280  -51.3010 H         1 UNK         0.0600 
    228 H228       -1.3155  -15.8943  -52.8622 H         1 UNK         0.0600 
    229 H229       -2.6457  -15.1517  -51.9897 H         1 UNK         0.0600 
    230 H230       -4.8693  -18.1342  -54.4707 H         1 UNK         0.3000 
    231 H231       -5.8039  -15.8299  -55.8971 H         1 UNK         0.0600 
    232 H232       -7.2932  -17.5067  -56.9823 H         1 UNK         0.0600 
    233 H233       -7.2833  -17.6934  -55.2369 H         1 UNK         0.0600 
    234 H234       -6.3757  -18.8174  -56.2485 H         1 UNK         0.0600 
    235 H235       -3.4630  -15.3883  -56.5523 H         1 UNK         0.3000 
    236 H236       -2.0604  -14.8393  -58.1622 H         1 UNK         0.0600 
    237 H237       -4.1219  -14.3465  -59.5004 H         1 UNK         0.0600 
    238 H238       -2.7671  -14.8095  -60.5142 H         1 UNK         0.0600 
    239 H239       -4.0520  -15.9650  -60.1970 H         1 UNK         0.0600 
    240 H240       -2.0983  -17.7079  -57.0463 H         1 UNK         0.3000 
    241 H241       -0.6460  -19.2192  -59.0631 H         1 UNK         0.0600 
    242 H242        0.4969  -16.7261  -57.0374 H         1 UNK         0.3800 
    243 H243        2.1564  -17.2585  -56.9929 H         1 UNK         0.3800 
    244 H244       -0.5419  -21.0164  -57.3624 H         1 UNK         0.0800 
    245 H245       -2.1462  -20.4617  -57.6926 H         1 UNK         0.0800 
    246 H246        0.4552  -21.2384  -55.2802 H         1 UNK         0.0800 
    247 H247        0.7633  -19.5931  -54.7819 H         1 UNK         0.0800 
@<TRIPOS>BOND
     1    1    2 1    
     2    1  127 1    
     3    1  128 1    
     4    1  129 1    
     5    2    3 2    
     6    2    4 am   BACKBONE|DICT|INTERRES
     7    4    5 1    
     8    4  130 1    
     9    5    6 1    
    10    5   65 1    
    11    5  131 1    
    12    6    7 1    
    13    6  132 1    
    14    6  133 1    
    15    7    8 1    
    16    8    9 1    
    17    8  134 1    
    18    8  135 1    
    19    9   10 ar   
    20    9   14 ar   
    21   10   11 ar   
    22   10  136 1    
    23   11   12 ar   
    24   11  126 1    
    25   12   13 ar   
    26   12  137 1    
    27   13   14 ar   
    28   13   15 1    
    29   14  138 1    
    30   15   16 1    
    31   15  139 1    
    32   15  140 1    
    33   16   17 1    
    34   17   18 1    
    35   17  141 1    
    36   17  142 1    
    37   18   19 1    
    38   18   67 1    
    39   18  143 1    
    40   19   20 am   BACKBONE|DICT|INTERRES
    41   19  144 1    
    42   20   21 2    
    43   20   22 1    
    44   22   23 1    
    45   22   24 1    
    46   22  145 1    
    47   23  146 1    
    48   23  147 1    
    49   23  148 1    
    50   24   25 am   BACKBONE|DICT|INTERRES
    51   24  149 1    
    52   25   26 2    
    53   25   27 1    
    54   27   28 1    
    55   27   29 1    
    56   27  150 1    
    57   28  151 1    
    58   28  152 1    
    59   28  153 1    
    60   29   30 am   BACKBONE|DICT|INTERRES
    61   29  154 1    
    62   30   31 2    
    63   30   32 1    
    64   32   33 1    
    65   32   34 1    
    66   32  155 1    
    67   33  156 1    
    68   33  157 1    
    69   33  158 1    
    70   34   35 am   BACKBONE|DICT|INTERRES
    71   34  159 1    
    72   35   36 2    
    73   35   37 1    
    74   37   38 1    
    75   37   39 1    
    76   37  160 1    
    77   38  161 1    
    78   38  162 1    
    79   38  163 1    
    80   39   40 am   BACKBONE|DICT|INTERRES
    81   39  164 1    
    82   40   41 2    
    83   40   42 1    
    84   42   43 1    
    85   42   44 1    
    86   42  165 1    
    87   43  166 1    
    88   43  167 1    
    89   43  168 1    
    90   44   45 am   BACKBONE|DICT|INTERRES
    91   44  169 1    
    92   45   46 2    
    93   45   47 1    
    94   47   48 1    
    95   47   49 1    
    96   47  170 1    
    97   48  171 1    
    98   48  172 1    
    99   48  173 1    
   100   49   50 am   BACKBONE|DICT|INTERRES
   101   49  174 1    
   102   50   51 2    
   103   50   52 1    
   104   52   53 1    
   105   52   54 1    
   106   52  175 1    
   107   53  176 1    
   108   53  177 1    
   109   53  178 1    
   110   54   55 am   BACKBONE|DICT|INTERRES
   111   54  179 1    
   112   55   56 2    
   113   55   57 1    
   114   57   58 1    
   115   57   59 1    
   116   57  180 1    
   117   58  181 1    
   118   58  182 1    
   119   58  183 1    
   120   59   60 am   BACKBONE|DICT|INTERRES
   121   59  184 1    
   122   60   61 2    
   123   60   62 1    
   124   62   63 1    
   125   62   64 1    
   126   62  185 1    
   127   63  186 1    
   128   63  187 1    
   129   63  188 1    
   130   64   65 am   BACKBONE|DICT|INTERRES
   131   64  189 1    
   132   65   66 2    
   133   67   68 2    
   134   67   69 am   BACKBONE|DICT|INTERRES
   135   69   70 1    
   136   69  190 1    
   137   70   71 1    
   138   70   72 1    
   139   70  191 1    
   140   71  192 1    
   141   71  193 1    
   142   71  194 1    
   143   72   73 2    
   144   72   74 am   BACKBONE|DICT|INTERRES
   145   74   75 1    
   146   74  195 1    
   147   75   76 1    
   148   75   77 1    
   149   75  196 1    
   150   76  197 1    
   151   76  198 1    
   152   76  199 1    
   153   77   78 2    
   154   77   79 am   BACKBONE|DICT|INTERRES
   155   79   80 1    
   156   79  200 1    
   157   80   81 1    
   158   80   82 1    
   159   80  201 1    
   160   81  202 1    
   161   81  203 1    
   162   81  204 1    
   163   82   83 2    
   164   82   84 am   BACKBONE|DICT|INTERRES
   165   84   85 1    
   166   84  205 1    
   167   85   86 1    
   168   85   87 1    
   169   85  206 1    
   170   86  207 1    
   171   86  208 1    
   172   86  209 1    
   173   87   88 2    
   174   87   89 am   BACKBONE|DICT|INTERRES
   175   89   90 1    
   176   89  210 1    
   177   90   91 1    
   178   90   92 1    
   179   90  211 1    
   180   91  212 1    
   181   91  213 1    
   182   91  214 1    
   183   92   93 2    
   184   92   94 am   BACKBONE|DICT|INTERRES
   185   94   95 1    
   186   94  215 1    
   187   95   96 1    
   188   95   97 1    
   189   95  216 1    
   190   96  217 1    
   191   96  218 1    
   192   96  219 1    
   193   97   98 2    
   194   97   99 am   BACKBONE|DICT|INTERRES
   195   99  100 1    
   196   99  220 1    
   197  100  101 1    
   198  100  102 1    
   199  100  221 1    
   200  101  222 1    
   201  101  223 1    
   202  101  224 1    
   203  102  103 2    
   204  102  104 am   BACKBONE|DICT|INTERRES
   205  104  105 1    
   206  104  225 1    
   207  105  106 1    
   208  105  107 1    
   209  105  226 1    
   210  106  227 1    
   211  106  228 1    
   212  106  229 1    
   213  107  108 2    
   214  107  109 am   BACKBONE|DICT|INTERRES
   215  109  110 1    
   216  109  230 1    
   217  110  111 1    
   218  110  112 1    
   219  110  231 1    
   220  111  232 1    
   221  111  233 1    
   222  111  234 1    
   223  112  113 2    
   224  112  114 am   BACKBONE|DICT|INTERRES
   225  114  115 1    
   226  114  235 1    
   227  115  116 1    
   228  115  117 1    
   229  115  236 1    
   230  116  237 1    
   231  116  238 1    
   232  116  239 1    
   233  117  118 2    
   234  117  119 am   BACKBONE|DICT|INTERRES
   235  119  120 1    
   236  119  240 1    
   237  120  121 1    
   238  120  124 1    
   239  120  241 1    
   240  121  122 am   BACKBONE|DICT|INTERRES
   241  121  123 2    
   242  122  242 1    
   243  122  243 1    
   244  124  125 1    
   245  124  244 1    
   246  124  245 1    
   247  125  126 1    
   248  126  246 1    
   249  126  247 1    
@<TRIPOS>SUBSTRUCTURE
     1 UNK         1 GROUP             0       ****    0 ROOT    
