@<TRIPOS>MOLECULE
3R540
247   249    1
SMALL
USER_CHARGES


@<TRIPOS>ATOM
      1 CA          1.1828  -13.4055  -53.6315 C.3       0 UNK        -0.1800 
      2 C           0.1558  -12.8035  -52.6877 C.2       0 UNK         0.5000 
      3 O          -0.9523  -12.4816  -53.1163 O.2       0 UNK        -0.5000 
      4 N           0.5234  -12.6352  -51.4108 N.am      1 UNK        -0.5000 
      5 CA         -0.3230  -12.0204  -50.3831 C.3       1 UNK         0.1400 
      6 C6          0.5192  -11.4599  -49.2058 C.3       23 UNK        -0.0398 
      7 S7          1.0823  -12.6525  -47.9370 S.3       23 UNK        -0.2404 
      8 C8          2.5739  -13.3985  -48.6810 C.3       23 UNK        -0.0205 
      9 C9          2.3393  -14.7853  -49.2792 C.ar      23 UNK        -0.0193 
     10 C10         3.0273  -15.1733  -50.4349 C.ar      23 UNK        -0.1150 
     11 C11         2.8908  -16.4693  -50.9454 C.ar      23 UNK        -0.0193 
     12 C12         2.0402  -17.3744  -50.3060 C.ar      23 UNK        -0.1150 
     13 C13         1.3485  -17.0037  -49.1526 C.ar      23 UNK        -0.0193 
     14 C14         1.5068  -15.7140  -48.6422 C.ar      23 UNK        -0.1150 
     15 C15         0.4594  -18.0074  -48.4399 C.3       23 UNK        -0.0205 
     16 S16         1.4607  -19.2349  -47.5452 S.3       23 UNK        -0.2404 
     17 C17         0.5200  -19.4062  -45.9958 C.3       23 UNK        -0.0398 
     18 CA         -0.6457  -20.4053  -46.1418 C.3       11 UNK         0.1400 
     19 N          -0.1930  -21.7578  -46.4768 N.am      11 UNK        -0.5000 
     20 C          -0.9878  -22.7500  -46.8963 C.2       10 UNK         0.5000 
     21 O          -2.2016  -22.6297  -47.0524 O.2       10 UNK        -0.5000 
     22 CA         -0.3205  -24.1113  -47.1512 C.3       10 UNK         0.1400 
     23 CB          0.3166  -24.1445  -48.5474 C.3       10 UNK        -0.1800 
     24 N           0.6872  -24.4278  -46.1383 N.am      10 UNK        -0.5000 
     25 C           0.3978  -24.7100  -44.8599 C.2       9 UNK         0.5000 
     26 O          -0.7490  -24.7834  -44.4193 O.2       9 UNK        -0.5000 
     27 CA          1.5912  -24.8962  -43.9040 C.3       9 UNK         0.1400 
     28 CB          2.1017  -26.3440  -43.9530 C.3       9 UNK        -0.1800 
     29 N           2.7066  -23.9774  -44.1589 N.am      9 UNK        -0.5000 
     30 C           2.6218  -22.6421  -44.0993 C.2       8 UNK         0.5000 
     31 O           1.5667  -22.0334  -43.9059 O.2       8 UNK        -0.5000 
     32 CA          3.9222  -21.8532  -44.3346 C.3       8 UNK         0.1400 
     33 CB          4.1413  -21.6100  -45.8345 C.3       8 UNK        -0.1800 
     34 N           3.8789  -20.5650  -43.6428 N.am      8 UNK        -0.5000 
     35 C           4.0051  -20.4174  -42.3181 C.2       7 UNK         0.5000 
     36 O           4.2913  -21.3498  -41.5644 O.2       7 UNK        -0.5000 
     37 CA          3.7384  -19.0229  -41.7125 C.3       7 UNK         0.1400 
     38 CB          4.8559  -18.5927  -40.7398 C.3       7 UNK        -0.1800 
     39 N           3.4404  -17.9497  -42.6706 N.am      7 UNK        -0.5000 
     40 C           4.2656  -17.3711  -43.5584 C.2       6 UNK         0.5000 
     41 O           5.4032  -17.7749  -43.7987 O.2       6 UNK        -0.5000 
     42 CA          3.7429  -16.1185  -44.2980 C.3       6 UNK         0.1400 
     43 CB          3.3397  -16.4613  -45.7376 C.3       6 UNK        -0.1800 
     44 N           2.6068  -15.4735  -43.6354 N.am      6 UNK        -0.5000 
     45 C           2.6636  -14.8460  -42.4506 C.2       5 UNK         0.5000 
     46 O           3.7142  -14.6318  -41.8450 O.2       5 UNK        -0.5000 
     47 CA          1.3261  -14.4129  -41.8120 C.3       5 UNK         0.1400 
     48 CB          1.1052  -12.9049  -42.0066 C.3       5 UNK        -0.1800 
     49 N           0.1496  -15.1255  -42.3190 N.am      5 UNK        -0.5000 
     50 C          -0.0597  -16.4503  -42.2900 C.2       4 UNK         0.5000 
     51 O           0.7204  -17.2532  -41.7784 O.2       4 UNK        -0.5000 
     52 CA         -1.3248  -16.9753  -42.9988 C.3       4 UNK         0.1400 
     53 CB         -2.3824  -17.4123  -41.9748 C.3       4 UNK        -0.1800 
     54 N          -1.9272  -16.0202  -43.9360 N.am      4 UNK        -0.5000 
     55 C          -1.3506  -15.5794  -45.0619 C.2       3 UNK         0.5000 
     56 O          -0.2281  -15.9249  -45.4368 O.2       3 UNK        -0.5000 
     57 CA         -2.1243  -14.5066  -45.8411 C.3       3 UNK         0.1400 
     58 CB         -1.7089  -13.1074  -45.3600 C.3       3 UNK        -0.1800 
     59 N          -1.8663  -14.6065  -47.2740 N.am      3 UNK        -0.5000 
     60 C          -2.5306  -15.4089  -48.1150 C.2       2 UNK         0.5000 
     61 O          -3.4209  -16.1760  -47.7468 O.2       2 UNK        -0.5000 
     62 CA         -2.1381  -15.3663  -49.6113 C.3       2 UNK         0.1400 
     63 CB         -3.3708  -15.3937  -50.5390 C.3       2 UNK        -0.1800 
     64 N          -1.2384  -14.2662  -49.9847 N.am      2 UNK        -0.5000 
     65 C          -1.4755  -12.9445  -49.9296 C.2       1 UNK         0.5000 
     66 O          -2.5310  -12.4454  -49.5387 O.2       1 UNK        -0.5000 
     67 C          -1.5352  -20.4027  -44.8873 C.2       11 UNK         0.5000 
     68 O          -2.5807  -19.7534  -44.8907 O.2       11 UNK        -0.5000 
     69 N          -1.1399  -21.1782  -43.8682 N.am      12 UNK        -0.5000 
     70 CA         -1.9109  -21.4296  -42.6484 C.3       12 UNK         0.1400 
     71 CB         -1.0507  -22.2435  -41.6710 C.3       12 UNK        -0.1800 
     72 C          -3.2567  -22.1354  -42.9149 C.2       12 UNK         0.5000 
     73 O          -4.2120  -21.9225  -42.1690 O.2       12 UNK        -0.5000 
     74 N          -3.3237  -22.9109  -44.0050 N.am      13 UNK        -0.5000 
     75 CA         -4.5302  -23.5368  -44.5449 C.3       13 UNK         0.1400 
     76 CB         -4.1449  -24.8803  -45.1905 C.3       13 UNK        -0.1800 
     77 C          -5.2831  -22.6160  -45.5327 C.2       13 UNK         0.5000 
     78 O          -5.9836  -23.1207  -46.4098 O.2       13 UNK        -0.5000 
     79 N          -5.1293  -21.2903  -45.3896 N.am      14 UNK        -0.5000 
     80 CA         -5.7642  -20.2258  -46.1755 C.3       14 UNK         0.1400 
     81 CB         -7.2920  -20.2179  -45.9550 C.3       14 UNK        -0.1800 
     82 C          -5.3706  -20.2735  -47.6645 C.2       14 UNK         0.5000 
     83 O          -6.2379  -20.2304  -48.5382 O.2       14 UNK        -0.5000 
     84 N          -4.0597  -20.3966  -47.9151 N.am      15 UNK        -0.5000 
     85 CA         -3.4201  -20.5343  -49.2294 C.3       15 UNK         0.1400 
     86 CB         -3.5269  -19.2246  -50.0334 C.3       15 UNK        -0.1800 
     87 C          -3.9399  -21.7679  -49.9932 C.2       15 UNK         0.5000 
     88 O          -4.3362  -21.6613  -51.1569 O.2       15 UNK        -0.5000 
     89 N          -3.9260  -22.9068  -49.2866 N.am      16 UNK        -0.5000 
     90 CA         -4.4219  -24.2252  -49.6823 C.3       16 UNK         0.1400 
     91 CB         -3.5581  -24.8161  -50.8155 C.3       16 UNK        -0.1800 
     92 C          -5.9299  -24.2064  -50.0006 C.2       16 UNK         0.5000 
     93 O          -6.3394  -24.6093  -51.0885 O.2       16 UNK        -0.5000 
     94 N          -6.7250  -23.7183  -49.0380 N.am      17 UNK        -0.5000 
     95 CA         -8.1836  -23.5736  -49.0776 C.3       17 UNK         0.1400 
     96 CB         -8.8672  -24.9568  -49.0637 C.3       17 UNK        -0.1800 
     97 C          -8.6583  -22.6698  -50.2337 C.2       17 UNK         0.5000 
     98 O          -9.5662  -23.0376  -50.9818 O.2       17 UNK        -0.5000 
     99 N          -8.0106  -21.5027  -50.3570 N.am      18 UNK        -0.5000 
    100 CA        -8.2303  -20.4602  -51.3626 C.3       18 UNK         0.1400 
    101 CB        -9.6386  -19.8448  -51.2241 C.3       18 UNK        -0.1800 
    102 C         -7.9021  -20.8939  -52.8078 C.2       18 UNK         0.5000 
    103 O         -8.3989  -20.2805  -53.7541 O.2       18 UNK        -0.5000 
    104 N         -7.0412  -21.9103  -52.9668 N.am      19 UNK        -0.5000 
    105 CA        -6.5101  -22.3468  -54.2623 C.3       19 UNK         0.1400 
    106 CB        -5.9795  -23.7819  -54.1408 C.3       19 UNK        -0.1800 
    107 C         -5.4089  -21.4131  -54.8034 C.2       19 UNK         0.5000 
    108 O         -5.0704  -21.5124  -55.9832 O.2       19 UNK        -0.5000 
    109 N         -4.8821  -20.5353  -53.9356 N.am      20 UNK        -0.5000 
    110 CA        -3.8074  -19.5711  -54.1682 C.3       20 UNK         0.1400 
    111 CB        -4.1504  -18.5833  -55.3034 C.3       20 UNK        -0.1800 
    112 C         -2.4627  -20.2911  -54.3605 C.2       20 UNK         0.5000 
    113 O         -1.8701  -20.2412  -55.4399 O.2       20 UNK        -0.5000 
    114 N         -2.0099  -20.9450  -53.2804 N.am      21 UNK        -0.5000 
    115 CA        -0.7690  -21.7256  -53.1678 C.3       21 UNK         0.1400 
    116 CB        -0.6203  -22.1960  -51.7120 C.3       21 UNK        -0.1800 
    117 C          0.5261  -21.0165  -53.6258 C.2       21 UNK         0.5000 
    118 O          1.4927  -21.6979  -53.9696 O.2       21 UNK        -0.5000 
    119 N          0.5225  -19.6769  -53.6389 N.am      22 UNK        -0.5000 
    120 CA         1.5742  -18.8368  -54.2339 C.3       22 UNK         0.1400 
    121 C          1.6887  -18.9455  -55.7873 C.2       22 UNK         0.5000 
    122 N          0.6707  -19.4130  -56.5012 N.am      22 UNK        -0.7600 
    123 O          2.7256  -18.6165  -56.3562 O.2       22 UNK        -0.5000 
    124 C124        1.4159  -17.3625  -53.7759 C.3       23 UNK        -0.0398 
    125 S125        2.9863  -16.4311  -53.7407 S.3       23 UNK        -0.2404 
    126 C126        3.7112  -16.9221  -52.1451 C.3       23 UNK        -0.0205 
    127 H127        2.1155  -13.6374  -53.1173 H         1 UNK         0.0600 
    128 H128        1.4055  -12.7083  -54.4391 H         1 UNK         0.0600 
    129 H129        0.7926  -14.3226  -54.0709 H         1 UNK         0.0600 
    130 H130        1.4434  -12.9253  -51.1147 H         1 UNK         0.3000 
    131 H131       -0.8003  -11.1561  -50.8509 H         1 UNK         0.0600 
    132 H132        1.3794  -10.9065  -49.5850 H         1 UNK         0.0800 
    133 H133       -0.0799  -10.7160  -48.6781 H         1 UNK         0.0800 
    134 H134        3.3270  -13.4979  -47.8985 H         1 UNK         0.0800 
    135 H135        2.9973  -12.7192  -49.4220 H         1 UNK         0.0800 
    136 H136        3.7009  -14.4808  -50.9202 H         1 UNK         0.1150 
    137 H137        1.9393  -18.3814  -50.6866 H         1 UNK         0.1150 
    138 H138        0.9987  -15.4445  -47.7275 H         1 UNK         0.1150 
    139 H139       -0.2133  -17.4895  -47.7554 H         1 UNK         0.0800 
    140 H140       -0.1748  -18.5216  -49.1634 H         1 UNK         0.0800 
    141 H141        0.1585  -18.4252  -45.6912 H         1 UNK         0.0800 
    142 H142        1.2081  -19.7248  -45.2118 H         1 UNK         0.0800 
    143 H143       -1.2694  -20.0564  -46.9665 H         1 UNK         0.0600 
    144 H144        0.7876  -21.9477  -46.3366 H         1 UNK         0.3000 
    145 H145       -1.0986  -24.8768  -47.1141 H         1 UNK         0.0600 
    146 H146        1.1037  -23.3968  -48.6537 H         1 UNK         0.0600 
    147 H147        0.7498  -25.1219  -48.7603 H         1 UNK         0.0600 
    148 H148       -0.4304  -23.9480  -49.3169 H         1 UNK         0.0600 
    149 H149        1.6557  -24.3920  -46.4202 H         1 UNK         0.3000 
    150 H150        1.2299  -24.6987  -42.8925 H         1 UNK         0.0600 
    151 H151        1.2953  -27.0496  -43.7479 H         1 UNK         0.0600 
    152 H152        2.8775  -26.5145  -43.2063 H         1 UNK         0.0600 
    153 H153        2.5152  -26.5933  -44.9310 H         1 UNK         0.0600 
    154 H154        3.6048  -24.4031  -44.3379 H         1 UNK         0.3000 
    155 H155        4.7631  -22.4329  -43.9480 H         1 UNK         0.0600 
    156 H156        4.2287  -22.5521  -46.3769 H         1 UNK         0.0600 
    157 H157        5.0577  -21.0470  -46.0130 H         1 UNK         0.0600 
    158 H158        3.3165  -21.0535  -46.2764 H         1 UNK         0.0600 
    159 H159        3.6334  -19.7557  -44.1915 H         1 UNK         0.3000 
    160 H160        2.8274  -19.1367  -41.1231 H         1 UNK         0.0600 
    161 H161        4.6345  -17.6250  -40.2890 H         1 UNK         0.0600 
    162 H162        5.8221  -18.5178  -41.2391 H         1 UNK         0.0600 
    163 H163        4.9659  -19.3099  -39.9257 H         1 UNK         0.0600 
    164 H164        2.5142  -17.5489  -42.5572 H         1 UNK         0.3000 
    165 H165        4.5656  -15.4017  -44.3372 H         1 UNK         0.0600 
    166 H166        2.4517  -17.0916  -45.7638 H         1 UNK         0.0600 
    167 H167        3.1223  -15.5558  -46.3029 H         1 UNK         0.0600 
    168 H168        4.1370  -16.9882  -46.2634 H         1 UNK         0.0600 
    169 H169        1.7044  -15.5852  -44.0801 H         1 UNK         0.3000 
    170 H170        1.3980  -14.6171  -40.7419 H         1 UNK         0.0600 
    171 H171        0.9958  -12.6482  -43.0612 H         1 UNK         0.0600 
    172 H172        0.2116  -12.5649  -41.4828 H         1 UNK         0.0600 
    173 H173        1.9466  -12.3316  -41.6148 H         1 UNK         0.0600 
    174 H174       -0.5522  -14.5562  -42.7668 H         1 UNK         0.3000 
    175 H175       -1.0201  -17.8540  -43.5672 H         1 UNK         0.0600 
    176 H176       -2.7675  -16.5647  -41.4067 H         1 UNK         0.0600 
    177 H177       -3.2241  -17.9023  -42.4651 H         1 UNK         0.0600 
    178 H178       -1.9664  -18.1239  -41.2603 H         1 UNK         0.0600 
    179 H179       -2.8438  -15.6750  -43.6894 H         1 UNK         0.3000 
    180 H180       -3.1940  -14.6314  -45.6592 H         1 UNK         0.0600 
    181 H181       -0.6340  -12.9490  -45.4560 H         1 UNK         0.0600 
    182 H182       -1.9678  -12.9605  -44.3109 H         1 UNK         0.0600 
    183 H183       -2.2140  -12.3276  -45.9306 H         1 UNK         0.0600 
    184 H184       -1.1132  -14.0401  -47.6365 H         1 UNK         0.3000 
    185 H185       -1.5766  -16.2825  -49.7947 H         1 UNK         0.0600 
    186 H186       -3.0735  -15.4139  -51.5876 H         1 UNK         0.0600 
    187 H187       -3.9838  -16.2773  -50.3610 H         1 UNK         0.0600 
    188 H188       -4.0103  -14.5237  -50.3887 H         1 UNK         0.0600 
    189 H189       -0.3243  -14.5500  -50.3085 H         1 UNK         0.3000 
    190 H190       -0.2348  -21.6408  -43.9330 H         1 UNK         0.3000 
    191 H191       -2.1313  -20.4643  -42.1894 H         1 UNK         0.0600 
    192 H192       -0.7883  -23.2180  -42.0838 H         1 UNK         0.0600 
    193 H193       -0.1237  -21.7212  -41.4328 H         1 UNK         0.0600 
    194 H194       -1.5797  -22.4145  -40.7327 H         1 UNK         0.0600 
    195 H195       -2.4820  -23.0379  -44.5511 H         1 UNK         0.3000 
    196 H196       -5.2194  -23.7499  -43.7257 H         1 UNK         0.0600 
    197 H197       -3.6110  -25.5171  -44.4850 H         1 UNK         0.0600 
    198 H198       -3.5060  -24.7414  -46.0624 H         1 UNK         0.0600 
    199 H199       -5.0289  -25.4302  -45.5156 H         1 UNK         0.0600 
    200 H200       -4.4763  -20.9682  -44.6872 H         1 UNK         0.3000 
    201 H201       -5.3719  -19.2843  -45.7882 H         1 UNK         0.0600 
    202 H202       -7.7509  -19.3568  -46.4422 H         1 UNK         0.0600 
    203 H203       -7.5366  -20.1586  -44.8946 H         1 UNK         0.0600 
    204 H204       -7.7678  -21.1116  -46.3598 H         1 UNK         0.0600 
    205 H205       -3.4505  -20.5017  -47.1155 H         1 UNK         0.3000 
    206 H206       -2.3605  -20.7147  -49.0455 H         1 UNK         0.0600 
    207 H207       -4.5555  -19.0035  -50.3204 H         1 UNK         0.0600 
    208 H208       -2.9309  -19.2746  -50.9440 H         1 UNK         0.0600 
    209 H209       -3.1532  -18.3842  -49.4502 H         1 UNK         0.0600 
    210 H210       -3.5414  -22.8519  -48.3465 H         1 UNK         0.3000 
    211 H211       -4.3041  -24.8719  -48.8114 H         1 UNK         0.0600 
    212 H212       -2.5172  -24.9072  -50.5064 H         1 UNK         0.0600 
    213 H213       -3.9014  -25.8142  -51.0895 H         1 UNK         0.0600 
    214 H214       -3.5874  -24.2016  -51.7147 H         1 UNK         0.0600 
    215 H215       -6.2984  -23.4210  -48.1613 H         1 UNK         0.3000 
    216 H216       -8.4623  -23.0608  -48.1559 H         1 UNK         0.0600 
    217 H217       -9.9497  -24.8560  -48.9787 H         1 UNK         0.0600 
    218 H218       -8.6617  -25.5209  -49.9740 H         1 UNK         0.0600 
    219 H219       -8.5299  -25.5532  -48.2160 H         1 UNK         0.0600 
    220 H220       -7.2869  -21.2774  -49.6766 H         1 UNK         0.3000 
    221 H221       -7.5111  -19.6750  -51.1249 H         1 UNK         0.0600 
    222 H222      -10.4193  -20.5460  -51.5196 H         1 UNK         0.0600 
    223 H223       -9.8342  -19.5364  -50.1970 H         1 UNK         0.0600 
    224 H224       -9.7427  -18.9588  -51.8514 H         1 UNK         0.0600 
    225 H225       -6.6743  -22.3760  -52.1463 H         1 UNK         0.3000 
    226 H226       -7.3241  -22.3501  -54.9902 H         1 UNK         0.0600 
    227 H227       -6.7588  -24.4635  -53.8000 H         1 UNK         0.0600 
    228 H228       -5.6235  -24.1519  -55.1030 H         1 UNK         0.0600 
    229 H229       -5.1476  -23.8405  -53.4394 H         1 UNK         0.0600 
    230 H230       -5.1788  -20.6288  -52.9721 H         1 UNK         0.3000 
    231 H231       -3.7224  -18.9830  -53.2537 H         1 UNK         0.0600 
    232 H232       -3.3936  -17.8014  -55.3749 H         1 UNK         0.0600 
    233 H233       -5.1076  -18.0941  -55.1233 H         1 UNK         0.0600 
    234 H234       -4.2012  -19.0708  -56.2771 H         1 UNK         0.0600 
    235 H235       -2.6260  -20.9912  -52.4795 H         1 UNK         0.3000 
    236 H236       -0.8890  -22.6061  -53.8018 H         1 UNK         0.0600 
    237 H237       -1.4639  -22.8149  -51.4108 H         1 UNK         0.0600 
    238 H238        0.2805  -22.7977  -51.5832 H         1 UNK         0.0600 
    239 H239       -0.5542  -21.3546  -51.0210 H         1 UNK         0.0600 
    240 H240       -0.3204  -19.2049  -53.3513 H         1 UNK         0.3000 
    241 H241        2.5179  -19.2130  -53.8351 H         1 UNK         0.0600 
    242 H242        0.7637  -19.4847  -57.5017 H         1 UNK         0.3800 
    243 H243       -0.1994  -19.7037  -56.0604 H         1 UNK         0.3800 
    244 H244        0.7146  -16.8331  -54.4232 H         1 UNK         0.0800 
    245 H245        0.9695  -17.3115  -52.7842 H         1 UNK         0.0800 
    246 H246        4.7134  -16.4969  -52.0748 H         1 UNK         0.0800 
    247 H247        3.8460  -18.0045  -52.1276 H         1 UNK         0.0800 
@<TRIPOS>BOND
     1    1    2 1    
     2    1  127 1    
     3    1  128 1    
     4    1  129 1    
     5    2    3 2    
     6    2    4 am   BACKBONE|DICT|INTERRES
     7    4    5 1    
     8    4  130 1    
     9    5    6 1    
    10    5   65 1    
    11    5  131 1    
    12    6    7 1    
    13    6  132 1    
    14    6  133 1    
    15    7    8 1    
    16    8    9 1    
    17    8  134 1    
    18    8  135 1    
    19    9   10 ar   
    20    9   14 ar   
    21   10   11 ar   
    22   10  136 1    
    23   11   12 ar   
    24   11  126 1    
    25   12   13 ar   
    26   12  137 1    
    27   13   14 ar   
    28   13   15 1    
    29   14  138 1    
    30   15   16 1    
    31   15  139 1    
    32   15  140 1    
    33   16   17 1    
    34   17   18 1    
    35   17  141 1    
    36   17  142 1    
    37   18   19 1    
    38   18   67 1    
    39   18  143 1    
    40   19   20 am   BACKBONE|DICT|INTERRES
    41   19  144 1    
    42   20   21 2    
    43   20   22 1    
    44   22   23 1    
    45   22   24 1    
    46   22  145 1    
    47   23  146 1    
    48   23  147 1    
    49   23  148 1    
    50   24   25 am   BACKBONE|DICT|INTERRES
    51   24  149 1    
    52   25   26 2    
    53   25   27 1    
    54   27   28 1    
    55   27   29 1    
    56   27  150 1    
    57   28  151 1    
    58   28  152 1    
    59   28  153 1    
    60   29   30 am   BACKBONE|DICT|INTERRES
    61   29  154 1    
    62   30   31 2    
    63   30   32 1    
    64   32   33 1    
    65   32   34 1    
    66   32  155 1    
    67   33  156 1    
    68   33  157 1    
    69   33  158 1    
    70   34   35 am   BACKBONE|DICT|INTERRES
    71   34  159 1    
    72   35   36 2    
    73   35   37 1    
    74   37   38 1    
    75   37   39 1    
    76   37  160 1    
    77   38  161 1    
    78   38  162 1    
    79   38  163 1    
    80   39   40 am   BACKBONE|DICT|INTERRES
    81   39  164 1    
    82   40   41 2    
    83   40   42 1    
    84   42   43 1    
    85   42   44 1    
    86   42  165 1    
    87   43  166 1    
    88   43  167 1    
    89   43  168 1    
    90   44   45 am   BACKBONE|DICT|INTERRES
    91   44  169 1    
    92   45   46 2    
    93   45   47 1    
    94   47   48 1    
    95   47   49 1    
    96   47  170 1    
    97   48  171 1    
    98   48  172 1    
    99   48  173 1    
   100   49   50 am   BACKBONE|DICT|INTERRES
   101   49  174 1    
   102   50   51 2    
   103   50   52 1    
   104   52   53 1    
   105   52   54 1    
   106   52  175 1    
   107   53  176 1    
   108   53  177 1    
   109   53  178 1    
   110   54   55 am   BACKBONE|DICT|INTERRES
   111   54  179 1    
   112   55   56 2    
   113   55   57 1    
   114   57   58 1    
   115   57   59 1    
   116   57  180 1    
   117   58  181 1    
   118   58  182 1    
   119   58  183 1    
   120   59   60 am   BACKBONE|DICT|INTERRES
   121   59  184 1    
   122   60   61 2    
   123   60   62 1    
   124   62   63 1    
   125   62   64 1    
   126   62  185 1    
   127   63  186 1    
   128   63  187 1    
   129   63  188 1    
   130   64   65 am   BACKBONE|DICT|INTERRES
   131   64  189 1    
   132   65   66 2    
   133   67   68 2    
   134   67   69 am   BACKBONE|DICT|INTERRES
   135   69   70 1    
   136   69  190 1    
   137   70   71 1    
   138   70   72 1    
   139   70  191 1    
   140   71  192 1    
   141   71  193 1    
   142   71  194 1    
   143   72   73 2    
   144   72   74 am   BACKBONE|DICT|INTERRES
   145   74   75 1    
   146   74  195 1    
   147   75   76 1    
   148   75   77 1    
   149   75  196 1    
   150   76  197 1    
   151   76  198 1    
   152   76  199 1    
   153   77   78 2    
   154   77   79 am   BACKBONE|DICT|INTERRES
   155   79   80 1    
   156   79  200 1    
   157   80   81 1    
   158   80   82 1    
   159   80  201 1    
   160   81  202 1    
   161   81  203 1    
   162   81  204 1    
   163   82   83 2    
   164   82   84 am   BACKBONE|DICT|INTERRES
   165   84   85 1    
   166   84  205 1    
   167   85   86 1    
   168   85   87 1    
   169   85  206 1    
   170   86  207 1    
   171   86  208 1    
   172   86  209 1    
   173   87   88 2    
   174   87   89 am   BACKBONE|DICT|INTERRES
   175   89   90 1    
   176   89  210 1    
   177   90   91 1    
   178   90   92 1    
   179   90  211 1    
   180   91  212 1    
   181   91  213 1    
   182   91  214 1    
   183   92   93 2    
   184   92   94 am   BACKBONE|DICT|INTERRES
   185   94   95 1    
   186   94  215 1    
   187   95   96 1    
   188   95   97 1    
   189   95  216 1    
   190   96  217 1    
   191   96  218 1    
   192   96  219 1    
   193   97   98 2    
   194   97   99 am   BACKBONE|DICT|INTERRES
   195   99  100 1    
   196   99  220 1    
   197  100  101 1    
   198  100  102 1    
   199  100  221 1    
   200  101  222 1    
   201  101  223 1    
   202  101  224 1    
   203  102  103 2    
   204  102  104 am   BACKBONE|DICT|INTERRES
   205  104  105 1    
   206  104  225 1    
   207  105  106 1    
   208  105  107 1    
   209  105  226 1    
   210  106  227 1    
   211  106  228 1    
   212  106  229 1    
   213  107  108 2    
   214  107  109 am   BACKBONE|DICT|INTERRES
   215  109  110 1    
   216  109  230 1    
   217  110  111 1    
   218  110  112 1    
   219  110  231 1    
   220  111  232 1    
   221  111  233 1    
   222  111  234 1    
   223  112  113 2    
   224  112  114 am   BACKBONE|DICT|INTERRES
   225  114  115 1    
   226  114  235 1    
   227  115  116 1    
   228  115  117 1    
   229  115  236 1    
   230  116  237 1    
   231  116  238 1    
   232  116  239 1    
   233  117  118 2    
   234  117  119 am   BACKBONE|DICT|INTERRES
   235  119  120 1    
   236  119  240 1    
   237  120  121 1    
   238  120  124 1    
   239  120  241 1    
   240  121  122 am   BACKBONE|DICT|INTERRES
   241  121  123 2    
   242  122  242 1    
   243  122  243 1    
   244  124  125 1    
   245  124  244 1    
   246  124  245 1    
   247  125  126 1    
   248  126  246 1    
   249  126  247 1    
@<TRIPOS>SUBSTRUCTURE
     1 UNK         1 GROUP             0       ****    0 ROOT    
