@<TRIPOS>MOLECULE
3R540
247   249    1
SMALL
USER_CHARGES


@<TRIPOS>ATOM
      1 CA         -3.1996  -11.6470  -47.3916 C.3       0 UNK        -0.1800 
      2 C          -2.3932  -12.8505  -46.9257 C.2       0 UNK         0.5000 
      3 O          -2.9669  -13.7999  -46.3915 O.2       0 UNK        -0.5000 
      4 N          -1.0661  -12.8035  -47.1103 N.am      1 UNK        -0.5000 
      5 CA         -0.0594  -13.8300  -46.7847 C.3       1 UNK         0.1400 
      6 C6         -0.3022  -15.2133  -47.4462 C.3       23 UNK        -0.0398 
      7 S7         -0.4929  -15.0917  -49.2571 S.3       23 UNK        -0.2404 
      8 C8          1.1200  -15.6910  -49.8606 C.3       23 UNK        -0.0205 
      9 C9          1.1737  -17.2020  -50.0651 C.ar      23 UNK        -0.0193 
     10 C10         0.1714  -17.8570  -50.7895 C.ar      23 UNK        -0.1150 
     11 C11         0.2606  -19.2262  -51.0494 C.ar      23 UNK        -0.0193 
     12 C12         1.3674  -19.9415  -50.5917 C.ar      23 UNK        -0.1150 
     13 C13         2.3727  -19.3084  -49.8561 C.ar      23 UNK        -0.0193 
     14 C14         2.2665  -17.9378  -49.5927 C.ar      23 UNK        -0.1150 
     15 C15         3.5964  -20.0891  -49.3870 C.3       23 UNK        -0.0205 
     16 S16         3.1918  -21.6880  -48.6043 S.3       23 UNK        -0.2404 
     17 C17         2.3679  -21.1368  -47.0768 C.3       23 UNK        -0.0398 
     18 CA          1.0704  -21.9173  -46.7536 C.3       11 UNK         0.1400 
     19 N           0.7229  -21.7923  -45.3351 N.am      11 UNK        -0.5000 
     20 C          -0.2786  -22.4320  -44.7159 C.2       10 UNK         0.5000 
     21 O          -1.0105  -23.2543  -45.2645 O.2       10 UNK        -0.5000 
     22 CA         -0.5380  -22.0505  -43.2470 C.3       10 UNK         0.1400 
     23 CB          0.4197  -22.7964  -42.3062 C.3       10 UNK        -0.1800 
     24 N          -0.4345  -20.6099  -43.0121 N.am      10 UNK        -0.5000 
     25 C          -1.2336  -19.6863  -43.5666 C.2       9 UNK         0.5000 
     26 O          -2.1731  -19.9512  -44.3152 O.2       9 UNK        -0.5000 
     27 CA         -0.8885  -18.2160  -43.2711 C.3       9 UNK         0.1400 
     28 CB         -1.3050  -17.8501  -41.8344 C.3       9 UNK        -0.1800 
     29 N           0.5366  -17.9428  -43.4786 N.am      9 UNK        -0.5000 
     30 C           1.1728  -18.0788  -44.6533 C.2       8 UNK         0.5000 
     31 O           0.6042  -18.3503  -45.7104 O.2       8 UNK        -0.5000 
     32 CA          2.7083  -17.9621  -44.6388 C.3       8 UNK         0.1400 
     33 CB          3.1685  -16.5167  -44.8656 C.3       8 UNK        -0.1800 
     34 N           3.2907  -18.4775  -43.3998 N.am      8 UNK        -0.5000 
     35 C           3.3402  -19.7774  -43.0751 C.2       7 UNK         0.5000 
     36 O           2.9336  -20.6776  -43.8071 O.2       7 UNK        -0.5000 
     37 CA          3.8843  -20.1229  -41.6771 C.3       7 UNK         0.1400 
     38 CB          5.4201  -20.1340  -41.6792 C.3       7 UNK        -0.1800 
     39 N           3.4059  -19.1921  -40.6550 N.am      7 UNK        -0.5000 
     40 C           2.1224  -19.0627  -40.2887 C.2       6 UNK         0.5000 
     41 O           1.2216  -19.7875  -40.7099 O.2       6 UNK        -0.5000 
     42 CA          1.7842  -17.8940  -39.3405 C.3       6 UNK         0.1400 
     43 CB          1.8163  -18.3601  -37.8779 C.3       6 UNK        -0.1800 
     44 N           2.6868  -16.7495  -39.5066 N.am      6 UNK        -0.5000 
     45 C           2.7693  -16.0055  -40.6176 C.2       5 UNK         0.5000 
     46 O           2.0377  -16.1583  -41.5991 O.2       5 UNK        -0.5000 
     47 CA          3.9280  -15.0021  -40.6743 C.3       5 UNK         0.1400 
     48 CB          5.2393  -15.7533  -40.9934 C.3       5 UNK        -0.1800 
     49 N           3.6543  -13.9960  -41.6970 N.am      5 UNK        -0.5000 
     50 C           4.3791  -12.8914  -41.9174 C.2       4 UNK         0.5000 
     51 O           5.3597  -12.5669  -41.2462 O.2       4 UNK        -0.5000 
     52 CA          3.9288  -11.9862  -43.0758 C.3       4 UNK         0.1400 
     53 CB          4.3485  -12.5801  -44.4299 C.3       4 UNK        -0.1800 
     54 N           2.4850  -11.7559  -43.0581 N.am      4 UNK        -0.5000 
     55 C           1.8761  -10.9006  -42.2210 C.2       3 UNK         0.5000 
     56 O           2.4802  -10.2006  -41.4072 O.2       3 UNK        -0.5000 
     57 CA          0.3393  -10.7906  -42.3000 C.3       3 UNK         0.1400 
     58 CB         -0.0697   -9.5807  -43.1541 C.3       3 UNK        -0.1800 
     59 N          -0.3000  -11.9865  -42.8438 N.am      3 UNK        -0.5000 
     60 C          -0.3427  -13.1786  -42.2354 C.2       2 UNK         0.5000 
     61 O           0.0698  -13.3765  -41.0927 O.2       2 UNK        -0.5000 
     62 CA         -0.9226  -14.3516  -43.0485 C.3       2 UNK         0.1400 
     63 CB         -2.3643  -14.6466  -42.6074 C.3       2 UNK        -0.1800 
     64 N          -0.9106  -14.1588  -44.5006 N.am      2 UNK        -0.5000 
     65 C           0.1707  -13.9744  -45.2673 C.2       1 UNK         0.5000 
     66 O           1.3087  -13.8677  -44.8138 O.2       1 UNK        -0.5000 
     67 C          -0.1019  -21.5115  -47.6749 C.2       11 UNK         0.5000 
     68 O          -0.4244  -22.2449  -48.6106 O.2       11 UNK        -0.5000 
     69 N          -0.7508  -20.3815  -47.3605 N.am      12 UNK        -0.5000 
     70 CA         -1.9401  -19.8986  -48.0581 C.3       12 UNK         0.1400 
     71 CB         -2.2192  -18.4470  -47.6535 C.3       12 UNK        -0.1800 
     72 C          -3.1712  -20.7935  -47.8349 C.2       12 UNK         0.5000 
     73 O          -3.8879  -21.0807  -48.7929 O.2       12 UNK        -0.5000 
     74 N          -3.3820  -21.2473  -46.5911 N.am      13 UNK        -0.5000 
     75 CA         -4.4726  -22.1490  -46.2113 C.3       13 UNK         0.1400 
     76 CB         -4.5069  -22.3057  -44.6842 C.3       13 UNK        -0.1800 
     77 C          -4.3889  -23.5256  -46.8969 C.2       13 UNK         0.5000 
     78 O          -5.4211  -24.0685  -47.2927 O.2       13 UNK        -0.5000 
     79 N          -3.1647  -24.0452  -47.0670 N.am      14 UNK        -0.5000 
     80 CA         -2.8685  -25.3165  -47.7333 C.3       14 UNK         0.1400 
     81 CB         -1.3767  -25.6419  -47.5627 C.3       14 UNK        -0.1800 
     82 C          -3.2652  -25.3625  -49.2234 C.2       14 UNK         0.5000 
     83 O          -3.4768  -26.4544  -49.7522 O.2       14 UNK        -0.5000 
     84 N          -3.3858  -24.1939  -49.8695 N.am      15 UNK        -0.5000 
     85 CA         -3.8736  -24.0573  -51.2431 C.3       15 UNK         0.1400 
     86 CB         -3.3621  -22.7363  -51.8342 C.3       15 UNK        -0.1800 
     87 C          -5.4076  -24.1451  -51.3608 C.2       15 UNK         0.5000 
     88 O          -5.9061  -24.2118  -52.4846 O.2       15 UNK        -0.5000 
     89 N          -6.1296  -24.1349  -50.2282 N.am      16 UNK        -0.5000 
     90 CA         -7.5893  -24.1925  -50.1138 C.3       16 UNK         0.1400 
     91 CB         -8.0989  -25.6020  -50.4913 C.3       16 UNK        -0.1800 
     92 C          -8.2596  -23.0427  -50.8955 C.2       16 UNK         0.5000 
     93 O          -7.9726  -21.8780  -50.6143 O.2       16 UNK        -0.5000 
     94 N          -9.0957  -23.3703  -51.8887 N.am      17 UNK        -0.5000 
     95 CA         -9.7557  -22.4319  -52.8003 C.3       17 UNK         0.1400 
     96 CB        -11.0438  -23.0891  -53.3288 C.3       17 UNK        -0.1800 
     97 C          -8.8201  -21.9550  -53.9366 C.2       17 UNK         0.5000 
     98 O          -9.2214  -21.9461  -55.1017 O.2       17 UNK        -0.5000 
     99 N          -7.5855  -21.5777  -53.5731 N.am      18 UNK        -0.5000 
    100 CA        -6.4983  -21.0964  -54.4333 C.3       18 UNK         0.1400 
    101 CB        -6.8421  -19.7078  -55.0117 C.3       18 UNK        -0.1800 
    102 C         -6.0733  -22.1055  -55.5227 C.2       18 UNK         0.5000 
    103 O         -5.6995  -21.7032  -56.6260 O.2       18 UNK        -0.5000 
    104 N         -6.1116  -23.4047  -55.1944 N.am      19 UNK        -0.5000 
    105 CA        -5.8134  -24.5155  -56.1046 C.3       19 UNK         0.1400 
    106 CB        -6.2155  -25.8366  -55.4318 C.3       19 UNK        -0.1800 
    107 C         -4.3414  -24.5642  -56.5582 C.2       19 UNK         0.5000 
    108 O         -4.0535  -25.0754  -57.6405 O.2       19 UNK        -0.5000 
    109 N         -3.4449  -24.0023  -55.7373 N.am      20 UNK        -0.5000 
    110 CA        -2.0198  -23.8340  -56.0267 C.3       20 UNK         0.1400 
    111 CB        -1.2496  -23.8402  -54.6967 C.3       20 UNK        -0.1800 
    112 C         -1.7101  -22.5589  -56.8443 C.2       20 UNK         0.5000 
    113 O         -0.5359  -22.2912  -57.1013 O.2       20 UNK        -0.5000 
    114 N         -2.7483  -21.7992  -57.2332 N.am      21 UNK        -0.5000 
    115 CA        -2.7002  -20.5298  -57.9679 C.3       21 UNK         0.1400 
    116 CB        -2.0877  -20.7133  -59.3730 C.3       21 UNK        -0.1800 
    117 C         -2.0407  -19.4004  -57.1497 C.2       21 UNK         0.5000 
    118 O         -1.2219  -18.6410  -57.6717 O.2       21 UNK        -0.5000 
    119 N         -2.4271  -19.3084  -55.8746 N.am      22 UNK        -0.5000 
    120 CA        -1.9870  -18.2940  -54.9118 C.3       22 UNK         0.1400 
    121 C         -3.0755  -18.0455  -53.8359 C.2       22 UNK         0.5000 
    122 N         -3.0425  -16.9033  -53.1634 N.am      22 UNK        -0.7600 
    123 O         -3.9368  -18.8859  -53.5871 O.2       22 UNK        -0.5000 
    124 C124       -0.5955  -18.6066  -54.2933 C.3       23 UNK        -0.0398 
    125 S125       -0.4444  -20.2660  -53.5379 S.3       23 UNK        -0.2404 
    126 C126       -0.8500  -19.9500  -51.7909 C.3       23 UNK        -0.0205 
    127 H127       -3.9333  -11.9545  -48.1367 H         1 UNK         0.0600 
    128 H128       -2.5650  -10.8798  -47.8358 H         1 UNK         0.0600 
    129 H129       -3.7317  -11.2036  -46.5500 H         1 UNK         0.0600 
    130 H130       -0.6813  -11.9750  -47.5423 H         1 UNK         0.3000 
    131 H131        0.8773  -13.4461  -47.1924 H         1 UNK         0.0600 
    132 H132       -1.2041  -15.6741  -47.0421 H         1 UNK         0.0800 
    133 H133        0.5125  -15.9029  -47.2172 H         1 UNK         0.0800 
    134 H134        1.9087  -15.3554  -49.1854 H         1 UNK         0.0800 
    135 H135        1.3218  -15.2159  -50.8213 H         1 UNK         0.0800 
    136 H136       -0.6784  -17.2984  -51.1558 H         1 UNK         0.1150 
    137 H137        1.4385  -20.9995  -50.8026 H         1 UNK         0.1150 
    138 H138        3.0514  -17.4366  -49.0439 H         1 UNK         0.1150 
    139 H139        4.2350  -20.2770  -50.2509 H         1 UNK         0.0800 
    140 H140        4.1902  -19.4969  -48.6888 H         1 UNK         0.0800 
    141 H141        2.1751  -20.0642  -47.1149 H         1 UNK         0.0800 
    142 H142        3.0976  -21.2824  -46.2811 H         1 UNK         0.0800 
    143 H143        1.2627  -22.9786  -46.9251 H         1 UNK         0.0600 
    144 H144        1.3159  -21.1831  -44.7799 H         1 UNK         0.3000 
    145 H145       -1.5571  -22.3533  -42.9998 H         1 UNK         0.0600 
    146 H146        0.1942  -22.5788  -41.2621 H         1 UNK         0.0600 
    147 H147        1.4593  -22.5226  -42.4860 H         1 UNK         0.0600 
    148 H148        0.3360  -23.8756  -42.4401 H         1 UNK         0.0600 
    149 H149        0.2883  -20.3037  -42.3674 H         1 UNK         0.3000 
    150 H150       -1.4453  -17.5831  -43.9653 H         1 UNK         0.0600 
    151 H151       -2.3882  -17.7444  -41.7681 H         1 UNK         0.0600 
    152 H152       -0.8632  -16.9138  -41.4995 H         1 UNK         0.0600 
    153 H153       -1.0199  -18.6143  -41.1128 H         1 UNK         0.0600 
    154 H154        1.0751  -17.6511  -42.6713 H         1 UNK         0.3000 
    155 H155        3.0909  -18.5613  -45.4670 H         1 UNK         0.0600 
    156 H156        4.2540  -16.4552  -44.9419 H         1 UNK         0.0600 
    157 H157        2.7546  -16.1154  -45.7914 H         1 UNK         0.0600 
    158 H158        2.8547  -15.8617  -44.0545 H         1 UNK         0.0600 
    159 H159        3.5927  -17.7932  -42.7237 H         1 UNK         0.3000 
    160 H160        3.5330  -21.1242  -41.4187 H         1 UNK         0.0600 
    161 H161        5.8130  -20.4477  -40.7120 H         1 UNK         0.0600 
    162 H162        5.8323  -19.1499  -41.9060 H         1 UNK         0.0600 
    163 H163        5.8034  -20.8308  -42.4259 H         1 UNK         0.0600 
    164 H164        4.0882  -18.5731  -40.2447 H         1 UNK         0.3000 
    165 H165        0.7703  -17.5618  -39.5719 H         1 UNK         0.0600 
    166 H166        1.5085  -17.5615  -37.2027 H         1 UNK         0.0600 
    167 H167        1.1348  -19.1974  -37.7207 H         1 UNK         0.0600 
    168 H168        2.8131  -18.6876  -37.5800 H         1 UNK         0.0600 
    169 H169        3.3231  -16.5658  -38.7439 H         1 UNK         0.3000 
    170 H170        4.0076  -14.5065  -39.7048 H         1 UNK         0.0600 
    171 H171        5.2099  -16.2070  -41.9849 H         1 UNK         0.0600 
    172 H172        6.1036  -15.0908  -40.9590 H         1 UNK         0.0600 
    173 H173        5.4291  -16.5490  -40.2724 H         1 UNK         0.0600 
    174 H174        2.8366  -14.1866  -42.2633 H         1 UNK         0.3000 
    175 H175        4.4350  -11.0243  -42.9678 H         1 UNK         0.0600 
    176 H176        3.9218  -13.5699  -44.5913 H         1 UNK         0.0600 
    177 H177        4.0352  -11.9416  -45.2559 H         1 UNK         0.0600 
    178 H178        5.4328  -12.6810  -44.4889 H         1 UNK         0.0600 
    179 H179        1.9276  -12.3313  -43.6810 H         1 UNK         0.3000 
    180 H180       -0.0332  -10.6367  -41.2850 H         1 UNK         0.0600 
    181 H181       -1.1519   -9.4493  -43.1606 H         1 UNK         0.0600 
    182 H182        0.2630   -9.6867  -44.1875 H         1 UNK         0.0600 
    183 H183        0.3655   -8.6605  -42.7619 H         1 UNK         0.0600 
    184 H184       -0.6689  -11.9194  -43.7806 H         1 UNK         0.3000 
    185 H185       -0.2958  -15.2179  -42.8394 H         1 UNK         0.0600 
    186 H186       -3.0254  -13.8041  -42.8140 H         1 UNK         0.0600 
    187 H187       -2.7662  -15.5188  -43.1229 H         1 UNK         0.0600 
    188 H188       -2.4142  -14.8488  -41.5367 H         1 UNK         0.0600 
    189 H189       -1.8110  -14.1773  -44.9740 H         1 UNK         0.3000 
    190 H190       -0.4037  -19.8045  -46.6002 H         1 UNK         0.3000 
    191 H191       -1.7272  -19.9068  -49.1265 H         1 UNK         0.0600 
    192 H192       -1.3809  -17.8129  -47.9372 H         1 UNK         0.0600 
    193 H193       -2.3723  -18.3448  -46.5787 H         1 UNK         0.0600 
    194 H194       -3.1061  -18.0600  -48.1564 H         1 UNK         0.0600 
    195 H195       -2.7774  -20.9214  -45.8412 H         1 UNK         0.3000 
    196 H196       -5.4090  -21.6827  -46.5243 H         1 UNK         0.0600 
    197 H197       -4.6374  -21.3423  -44.1910 H         1 UNK         0.0600 
    198 H198       -3.5887  -22.7545  -44.3059 H         1 UNK         0.0600 
    199 H199       -5.3357  -22.9441  -44.3757 H         1 UNK         0.0600 
    200 H200       -2.3726  -23.5576  -46.6578 H         1 UNK         0.3000 
    201 H201       -3.4439  -26.0928  -47.2252 H         1 UNK         0.0600 
    202 H202       -1.1091  -25.7249  -46.5093 H         1 UNK         0.0600 
    203 H203       -0.7447  -24.8744  -48.0098 H         1 UNK         0.0600 
    204 H204       -1.1250  -26.5919  -48.0358 H         1 UNK         0.0600 
    205 H205       -3.2037  -23.3364  -49.3639 H         1 UNK         0.3000 
    206 H206       -3.4609  -24.8701  -51.8443 H         1 UNK         0.0600 
    207 H207       -3.7293  -21.8717  -51.2819 H         1 UNK         0.0600 
    208 H208       -2.2739  -22.7106  -51.8228 H         1 UNK         0.0600 
    209 H209       -3.6791  -22.6155  -52.8702 H         1 UNK         0.0600 
    210 H210       -5.6371  -24.0515  -49.3458 H         1 UNK         0.3000 
    211 H211       -7.8241  -24.0249  -49.0618 H         1 UNK         0.0600 
    212 H212       -7.8878  -25.8549  -51.5311 H         1 UNK         0.0600 
    213 H213       -9.1751  -25.6880  -50.3358 H         1 UNK         0.0600 
    214 H214       -7.6265  -26.3619  -49.8686 H         1 UNK         0.0600 
    215 H215       -9.2324  -24.3507  -52.0871 H         1 UNK         0.3000 
    216 H216      -10.0474  -21.5426  -52.2377 H         1 UNK         0.0600 
    217 H217      -11.6071  -22.3998  -53.9592 H         1 UNK         0.0600 
    218 H218      -11.7003  -23.3846  -52.5102 H         1 UNK         0.0600 
    219 H219      -10.8271  -23.9777  -53.9231 H         1 UNK         0.0600 
    220 H220       -7.3704  -21.6320  -52.5837 H         1 UNK         0.3000 
    221 H221       -5.6318  -20.9787  -53.7819 H         1 UNK         0.0600 
    222 H222       -7.6789  -19.7541  -55.7091 H         1 UNK         0.0600 
    223 H223       -7.1013  -19.0057  -54.2193 H         1 UNK         0.0600 
    224 H224       -5.9919  -19.2848  -55.5480 H         1 UNK         0.0600 
    225 H225       -6.3413  -23.6591  -54.2363 H         1 UNK         0.3000 
    226 H226       -6.4276  -24.3865  -56.9981 H         1 UNK         0.0600 
    227 H227       -7.2677  -25.8302  -55.1467 H         1 UNK         0.0600 
    228 H228       -6.0659  -26.6803  -56.1066 H         1 UNK         0.0600 
    229 H229       -5.6262  -26.0262  -54.5338 H         1 UNK         0.0600 
    230 H230       -3.7818  -23.6137  -54.8697 H         1 UNK         0.3000 
    231 H231       -1.6741  -24.6851  -56.6170 H         1 UNK         0.0600 
    232 H232       -0.1725  -23.8064  -54.8652 H         1 UNK         0.0600 
    233 H233       -1.4589  -24.7409  -54.1193 H         1 UNK         0.0600 
    234 H234       -1.5092  -22.9787  -54.0839 H         1 UNK         0.0600 
    235 H235       -3.6817  -22.0990  -56.9753 H         1 UNK         0.3000 
    236 H236       -3.7390  -20.2275  -58.1090 H         1 UNK         0.0600 
    237 H237       -1.0244  -20.9492  -59.3289 H         1 UNK         0.0600 
    238 H238       -2.5874  -21.5135  -59.9189 H         1 UNK         0.0600 
    239 H239       -2.1934  -19.8030  -59.9641 H         1 UNK         0.0600 
    240 H240       -3.1192  -19.9495  -55.5131 H         1 UNK         0.3000 
    241 H241       -1.9010  -17.3529  -55.4588 H         1 UNK         0.0600 
    242 H242       -2.3571  -16.1896  -53.3548 H         1 UNK         0.3800 
    243 H243       -3.7447  -16.7367  -52.4602 H         1 UNK         0.3800 
    244 H244       -0.3100  -17.8415  -53.5715 H         1 UNK         0.0800 
    245 H245        0.1579  -18.5476  -55.0795 H         1 UNK         0.0800 
    246 H246       -1.0196  -20.9066  -51.2974 H         1 UNK         0.0800 
    247 H247       -1.7898  -19.4044  -51.7098 H         1 UNK         0.0800 
@<TRIPOS>BOND
     1    1    2 1    
     2    1  127 1    
     3    1  128 1    
     4    1  129 1    
     5    2    3 2    
     6    2    4 am   BACKBONE|DICT|INTERRES
     7    4    5 1    
     8    4  130 1    
     9    5    6 1    
    10    5   65 1    
    11    5  131 1    
    12    6    7 1    
    13    6  132 1    
    14    6  133 1    
    15    7    8 1    
    16    8    9 1    
    17    8  134 1    
    18    8  135 1    
    19    9   10 ar   
    20    9   14 ar   
    21   10   11 ar   
    22   10  136 1    
    23   11   12 ar   
    24   11  126 1    
    25   12   13 ar   
    26   12  137 1    
    27   13   14 ar   
    28   13   15 1    
    29   14  138 1    
    30   15   16 1    
    31   15  139 1    
    32   15  140 1    
    33   16   17 1    
    34   17   18 1    
    35   17  141 1    
    36   17  142 1    
    37   18   19 1    
    38   18   67 1    
    39   18  143 1    
    40   19   20 am   BACKBONE|DICT|INTERRES
    41   19  144 1    
    42   20   21 2    
    43   20   22 1    
    44   22   23 1    
    45   22   24 1    
    46   22  145 1    
    47   23  146 1    
    48   23  147 1    
    49   23  148 1    
    50   24   25 am   BACKBONE|DICT|INTERRES
    51   24  149 1    
    52   25   26 2    
    53   25   27 1    
    54   27   28 1    
    55   27   29 1    
    56   27  150 1    
    57   28  151 1    
    58   28  152 1    
    59   28  153 1    
    60   29   30 am   BACKBONE|DICT|INTERRES
    61   29  154 1    
    62   30   31 2    
    63   30   32 1    
    64   32   33 1    
    65   32   34 1    
    66   32  155 1    
    67   33  156 1    
    68   33  157 1    
    69   33  158 1    
    70   34   35 am   BACKBONE|DICT|INTERRES
    71   34  159 1    
    72   35   36 2    
    73   35   37 1    
    74   37   38 1    
    75   37   39 1    
    76   37  160 1    
    77   38  161 1    
    78   38  162 1    
    79   38  163 1    
    80   39   40 am   BACKBONE|DICT|INTERRES
    81   39  164 1    
    82   40   41 2    
    83   40   42 1    
    84   42   43 1    
    85   42   44 1    
    86   42  165 1    
    87   43  166 1    
    88   43  167 1    
    89   43  168 1    
    90   44   45 am   BACKBONE|DICT|INTERRES
    91   44  169 1    
    92   45   46 2    
    93   45   47 1    
    94   47   48 1    
    95   47   49 1    
    96   47  170 1    
    97   48  171 1    
    98   48  172 1    
    99   48  173 1    
   100   49   50 am   BACKBONE|DICT|INTERRES
   101   49  174 1    
   102   50   51 2    
   103   50   52 1    
   104   52   53 1    
   105   52   54 1    
   106   52  175 1    
   107   53  176 1    
   108   53  177 1    
   109   53  178 1    
   110   54   55 am   BACKBONE|DICT|INTERRES
   111   54  179 1    
   112   55   56 2    
   113   55   57 1    
   114   57   58 1    
   115   57   59 1    
   116   57  180 1    
   117   58  181 1    
   118   58  182 1    
   119   58  183 1    
   120   59   60 am   BACKBONE|DICT|INTERRES
   121   59  184 1    
   122   60   61 2    
   123   60   62 1    
   124   62   63 1    
   125   62   64 1    
   126   62  185 1    
   127   63  186 1    
   128   63  187 1    
   129   63  188 1    
   130   64   65 am   BACKBONE|DICT|INTERRES
   131   64  189 1    
   132   65   66 2    
   133   67   68 2    
   134   67   69 am   BACKBONE|DICT|INTERRES
   135   69   70 1    
   136   69  190 1    
   137   70   71 1    
   138   70   72 1    
   139   70  191 1    
   140   71  192 1    
   141   71  193 1    
   142   71  194 1    
   143   72   73 2    
   144   72   74 am   BACKBONE|DICT|INTERRES
   145   74   75 1    
   146   74  195 1    
   147   75   76 1    
   148   75   77 1    
   149   75  196 1    
   150   76  197 1    
   151   76  198 1    
   152   76  199 1    
   153   77   78 2    
   154   77   79 am   BACKBONE|DICT|INTERRES
   155   79   80 1    
   156   79  200 1    
   157   80   81 1    
   158   80   82 1    
   159   80  201 1    
   160   81  202 1    
   161   81  203 1    
   162   81  204 1    
   163   82   83 2    
   164   82   84 am   BACKBONE|DICT|INTERRES
   165   84   85 1    
   166   84  205 1    
   167   85   86 1    
   168   85   87 1    
   169   85  206 1    
   170   86  207 1    
   171   86  208 1    
   172   86  209 1    
   173   87   88 2    
   174   87   89 am   BACKBONE|DICT|INTERRES
   175   89   90 1    
   176   89  210 1    
   177   90   91 1    
   178   90   92 1    
   179   90  211 1    
   180   91  212 1    
   181   91  213 1    
   182   91  214 1    
   183   92   93 2    
   184   92   94 am   BACKBONE|DICT|INTERRES
   185   94   95 1    
   186   94  215 1    
   187   95   96 1    
   188   95   97 1    
   189   95  216 1    
   190   96  217 1    
   191   96  218 1    
   192   96  219 1    
   193   97   98 2    
   194   97   99 am   BACKBONE|DICT|INTERRES
   195   99  100 1    
   196   99  220 1    
   197  100  101 1    
   198  100  102 1    
   199  100  221 1    
   200  101  222 1    
   201  101  223 1    
   202  101  224 1    
   203  102  103 2    
   204  102  104 am   BACKBONE|DICT|INTERRES
   205  104  105 1    
   206  104  225 1    
   207  105  106 1    
   208  105  107 1    
   209  105  226 1    
   210  106  227 1    
   211  106  228 1    
   212  106  229 1    
   213  107  108 2    
   214  107  109 am   BACKBONE|DICT|INTERRES
   215  109  110 1    
   216  109  230 1    
   217  110  111 1    
   218  110  112 1    
   219  110  231 1    
   220  111  232 1    
   221  111  233 1    
   222  111  234 1    
   223  112  113 2    
   224  112  114 am   BACKBONE|DICT|INTERRES
   225  114  115 1    
   226  114  235 1    
   227  115  116 1    
   228  115  117 1    
   229  115  236 1    
   230  116  237 1    
   231  116  238 1    
   232  116  239 1    
   233  117  118 2    
   234  117  119 am   BACKBONE|DICT|INTERRES
   235  119  120 1    
   236  119  240 1    
   237  120  121 1    
   238  120  124 1    
   239  120  241 1    
   240  121  122 am   BACKBONE|DICT|INTERRES
   241  121  123 2    
   242  122  242 1    
   243  122  243 1    
   244  124  125 1    
   245  124  244 1    
   246  124  245 1    
   247  125  126 1    
   248  126  246 1    
   249  126  247 1    
@<TRIPOS>SUBSTRUCTURE
     1 UNK         1 GROUP             0       ****    0 ROOT    
