@<TRIPOS>MOLECULE
3R540
247   249    1
SMALL
USER_CHARGES


@<TRIPOS>ATOM
      1 CA         -4.8794  -16.0682  -48.7054 C.3       0 UNK        -0.1800 
      2 C          -3.7317  -15.0723  -48.7916 C.2       0 UNK         0.5000 
      3 O          -3.9592  -13.8633  -48.7369 O.2       0 UNK        -0.5000 
      4 N          -2.4979  -15.5746  -48.9163 N.am      1 UNK        -0.5000 
      5 CA         -1.2519  -14.8068  -49.0329 C.3       1 UNK         0.1400 
      6 C6         -0.1282  -15.6604  -49.6756 C.3       23 UNK        -0.0398 
      7 S7         -0.4836  -16.0375  -51.4240 S.3       23 UNK        -0.2404 
      8 C8          1.1020  -15.6262  -52.2141 C.3       23 UNK        -0.0205 
      9 C9          2.0642  -16.8035  -52.1748 C.ar      23 UNK        -0.0193 
     10 C10         2.1747  -17.6397  -53.2878 C.ar      23 UNK        -0.1150 
     11 C11         3.0617  -18.7195  -53.2878 C.ar      23 UNK        -0.0193 
     12 C12         3.8529  -18.9484  -52.1572 C.ar      23 UNK        -0.1150 
     13 C13         3.7617  -18.1143  -51.0367 C.ar      23 UNK        -0.0193 
     14 C14         2.8595  -17.0457  -51.0500 C.ar      23 UNK        -0.1150 
     15 C15         4.6957  -18.3201  -49.8500 C.3       23 UNK        -0.0205 
     16 S16         4.5458  -19.9718  -49.0965 S.3       23 UNK        -0.2404 
     17 C17         3.2914  -19.7055  -47.7996 C.3       23 UNK        -0.0398 
     18 CA          2.4164  -20.9694  -47.5799 C.3       11 UNK         0.1400 
     19 N           2.1667  -21.2365  -46.1598 N.am      11 UNK        -0.5000 
     20 C           1.7535  -22.4152  -45.6709 C.2       10 UNK         0.5000 
     21 O           1.5852  -23.4213  -46.3601 O.2       10 UNK        -0.5000 
     22 CA          1.4499  -22.4797  -44.1613 C.3       10 UNK         0.1400 
     23 CB          2.7216  -22.7972  -43.3606 C.3       10 UNK        -0.1800 
     24 N           0.8397  -21.2509  -43.6517 N.am      10 UNK        -0.5000 
     25 C          -0.3679  -20.8024  -44.0208 C.2       9 UNK         0.5000 
     26 O          -1.1179  -21.4167  -44.7764 O.2       9 UNK        -0.5000 
     27 CA         -0.7907  -19.4149  -43.5112 C.3       9 UNK         0.1400 
     28 CB         -1.4115  -19.5108  -42.1108 C.3       9 UNK        -0.1800 
     29 N           0.3106  -18.4533  -43.4981 N.am      9 UNK        -0.5000 
     30 C           0.9803  -18.0386  -44.5831 C.2       8 UNK         0.5000 
     31 O           0.7157  -18.3974  -45.7301 O.2       8 UNK        -0.5000 
     32 CA          2.1915  -17.1252  -44.3338 C.3       8 UNK         0.1400 
     33 CB          1.7550  -15.6799  -44.0684 C.3       8 UNK        -0.1800 
     34 N           2.9997  -17.5985  -43.2127 N.am      8 UNK        -0.5000 
     35 C           3.7399  -18.7146  -43.2316 C.2       7 UNK         0.5000 
     36 O           3.8550  -19.4422  -44.2178 O.2       7 UNK        -0.5000 
     37 CA          4.4332  -19.0970  -41.9114 C.3       7 UNK         0.1400 
     38 CB          5.7764  -18.3651  -41.7730 C.3       7 UNK        -0.1800 
     39 N           3.6014  -18.8122  -40.7394 N.am      7 UNK        -0.5000 
     40 C           2.4669  -19.4637  -40.4470 C.2       6 UNK         0.5000 
     41 O           2.0165  -20.3861  -41.1249 O.2       6 UNK        -0.5000 
     42 CA          1.6820  -18.9725  -39.2167 C.3       6 UNK         0.1400 
     43 CB          2.2450  -19.5967  -37.9312 C.3       6 UNK        -0.1800 
     44 N           1.6590  -17.5126  -39.0816 N.am      6 UNK        -0.5000 
     45 C           1.1042  -16.6785  -39.9701 C.2       5 UNK         0.5000 
     46 O           0.6081  -17.0477  -41.0368 O.2       5 UNK        -0.5000 
     47 CA          1.1545  -15.1798  -39.6368 C.3       5 UNK         0.1400 
     48 CB          2.4165  -14.5417  -40.2374 C.3       5 UNK        -0.1800 
     49 N          -0.0228  -14.5098  -40.1839 N.am      5 UNK        -0.5000 
     50 C          -1.1963  -14.3896  -39.5479 C.2       4 UNK         0.5000 
     51 O          -1.3823  -14.7350  -38.3803 O.2       4 UNK        -0.5000 
     52 CA         -2.3627  -13.7955  -40.3595 C.3       4 UNK         0.1400 
     53 CB         -2.3547  -12.2614  -40.2784 C.3       4 UNK        -0.1800 
     54 N          -2.2978  -14.2003  -41.7625 N.am      4 UNK        -0.5000 
     55 C          -2.6812  -15.3893  -42.2388 C.2       3 UNK         0.5000 
     56 O          -3.2716  -16.2228  -41.5504 O.2       3 UNK        -0.5000 
     57 CA         -2.3459  -15.7102  -43.7178 C.3       3 UNK         0.1400 
     58 CB         -3.3146  -16.7420  -44.3259 C.3       3 UNK        -0.1800 
     59 N          -2.2793  -14.5656  -44.6349 N.am      3 UNK        -0.5000 
     60 C          -1.3900  -13.5633  -44.6432 C.2       2 UNK         0.5000 
     61 O          -0.5452  -13.3913  -43.7629 O.2       2 UNK        -0.5000 
     62 CA         -1.4758  -12.6028  -45.8477 C.3       2 UNK         0.1400 
     63 CB         -0.2840  -11.6257  -45.9236 C.3       2 UNK        -0.1800 
     64 N          -1.6487  -13.3132  -47.1221 N.am      2 UNK        -0.5000 
     65 C          -0.8206  -14.2145  -47.6720 C.2       1 UNK         0.5000 
     66 O           0.2319  -14.5829  -47.1518 O.2       1 UNK        -0.5000 
     67 C           1.1043  -20.9036  -48.3890 C.2       11 UNK         0.5000 
     68 O           1.0413  -21.4506  -49.4892 O.2       11 UNK        -0.5000 
     69 N           0.0802  -20.2493  -47.8216 N.am      12 UNK        -0.5000 
     70 CA         -1.2511  -20.1137  -48.4130 C.3       12 UNK         0.1400 
     71 CB         -2.0205  -19.0102  -47.6711 C.3       12 UNK        -0.1800 
     72 C          -2.0638  -21.4214  -48.4094 C.2       12 UNK         0.5000 
     73 O          -2.8590  -21.6350  -49.3264 O.2       12 UNK        -0.5000 
     74 N          -1.8346  -22.2580  -47.3888 N.am      13 UNK        -0.5000 
     75 CA         -2.4986  -23.5223  -47.0666 C.3       13 UNK         0.1400 
     76 CB         -2.3894  -24.5302  -48.2289 C.3       13 UNK        -0.1800 
     77 C          -3.9541  -23.3397  -46.5915 C.2       13 UNK         0.5000 
     78 O          -4.4979  -22.2311  -46.6070 O.2       13 UNK        -0.5000 
     79 N          -4.5589  -24.4521  -46.1516 N.am      14 UNK        -0.5000 
     80 CA         -5.9455  -24.5345  -45.6912 C.3       14 UNK         0.1400 
     81 CB         -6.2440  -25.9712  -45.2370 C.3       14 UNK        -0.1800 
     82 C          -6.9322  -24.0948  -46.7865 C.2       14 UNK         0.5000 
     83 O          -6.7994  -24.5283  -47.9327 O.2       14 UNK        -0.5000 
     84 N          -7.8656  -23.2063  -46.4189 N.am      15 UNK        -0.5000 
     85 CA         -8.8607  -22.5651  -47.2898 C.3       15 UNK         0.1400 
     86 CB         -9.8910  -23.6022  -47.7850 C.3       15 UNK        -0.1800 
     87 C          -8.2473  -21.7430  -48.4487 C.2       15 UNK         0.5000 
     88 O          -8.9248  -21.5133  -49.4517 O.2       15 UNK        -0.5000 
     89 N          -6.9799  -21.3227  -48.2931 N.am      16 UNK        -0.5000 
     90 CA         -6.1512  -20.6129  -49.2737 C.3       16 UNK         0.1400 
     91 CB         -6.7324  -19.2127  -49.5681 C.3       16 UNK        -0.1800 
     92 C          -5.8816  -21.4371  -50.5538 C.2       16 UNK         0.5000 
     93 O          -5.6961  -20.8587  -51.6251 O.2       16 UNK        -0.5000 
     94 N          -5.8698  -22.7736  -50.4317 N.am      17 UNK        -0.5000 
     95 CA         -5.7599  -23.7125  -51.5497 C.3       17 UNK         0.1400 
     96 CB         -5.9367  -25.1468  -51.0307 C.3       17 UNK        -0.1800 
     97 C          -4.4588  -23.5937  -52.3638 C.2       17 UNK         0.5000 
     98 O          -4.5074  -23.7037  -53.5892 O.2       17 UNK        -0.5000 
     99 N          -3.3263  -23.3597  -51.6875 N.am      18 UNK        -0.5000 
    100 CA        -2.0289  -23.1818  -52.3391 C.3       18 UNK         0.1400 
    101 CB        -0.8894  -23.5788  -51.3929 C.3       18 UNK        -0.1800 
    102 C         -1.8597  -21.7496  -52.8667 C.2       18 UNK         0.5000 
    103 O         -1.3147  -21.5781  -53.9543 O.2       18 UNK        -0.5000 
    104 N         -2.3957  -20.7556  -52.1425 N.am      19 UNK        -0.5000 
    105 CA        -2.4664  -19.3578  -52.5828 C.3       19 UNK         0.1400 
    106 CB        -3.0592  -18.4851  -51.4654 C.3       19 UNK        -0.1800 
    107 C         -3.2658  -19.1837  -53.8894 C.2       19 UNK         0.5000 
    108 O         -2.8635  -18.3998  -54.7480 O.2       19 UNK        -0.5000 
    109 N         -4.3603  -19.9448  -54.0254 N.am      20 UNK        -0.5000 
    110 CA        -5.1770  -20.0258  -55.2350 C.3       20 UNK         0.1400 
    111 CB        -6.5127  -20.7028  -54.8911 C.3       20 UNK        -0.1800 
    112 C         -4.4794  -20.7666  -56.3938 C.2       20 UNK         0.5000 
    113 O         -4.7294  -20.4343  -57.5532 O.2       20 UNK        -0.5000 
    114 N         -3.6362  -21.7589  -56.0728 N.am      21 UNK        -0.5000 
    115 CA        -2.8670  -22.5367  -57.0469 C.3       21 UNK         0.1400 
    116 CB        -2.3982  -23.8533  -56.4088 C.3       21 UNK        -0.1800 
    117 C         -1.6734  -21.7496  -57.6187 C.2       21 UNK         0.5000 
    118 O         -1.3958  -21.8596  -58.8141 O.2       21 UNK        -0.5000 
    119 N         -0.9971  -20.9725  -56.7630 N.am      22 UNK        -0.5000 
    120 CA         0.0804  -20.0392  -57.1246 C.3       22 UNK         0.1400 
    121 C         -0.3780  -18.9350  -58.1217 C.2       22 UNK         0.5000 
    122 N          0.4844  -18.5340  -59.0464 N.am      22 UNK        -0.7600 
    123 O         -1.4843  -18.4069  -58.0413 O.2       22 UNK        -0.5000 
    124 C124        0.7081  -19.3925  -55.8637 C.3       23 UNK        -0.0398 
    125 S125        1.7007  -20.5719  -54.8808 S.3       23 UNK        -0.2404 
    126 C126        3.2065  -19.6071  -54.5202 C.3       23 UNK        -0.0205 
    127 H127       -5.3818  -15.9804  -47.7422 H         1 UNK         0.0600 
    128 H128       -4.5338  -17.0955  -48.8167 H         1 UNK         0.0600 
    129 H129       -5.6082  -15.8702  -49.4913 H         1 UNK         0.0600 
    130 H130       -2.3831  -16.5752  -48.9535 H         1 UNK         0.3000 
    131 H131       -1.4351  -13.9545  -49.6912 H         1 UNK         0.0600 
    132 H132        0.0167  -16.5960  -49.1327 H         1 UNK         0.0800 
    133 H133        0.8233  -15.1301  -49.6203 H         1 UNK         0.0800 
    134 H134        1.5525  -14.7478  -51.7501 H         1 UNK         0.0800 
    135 H135        0.9045  -15.3433  -53.2492 H         1 UNK         0.0800 
    136 H136        1.5704  -17.4377  -54.1585 H         1 UNK         0.1150 
    137 H137        4.5598  -19.7663  -52.1527 H         1 UNK         0.1150 
    138 H138        2.7926  -16.3885  -50.1950 H         1 UNK         0.1150 
    139 H139        5.7211  -18.1967  -50.2009 H         1 UNK         0.0800 
    140 H140        4.5452  -17.5533  -49.0884 H         1 UNK         0.0800 
    141 H141        2.6891  -18.8228  -48.0256 H         1 UNK         0.0800 
    142 H142        3.8406  -19.4571  -46.8909 H         1 UNK         0.0800 
    143 H143        2.9676  -21.8365  -47.9513 H         1 UNK         0.0600 
    144 H144        2.3123  -20.4678  -45.5173 H         1 UNK         0.3000 
    145 H145        0.7400  -23.2941  -44.0025 H         1 UNK         0.0600 
    146 H146        2.4992  -22.9199  -42.3005 H         1 UNK         0.0600 
    147 H147        3.1791  -23.7249  -43.7063 H         1 UNK         0.0600 
    148 H148        3.4672  -22.0081  -43.4566 H         1 UNK         0.0600 
    149 H149        1.3681  -20.7290  -42.9594 H         1 UNK         0.3000 
    150 H150       -1.5484  -19.0368  -44.1981 H         1 UNK         0.0600 
    151 H151       -2.2731  -20.1795  -42.1109 H         1 UNK         0.0600 
    152 H152       -1.7552  -18.5368  -41.7632 H         1 UNK         0.0600 
    153 H153       -0.6988  -19.8921  -41.3798 H         1 UNK         0.0600 
    154 H154        0.5680  -18.0737  -42.5899 H         1 UNK         0.3000 
    155 H155        2.8101  -17.1342  -45.2339 H         1 UNK         0.0600 
    156 H156        1.1235  -15.5977  -43.1846 H         1 UNK         0.0600 
    157 H157        1.1836  -15.2914  -44.9086 H         1 UNK         0.0600 
    158 H158        2.6141  -15.0234  -43.9318 H         1 UNK         0.0600 
    159 H159        2.9228  -17.0856  -42.3479 H         1 UNK         0.3000 
    160 H160        4.6304  -20.1708  -41.9381 H         1 UNK         0.0600 
    161 H161        5.6440  -17.2838  -41.7167 H         1 UNK         0.0600 
    162 H162        6.4231  -18.5729  -42.6265 H         1 UNK         0.0600 
    163 H163        6.3092  -18.6855  -40.8776 H         1 UNK         0.0600 
    164 H164        3.9030  -18.0663  -40.1300 H         1 UNK         0.3000 
    165 H165        0.6498  -19.3097  -39.3317 H         1 UNK         0.0600 
    166 H166        1.6368  -19.3335  -37.0657 H         1 UNK         0.0600 
    167 H167        2.2567  -20.6855  -37.9988 H         1 UNK         0.0600 
    168 H168        3.2669  -19.2689  -37.7365 H         1 UNK         0.0600 
    169 H169        2.0606  -17.1333  -38.2361 H         1 UNK         0.3000 
    170 H170        1.1823  -15.0538  -38.5524 H         1 UNK         0.0600 
    171 H171        3.3191  -15.0124  -39.8457 H         1 UNK         0.0600 
    172 H172        2.4422  -14.6342  -41.3233 H         1 UNK         0.0600 
    173 H173        2.4731  -13.4808  -39.9930 H         1 UNK         0.0600 
    174 H174        0.0230  -14.2516  -41.1591 H         1 UNK         0.3000 
    175 H175       -3.2975  -14.1563  -39.9251 H         1 UNK         0.0600 
    176 H176       -1.4469  -11.8390  -40.7114 H         1 UNK         0.0600 
    177 H177       -3.2076  -11.8353  -40.8069 H         1 UNK         0.0600 
    178 H178       -2.4129  -11.9251  -39.2424 H         1 UNK         0.0600 
    179 H179       -1.7631  -13.6067  -42.3902 H         1 UNK         0.3000 
    180 H180       -1.3535  -16.1621  -43.7001 H         1 UNK         0.0600 
    181 H181       -2.9837  -17.0566  -45.3161 H         1 UNK         0.0600 
    182 H182       -4.3215  -16.3345  -44.4218 H         1 UNK         0.0600 
    183 H183       -3.3861  -17.6402  -43.7122 H         1 UNK         0.0600 
    184 H184       -2.9468  -14.5851  -45.3914 H         1 UNK         0.3000 
    185 H185       -2.3787  -12.0087  -45.7004 H         1 UNK         0.0600 
    186 H186       -0.2281  -11.0080  -45.0265 H         1 UNK         0.0600 
    187 H187        0.6669  -12.1514  -46.0166 H         1 UNK         0.0600 
    188 H188       -0.3799  -10.9520  -46.7750 H         1 UNK         0.0600 
    189 H189       -2.5171  -13.1334  -47.6191 H         1 UNK         0.3000 
    190 H190        0.2393  -19.7665  -46.9407 H         1 UNK         0.3000 
    191 H191       -1.1171  -19.8129  -49.4526 H         1 UNK         0.0600 
    192 H192       -2.9994  -18.8467  -48.1222 H         1 UNK         0.0600 
    193 H193       -1.4788  -18.0651  -47.6925 H         1 UNK         0.0600 
    194 H194       -2.1841  -19.2742  -46.6256 H         1 UNK         0.0600 
    195 H195       -1.2426  -21.9100  -46.6409 H         1 UNK         0.3000 
    196 H196       -1.9432  -23.9279  -46.2197 H         1 UNK         0.0600 
    197 H197       -3.0337  -24.2593  -49.0638 H         1 UNK         0.0600 
    198 H198       -1.3650  -24.5969  -48.5947 H         1 UNK         0.0600 
    199 H199       -2.6798  -25.5321  -47.9126 H         1 UNK         0.0600 
    200 H200       -4.0537  -25.3249  -46.1863 H         1 UNK         0.3000 
    201 H201       -6.0479  -23.8711  -44.8300 H         1 UNK         0.0600 
    202 H202       -6.1271  -26.6839  -46.0546 H         1 UNK         0.0600 
    203 H203       -7.2671  -26.0593  -44.8691 H         1 UNK         0.0600 
    204 H204       -5.5809  -26.2762  -44.4272 H         1 UNK         0.0600 
    205 H205       -7.8762  -22.8965  -45.4568 H         1 UNK         0.3000 
    206 H206       -9.3925  -21.8467  -46.6646 H         1 UNK         0.0600 
    207 H207      -10.3132  -24.1671  -46.9539 H         1 UNK         0.0600 
    208 H208      -10.7215  -23.1167  -48.2988 H         1 UNK         0.0600 
    209 H209       -9.4469  -24.3128  -48.4827 H         1 UNK         0.0600 
    210 H210       -6.4908  -21.5943  -47.4483 H         1 UNK         0.3000 
    211 H211       -5.1813  -20.4676  -48.7978 H         1 UNK         0.0600 
    212 H212       -6.0584  -18.6229  -50.1875 H         1 UNK         0.0600 
    213 H213       -6.8953  -18.6525  -48.6475 H         1 UNK         0.0600 
    214 H214       -7.6828  -19.2701  -50.0988 H         1 UNK         0.0600 
    215 H215       -6.0485  -23.1793  -49.5207 H         1 UNK         0.3000 
    216 H216       -6.5854  -23.4986  -52.2318 H         1 UNK         0.0600 
    217 H217       -5.1881  -25.3971  -50.2779 H         1 UNK         0.0600 
    218 H218       -5.8468  -25.8724  -51.8402 H         1 UNK         0.0600 
    219 H219       -6.9210  -25.2836  -50.5826 H         1 UNK         0.0600 
    220 H220       -3.3704  -23.1675  -50.6935 H         1 UNK         0.3000 
    221 H221       -1.9730  -23.8547  -53.1971 H         1 UNK         0.0600 
    222 H222       -0.9709  -24.6243  -51.0964 H         1 UNK         0.0600 
    223 H223       -0.8805  -22.9733  -50.4901 H         1 UNK         0.0600 
    224 H224        0.0798  -23.4517  -51.8769 H         1 UNK         0.0600 
    225 H225       -2.8264  -20.9877  -51.2544 H         1 UNK         0.3000 
    226 H226       -1.4471  -19.0164  -52.7769 H         1 UNK         0.0600 
    227 H227       -3.9879  -18.8996  -51.0810 H         1 UNK         0.0600 
    228 H228       -2.3668  -18.3835  -50.6335 H         1 UNK         0.0600 
    229 H229       -3.2723  -17.4765  -51.8226 H         1 UNK         0.0600 
    230 H230       -4.6727  -20.4922  -53.2278 H         1 UNK         0.3000 
    231 H231       -5.3879  -19.0086  -55.5714 H         1 UNK         0.0600 
    232 H232       -6.3644  -21.7183  -54.5216 H         1 UNK         0.0600 
    233 H233       -7.1596  -20.7615  -55.7672 H         1 UNK         0.0600 
    234 H234       -7.0513  -20.1448  -54.1248 H         1 UNK         0.0600 
    235 H235       -3.4937  -21.9803  -55.0972 H         1 UNK         0.3000 
    236 H236       -3.5281  -22.7893  -57.8787 H         1 UNK         0.0600 
    237 H237       -3.2392  -24.4245  -56.0154 H         1 UNK         0.0600 
    238 H238       -1.8935  -24.4814  -57.1437 H         1 UNK         0.0600 
    239 H239       -1.6967  -23.6811  -55.5931 H         1 UNK         0.0600 
    240 H240       -1.2493  -21.0014  -55.7789 H         1 UNK         0.3000 
    241 H241        0.8509  -20.6285  -57.6256 H         1 UNK         0.0600 
    242 H242        0.2081  -17.8091  -59.6907 H         1 UNK         0.3800 
    243 H243        1.4009  -18.9460  -59.1321 H         1 UNK         0.3800 
    244 H244       -0.0681  -18.9670  -55.2251 H         1 UNK         0.0800 
    245 H245        1.3519  -18.5613  -56.1548 H         1 UNK         0.0800 
    246 H246        4.0267  -20.3122  -54.3769 H         1 UNK         0.0800 
    247 H247        3.4863  -18.9998  -55.3818 H         1 UNK         0.0800 
@<TRIPOS>BOND
     1    1    2 1    
     2    1  127 1    
     3    1  128 1    
     4    1  129 1    
     5    2    3 2    
     6    2    4 am   BACKBONE|DICT|INTERRES
     7    4    5 1    
     8    4  130 1    
     9    5    6 1    
    10    5   65 1    
    11    5  131 1    
    12    6    7 1    
    13    6  132 1    
    14    6  133 1    
    15    7    8 1    
    16    8    9 1    
    17    8  134 1    
    18    8  135 1    
    19    9   10 ar   
    20    9   14 ar   
    21   10   11 ar   
    22   10  136 1    
    23   11   12 ar   
    24   11  126 1    
    25   12   13 ar   
    26   12  137 1    
    27   13   14 ar   
    28   13   15 1    
    29   14  138 1    
    30   15   16 1    
    31   15  139 1    
    32   15  140 1    
    33   16   17 1    
    34   17   18 1    
    35   17  141 1    
    36   17  142 1    
    37   18   19 1    
    38   18   67 1    
    39   18  143 1    
    40   19   20 am   BACKBONE|DICT|INTERRES
    41   19  144 1    
    42   20   21 2    
    43   20   22 1    
    44   22   23 1    
    45   22   24 1    
    46   22  145 1    
    47   23  146 1    
    48   23  147 1    
    49   23  148 1    
    50   24   25 am   BACKBONE|DICT|INTERRES
    51   24  149 1    
    52   25   26 2    
    53   25   27 1    
    54   27   28 1    
    55   27   29 1    
    56   27  150 1    
    57   28  151 1    
    58   28  152 1    
    59   28  153 1    
    60   29   30 am   BACKBONE|DICT|INTERRES
    61   29  154 1    
    62   30   31 2    
    63   30   32 1    
    64   32   33 1    
    65   32   34 1    
    66   32  155 1    
    67   33  156 1    
    68   33  157 1    
    69   33  158 1    
    70   34   35 am   BACKBONE|DICT|INTERRES
    71   34  159 1    
    72   35   36 2    
    73   35   37 1    
    74   37   38 1    
    75   37   39 1    
    76   37  160 1    
    77   38  161 1    
    78   38  162 1    
    79   38  163 1    
    80   39   40 am   BACKBONE|DICT|INTERRES
    81   39  164 1    
    82   40   41 2    
    83   40   42 1    
    84   42   43 1    
    85   42   44 1    
    86   42  165 1    
    87   43  166 1    
    88   43  167 1    
    89   43  168 1    
    90   44   45 am   BACKBONE|DICT|INTERRES
    91   44  169 1    
    92   45   46 2    
    93   45   47 1    
    94   47   48 1    
    95   47   49 1    
    96   47  170 1    
    97   48  171 1    
    98   48  172 1    
    99   48  173 1    
   100   49   50 am   BACKBONE|DICT|INTERRES
   101   49  174 1    
   102   50   51 2    
   103   50   52 1    
   104   52   53 1    
   105   52   54 1    
   106   52  175 1    
   107   53  176 1    
   108   53  177 1    
   109   53  178 1    
   110   54   55 am   BACKBONE|DICT|INTERRES
   111   54  179 1    
   112   55   56 2    
   113   55   57 1    
   114   57   58 1    
   115   57   59 1    
   116   57  180 1    
   117   58  181 1    
   118   58  182 1    
   119   58  183 1    
   120   59   60 am   BACKBONE|DICT|INTERRES
   121   59  184 1    
   122   60   61 2    
   123   60   62 1    
   124   62   63 1    
   125   62   64 1    
   126   62  185 1    
   127   63  186 1    
   128   63  187 1    
   129   63  188 1    
   130   64   65 am   BACKBONE|DICT|INTERRES
   131   64  189 1    
   132   65   66 2    
   133   67   68 2    
   134   67   69 am   BACKBONE|DICT|INTERRES
   135   69   70 1    
   136   69  190 1    
   137   70   71 1    
   138   70   72 1    
   139   70  191 1    
   140   71  192 1    
   141   71  193 1    
   142   71  194 1    
   143   72   73 2    
   144   72   74 am   BACKBONE|DICT|INTERRES
   145   74   75 1    
   146   74  195 1    
   147   75   76 1    
   148   75   77 1    
   149   75  196 1    
   150   76  197 1    
   151   76  198 1    
   152   76  199 1    
   153   77   78 2    
   154   77   79 am   BACKBONE|DICT|INTERRES
   155   79   80 1    
   156   79  200 1    
   157   80   81 1    
   158   80   82 1    
   159   80  201 1    
   160   81  202 1    
   161   81  203 1    
   162   81  204 1    
   163   82   83 2    
   164   82   84 am   BACKBONE|DICT|INTERRES
   165   84   85 1    
   166   84  205 1    
   167   85   86 1    
   168   85   87 1    
   169   85  206 1    
   170   86  207 1    
   171   86  208 1    
   172   86  209 1    
   173   87   88 2    
   174   87   89 am   BACKBONE|DICT|INTERRES
   175   89   90 1    
   176   89  210 1    
   177   90   91 1    
   178   90   92 1    
   179   90  211 1    
   180   91  212 1    
   181   91  213 1    
   182   91  214 1    
   183   92   93 2    
   184   92   94 am   BACKBONE|DICT|INTERRES
   185   94   95 1    
   186   94  215 1    
   187   95   96 1    
   188   95   97 1    
   189   95  216 1    
   190   96  217 1    
   191   96  218 1    
   192   96  219 1    
   193   97   98 2    
   194   97   99 am   BACKBONE|DICT|INTERRES
   195   99  100 1    
   196   99  220 1    
   197  100  101 1    
   198  100  102 1    
   199  100  221 1    
   200  101  222 1    
   201  101  223 1    
   202  101  224 1    
   203  102  103 2    
   204  102  104 am   BACKBONE|DICT|INTERRES
   205  104  105 1    
   206  104  225 1    
   207  105  106 1    
   208  105  107 1    
   209  105  226 1    
   210  106  227 1    
   211  106  228 1    
   212  106  229 1    
   213  107  108 2    
   214  107  109 am   BACKBONE|DICT|INTERRES
   215  109  110 1    
   216  109  230 1    
   217  110  111 1    
   218  110  112 1    
   219  110  231 1    
   220  111  232 1    
   221  111  233 1    
   222  111  234 1    
   223  112  113 2    
   224  112  114 am   BACKBONE|DICT|INTERRES
   225  114  115 1    
   226  114  235 1    
   227  115  116 1    
   228  115  117 1    
   229  115  236 1    
   230  116  237 1    
   231  116  238 1    
   232  116  239 1    
   233  117  118 2    
   234  117  119 am   BACKBONE|DICT|INTERRES
   235  119  120 1    
   236  119  240 1    
   237  120  121 1    
   238  120  124 1    
   239  120  241 1    
   240  121  122 am   BACKBONE|DICT|INTERRES
   241  121  123 2    
   242  122  242 1    
   243  122  243 1    
   244  124  125 1    
   245  124  244 1    
   246  124  245 1    
   247  125  126 1    
   248  126  246 1    
   249  126  247 1    
@<TRIPOS>SUBSTRUCTURE
     1 UNK         1 GROUP             0       ****    0 ROOT    
