@<TRIPOS>MOLECULE
3R540
247   249    1
SMALL
USER_CHARGES


@<TRIPOS>ATOM
      1 CA         -2.7338  -10.9082  -44.9914 C.3       0 UNK        -0.1800 
      2 C          -1.3940  -10.4210  -45.5257 C.2       0 UNK         0.5000 
      3 O          -0.9484   -9.3318  -45.1642 O.2       0 UNK        -0.5000 
      4 N          -0.7556  -11.2232  -46.3842 N.am      1 UNK        -0.5000 
      5 CA          0.5751  -10.9780  -46.9486 C.3       1 UNK         0.1400 
      6 C6          0.7988  -11.7717  -48.2634 C.3       23 UNK        -0.0398 
      7 S7          0.3507  -13.5446  -48.1831 S.3       23 UNK        -0.2404 
      8 C8         -0.8564  -13.6036  -49.5438 C.3       23 UNK        -0.0205 
      9 C9         -1.4196  -14.9979  -49.7552 C.ar      23 UNK        -0.0193 
     10 C10        -0.7085  -15.9363  -50.5050 C.ar      23 UNK        -0.1150 
     11 C11        -1.2371  -17.2094  -50.7331 C.ar      23 UNK        -0.0193 
     12 C12        -2.4944  -17.5372  -50.2117 C.ar      23 UNK        -0.1150 
     13 C13        -3.2251  -16.6004  -49.4646 C.ar      23 UNK        -0.0193 
     14 C14        -2.6707  -15.3375  -49.2371 C.ar      23 UNK        -0.1150 
     15 C15        -4.6369  -16.8606  -48.9358 C.3       23 UNK        -0.0205 
     16 S16        -5.1966  -18.5957  -48.9440 S.3       23 UNK        -0.2404 
     17 C17        -4.6925  -19.1715  -47.2909 C.3       23 UNK        -0.0398 
     18 CA         -4.2506  -20.6516  -47.3368 C.3       11 UNK         0.1400 
     19 N          -2.9390  -20.8122  -47.9752 N.am      11 UNK        -0.5000 
     20 C          -2.3475  -21.9829  -48.2463 C.2       10 UNK         0.5000 
     21 O          -2.8753  -23.0769  -48.0450 O.2       10 UNK        -0.5000 
     22 CA         -0.9084  -21.9359  -48.7919 C.3       10 UNK         0.1400 
     23 CB         -0.9412  -22.0216  -50.3241 C.3       10 UNK        -0.1800 
     24 N          -0.1151  -20.7666  -48.3878 N.am      10 UNK        -0.5000 
     25 C           0.0928  -20.3363  -47.1344 C.2       9 UNK         0.5000 
     26 O          -0.4481  -20.8299  -46.1410 O.2       9 UNK        -0.5000 
     27 CA          1.0319  -19.1281  -46.9838 C.3       9 UNK         0.1400 
     28 CB          0.3362  -17.8476  -47.4654 C.3       9 UNK        -0.1800 
     29 N           1.4337  -18.9534  -45.5909 N.am      9 UNK        -0.5000 
     30 C           2.4832  -19.5569  -45.0159 C.2       8 UNK         0.5000 
     31 O           3.2679  -20.2808  -45.6302 O.2       8 UNK        -0.5000 
     32 CA          2.7093  -19.3136  -43.5099 C.3       8 UNK         0.1400 
     33 CB          4.0721  -18.6484  -43.2553 C.3       8 UNK        -0.1800 
     34 N           1.6537  -18.4799  -42.9300 N.am      8 UNK        -0.5000 
     35 C           0.6314  -18.9512  -42.2035 C.2       7 UNK         0.5000 
     36 O           0.5419  -20.1239  -41.8398 O.2       7 UNK        -0.5000 
     37 CA         -0.4891  -17.9643  -41.8195 C.3       7 UNK         0.1400 
     38 CB         -0.3649  -17.5635  -40.3428 C.3       7 UNK        -0.1800 
     39 N          -0.5274  -16.7667  -42.6666 N.am      7 UNK        -0.5000 
     40 C          -0.9880  -16.7577  -43.9279 C.2       6 UNK         0.5000 
     41 O          -1.4307  -17.7676  -44.4754 O.2       6 UNK        -0.5000 
     42 CA         -0.8978  -15.4479  -44.7456 C.3       6 UNK         0.1400 
     43 CB         -2.1759  -15.1732  -45.5649 C.3       6 UNK        -0.1800 
     44 N          -0.4868  -14.2698  -43.9773 N.am      6 UNK        -0.5000 
     45 C          -1.1560  -13.6199  -43.0153 C.2       5 UNK         0.5000 
     46 O          -2.3081  -13.8845  -42.6706 O.2       5 UNK        -0.5000 
     47 CA         -0.3567  -12.5073  -42.3014 C.3       5 UNK         0.1400 
     48 CB         -1.0186  -12.0186  -40.9958 C.3       5 UNK        -0.1800 
     49 N           1.0449  -12.8988  -42.0823 N.am      5 UNK        -0.5000 
     50 C           1.4703  -13.9301  -41.3367 C.2       4 UNK         0.5000 
     51 O           0.7139  -14.6372  -40.6735 O.2       4 UNK        -0.5000 
     52 CA          2.9797  -14.2491  -41.3781 C.3       4 UNK         0.1400 
     53 CB          3.3283  -15.5837  -40.6852 C.3       4 UNK        -0.1800 
     54 N           3.5398  -14.2259  -42.7330 N.am      4 UNK        -0.5000 
     55 C           3.1732  -14.9617  -43.7913 C.2       3 UNK         0.5000 
     56 O           2.2376  -15.7639  -43.7737 O.2       3 UNK        -0.5000 
     57 CA          3.9895  -14.7481  -45.0880 C.3       3 UNK         0.1400 
     58 CB          3.5052  -15.6463  -46.2400 C.3       3 UNK        -0.1800 
     59 N           3.9430  -13.3590  -45.5445 N.am      3 UNK        -0.5000 
     60 C           4.5371  -12.3069  -44.9664 C.2       2 UNK         0.5000 
     61 O           5.3306  -12.4100  -44.0295 O.2       2 UNK        -0.5000 
     62 CA          4.1530  -10.9013  -45.4768 C.3       2 UNK         0.1400 
     63 CB          5.3106  -10.2923  -46.2831 C.3       2 UNK        -0.1800 
     64 N           2.9278  -10.8273  -46.2848 N.am      2 UNK        -0.5000 
     65 C           1.7000  -11.2268  -45.9195 C.2       1 UNK         0.5000 
     66 O           1.4581  -11.7878  -44.8480 O.2       1 UNK        -0.5000 
     67 C          -4.3373  -21.3024  -45.9387 C.2       11 UNK         0.5000 
     68 O          -5.4230  -21.7322  -45.5478 O.2       11 UNK        -0.5000 
     69 N          -3.2034  -21.3971  -45.2349 N.am      12 UNK        -0.5000 
     70 CA         -3.0771  -22.0922  -43.9587 C.3       12 UNK         0.1400 
     71 CB         -2.4959  -21.1202  -42.9248 C.3       12 UNK        -0.1800 
     72 C          -2.1879  -23.3369  -44.1029 C.2       12 UNK         0.5000 
     73 O          -2.5714  -24.4114  -43.6406 O.2       12 UNK        -0.5000 
     74 N          -1.0259  -23.1820  -44.7533 N.am      13 UNK        -0.5000 
     75 CA          0.0258  -24.1976  -44.8488 C.3       13 UNK         0.1400 
     76 CB          1.3130  -23.5359  -45.3646 C.3       13 UNK        -0.1800 
     77 C          -0.3372  -25.4140  -45.7204 C.2       13 UNK         0.5000 
     78 O           0.2075  -26.4952  -45.4943 O.2       13 UNK        -0.5000 
     79 N          -1.2414  -25.2237  -46.6884 N.am      14 UNK        -0.5000 
     80 CA         -1.7378  -26.2618  -47.5935 C.3       14 UNK         0.1400 
     81 CB         -1.2394  -25.9638  -49.0193 C.3       14 UNK        -0.1800 
     82 C          -3.2731  -26.3593  -47.5341 C.2       14 UNK         0.5000 
     83 O          -3.8811  -26.8834  -48.4678 O.2       14 UNK        -0.5000 
     84 N          -3.8812  -25.8196  -46.4641 N.am      15 UNK        -0.5000 
     85 CA         -5.3242  -25.7786  -46.1871 C.3       15 UNK         0.1400 
     86 CB         -5.8236  -27.1849  -45.7973 C.3       15 UNK        -0.1800 
     87 C          -6.1676  -25.1448  -47.3186 C.2       15 UNK         0.5000 
     88 O          -7.3253  -25.5209  -47.5085 O.2       15 UNK        -0.5000 
     89 N          -5.5554  -24.2122  -48.0623 N.am      16 UNK        -0.5000 
     90 CA         -6.0774  -23.5151  -49.2385 C.3       16 UNK         0.1400 
     91 CB         -7.3426  -22.6984  -48.9015 C.3       16 UNK        -0.1800 
     92 C          -6.2543  -24.3998  -50.4899 C.2       16 UNK         0.5000 
     93 O          -6.8739  -23.9473  -51.4530 O.2       16 UNK        -0.5000 
     94 N          -5.6788  -25.6123  -50.5010 N.am      17 UNK        -0.5000 
     95 CA         -5.7020  -26.5073  -51.6613 C.3       17 UNK         0.1400 
     96 CB         -5.3299  -27.9338  -51.2292 C.3       17 UNK        -0.1800 
     97 C          -4.7693  -26.0135  -52.7818 C.2       17 UNK         0.5000 
     98 O          -5.1660  -25.9965  -53.9472 O.2       17 UNK        -0.5000 
     99 N          -3.5560  -25.5900  -52.4000 N.am      18 UNK        -0.5000 
    100 CA        -2.5425  -25.0524  -53.3125 C.3       18 UNK         0.1400 
    101 CB        -1.1467  -25.3479  -52.7420 C.3       18 UNK        -0.1800 
    102 C         -2.7127  -23.5443  -53.5805 C.2       18 UNK         0.5000 
    103 O         -2.0918  -23.0239  -54.5074 O.2       18 UNK        -0.5000 
    104 N         -3.5535  -22.8644  -52.7846 N.am      19 UNK        -0.5000 
    105 CA        -3.7977  -21.4177  -52.8440 C.3       19 UNK         0.1400 
    106 CB        -4.6397  -20.9848  -51.6379 C.3       19 UNK        -0.1800 
    107 C         -4.4299  -20.9198  -54.1580 C.2       19 UNK         0.5000 
    108 O         -4.3651  -19.7254  -54.4469 O.2       19 UNK        -0.5000 
    109 N         -4.9959  -21.8405  -54.9483 N.am      20 UNK        -0.5000 
    110 CA        -5.5136  -21.5911  -56.2924 C.3       20 UNK         0.1400 
    111 CB        -6.2701  -22.8422  -56.7654 C.3       20 UNK        -0.1800 
    112 C         -4.4278  -21.1985  -57.3179 C.2       20 UNK         0.5000 
    113 O         -4.7685  -20.6045  -58.3421 O.2       20 UNK        -0.5000 
    114 N         -3.1572  -21.5321  -57.0455 N.am      21 UNK        -0.5000 
    115 CA        -2.0260  -21.2709  -57.9360 C.3       21 UNK         0.1400 
    116 CB        -1.8964  -22.4230  -58.9530 C.3       21 UNK        -0.1800 
    117 C         -0.7236  -21.0134  -57.1540 C.2       21 UNK         0.5000 
    118 O          0.3567  -21.3334  -57.6551 O.2       21 UNK        -0.5000 
    119 N         -0.8299  -20.4534  -55.9409 N.am      22 UNK        -0.5000 
    120 CA         0.3260  -20.1052  -55.0991 C.3       22 UNK         0.1400 
    121 C          1.1015  -18.8461  -55.5888 C.2       22 UNK         0.5000 
    122 N          2.3360  -18.6605  -55.1395 N.am      22 UNK        -0.7600 
    123 O          0.5981  -18.0282  -56.3569 O.2       22 UNK        -0.5000 
    124 C124       -0.0466  -20.0439  -53.5952 C.3       23 UNK        -0.0398 
    125 S125       -1.1471  -18.6650  -53.1103 S.3       23 UNK        -0.2404 
    126 C126       -0.4218  -18.2427  -51.4962 C.3       23 UNK        -0.0205 
    127 H127       -2.9467  -11.9314  -45.3025 H         1 UNK         0.0600 
    128 H128       -3.5374  -10.2670  -45.3532 H         1 UNK         0.0600 
    129 H129       -2.7383  -10.8793  -43.9018 H         1 UNK         0.0600 
    130 H130       -1.1533  -12.1206  -46.6198 H         1 UNK         0.3000 
    131 H131        0.6310   -9.9170  -47.2020 H         1 UNK         0.0600 
    132 H132        1.8296  -11.6951  -48.6122 H         1 UNK         0.0800 
    133 H133        0.2097  -11.2941  -49.0474 H         1 UNK         0.0800 
    134 H134       -0.3789  -13.2646  -50.4646 H         1 UNK         0.0800 
    135 H135       -1.6648  -12.8993  -49.3401 H         1 UNK         0.0800 
    136 H136        0.2619  -15.6744  -50.9027 H         1 UNK         0.1150 
    137 H137       -2.8983  -18.5187  -50.4110 H         1 UNK         0.1150 
    138 H138       -3.2283  -14.6039  -48.6716 H         1 UNK         0.1150 
    139 H139       -4.7344  -16.4592  -47.9257 H         1 UNK         0.0800 
    140 H140       -5.3296  -16.2897  -49.5554 H         1 UNK         0.0800 
    141 H141       -5.5524  -19.0342  -46.6322 H         1 UNK         0.0800 
    142 H142       -3.8944  -18.5421  -46.8920 H         1 UNK         0.0800 
    143 H143       -4.9692  -21.1907  -47.9518 H         1 UNK         0.0600 
    144 H144       -2.4293  -19.9631  -48.1666 H         1 UNK         0.3000 
    145 H145       -0.3931  -22.8198  -48.4117 H         1 UNK         0.0600 
    146 H146        0.0621  -22.0935  -50.7443 H         1 UNK         0.0600 
    147 H147       -1.4941  -22.9012  -50.6511 H         1 UNK         0.0600 
    148 H148       -1.4346  -21.1554  -50.7634 H         1 UNK         0.0600 
    149 H149        0.3784  -20.2986  -49.1325 H         1 UNK         0.3000 
    150 H150        1.9187  -19.2935  -47.5991 H         1 UNK         0.0600 
    151 H151        0.1854  -17.8811  -48.5414 H         1 UNK         0.0600 
    152 H152        0.9350  -16.9623  -47.2594 H         1 UNK         0.0600 
    153 H153       -0.6418  -17.7103  -47.0044 H         1 UNK         0.0600 
    154 H154        0.7763  -18.4682  -44.9972 H         1 UNK         0.3000 
    155 H155        2.7266  -20.2939  -43.0299 H         1 UNK         0.0600 
    156 H156        4.1722  -17.7076  -43.7935 H         1 UNK         0.0600 
    157 H157        4.8875  -19.2957  -43.5803 H         1 UNK         0.0600 
    158 H158        4.2218  -18.4469  -42.1946 H         1 UNK         0.0600 
    159 H159        1.6815  -17.4915  -43.1710 H         1 UNK         0.3000 
    160 H160       -1.4404  -18.4868  -41.9369 H         1 UNK         0.0600 
    161 H161        0.6220  -17.1601  -40.1164 H         1 UNK         0.0600 
    162 H162       -0.5151  -18.4275  -39.6945 H         1 UNK         0.0600 
    163 H163       -1.1093  -16.8162  -40.0676 H         1 UNK         0.0600 
    164 H164       -0.1480  -15.9159  -42.2691 H         1 UNK         0.3000 
    165 H165       -0.0908  -15.6105  -45.4607 H         1 UNK         0.0600 
    166 H166       -3.0516  -15.0533  -44.9272 H         1 UNK         0.0600 
    167 H167       -2.0712  -14.2726  -46.1690 H         1 UNK         0.0600 
    168 H168       -2.3851  -15.9953  -46.2502 H         1 UNK         0.0600 
    169 H169        0.4622  -13.9641  -44.1501 H         1 UNK         0.3000 
    170 H170       -0.3375  -11.6573  -42.9828 H         1 UNK         0.0600 
    171 H171       -2.0026  -11.5932  -41.1963 H         1 UNK         0.0600 
    172 H172       -1.1557  -12.8271  -40.2775 H         1 UNK         0.0600 
    173 H173       -0.4214  -11.2420  -40.5181 H         1 UNK         0.0600 
    174 H174        1.7178  -12.4077  -42.6578 H         1 UNK         0.3000 
    175 H175        3.4746  -13.4500  -40.8247 H         1 UNK         0.0600 
    176 H176        2.8378  -16.4301  -41.1658 H         1 UNK         0.0600 
    177 H177        4.4024  -15.7677  -40.7015 H         1 UNK         0.0600 
    178 H178        3.0171  -15.5762  -39.6399 H         1 UNK         0.0600 
    179 H179        4.2980  -13.5662  -42.8851 H         1 UNK         0.3000 
    180 H180        5.0257  -15.0109  -44.8665 H         1 UNK         0.0600 
    181 H181        2.4840  -15.3993  -46.5305 H         1 UNK         0.0600 
    182 H182        3.5243  -16.6998  -45.9600 H         1 UNK         0.0600 
    183 H183        4.1384  -15.5350  -47.1201 H         1 UNK         0.0600 
    184 H184        3.2853  -13.1635  -46.2841 H         1 UNK         0.3000 
    185 H185        3.9913  -10.2816  -44.5927 H         1 UNK         0.0600 
    186 H186        5.4966  -10.8502  -47.2017 H         1 UNK         0.0600 
    187 H187        5.1031   -9.2569  -46.5537 H         1 UNK         0.0600 
    188 H188        6.2361  -10.2940  -45.7054 H         1 UNK         0.0600 
    189 H189        3.0369  -10.3804  -47.1837 H         1 UNK         0.3000 
    190 H190       -2.3442  -21.0333  -45.6357 H         1 UNK         0.3000 
    191 H191       -4.0501  -22.4273  -43.5936 H         1 UNK         0.0600 
    192 H192       -2.2902  -21.6192  -41.9770 H         1 UNK         0.0600 
    193 H193       -3.1878  -20.3023  -42.7236 H         1 UNK         0.0600 
    194 H194       -1.5641  -20.6840  -43.2830 H         1 UNK         0.0600 
    195 H195       -0.7939  -22.2685  -45.1384 H         1 UNK         0.3000 
    196 H196        0.2188  -24.5680  -43.8398 H         1 UNK         0.0600 
    197 H197        1.1922  -23.1562  -46.3794 H         1 UNK         0.0600 
    198 H198        1.6112  -22.7020  -44.7287 H         1 UNK         0.0600 
    199 H199        2.1404  -24.2463  -45.3774 H         1 UNK         0.0600 
    200 H200       -1.6575  -24.3077  -46.8053 H         1 UNK         0.3000 
    201 H201       -1.3596  -27.2425  -47.2994 H         1 UNK         0.0600 
    202 H202       -1.6709  -25.0430  -49.4095 H         1 UNK         0.0600 
    203 H203       -1.5061  -26.7684  -49.7057 H         1 UNK         0.0600 
    204 H204       -0.1544  -25.8638  -49.0460 H         1 UNK         0.0600 
    205 H205       -3.2916  -25.4189  -45.7469 H         1 UNK         0.3000 
    206 H206       -5.4492  -25.1283  -45.3200 H         1 UNK         0.0600 
    207 H207       -5.2298  -27.6024  -44.9842 H         1 UNK         0.0600 
    208 H208       -6.8594  -27.1553  -45.4571 H         1 UNK         0.0600 
    209 H209       -5.7738  -27.8769  -46.6388 H         1 UNK         0.0600 
    210 H210       -4.5884  -23.9928  -47.8400 H         1 UNK         0.3000 
    211 H211       -5.2971  -22.8075  -49.5088 H         1 UNK         0.0600 
    212 H212       -7.5876  -22.0080  -49.7094 H         1 UNK         0.0600 
    213 H213       -7.2055  -22.1032  -47.9988 H         1 UNK         0.0600 
    214 H214       -8.2104  -23.3405  -48.7493 H         1 UNK         0.0600 
    215 H215       -5.1768  -25.9397  -49.6808 H         1 UNK         0.3000 
    216 H216       -6.7199  -26.5332  -52.0565 H         1 UNK         0.0600 
    217 H217       -4.3034  -27.9944  -50.8663 H         1 UNK         0.0600 
    218 H218       -5.4219  -28.6289  -52.0645 H         1 UNK         0.0600 
    219 H219       -5.9866  -28.2894  -50.4350 H         1 UNK         0.0600 
    220 H220       -3.3089  -25.6518  -51.4232 H         1 UNK         0.3000 
    221 H221       -2.6214  -25.5607  -54.2760 H         1 UNK         0.0600 
    222 H222       -0.9960  -26.4190  -52.6066 H         1 UNK         0.0600 
    223 H223       -0.9877  -24.8645  -51.7795 H         1 UNK         0.0600 
    224 H224       -0.3659  -24.9948  -53.4171 H         1 UNK         0.0600 
    225 H225       -4.0603  -23.3818  -52.0838 H         1 UNK         0.3000 
    226 H226       -2.8297  -20.9284  -52.7600 H         1 UNK         0.0600 
    227 H227       -5.6111  -21.4786  -51.6245 H         1 UNK         0.0600 
    228 H228       -4.1262  -21.1989  -50.7019 H         1 UNK         0.0600 
    229 H229       -4.8229  -19.9098  -51.6606 H         1 UNK         0.0600 
    230 H230       -5.0107  -22.7979  -54.6283 H         1 UNK         0.3000 
    231 H231       -6.2224  -20.7626  -56.2326 H         1 UNK         0.0600 
    232 H232       -5.6129  -23.7110  -56.8230 H         1 UNK         0.0600 
    233 H233       -6.7000  -22.6890  -57.7562 H         1 UNK         0.0600 
    234 H234       -7.0910  -23.0862  -56.0907 H         1 UNK         0.0600 
    235 H235       -2.9392  -22.0215  -56.1832 H         1 UNK         0.3000 
    236 H236       -2.2134  -20.3494  -58.4911 H         1 UNK         0.0600 
    237 H237       -2.8141  -22.5507  -59.5271 H         1 UNK         0.0600 
    238 H238       -1.0962  -22.2319  -59.6690 H         1 UNK         0.0600 
    239 H239       -1.6778  -23.3687  -58.4560 H         1 UNK         0.0600 
    240 H240       -1.7362  -20.1639  -55.6036 H         1 UNK         0.3000 
    241 H241        1.0300  -20.9348  -55.1944 H         1 UNK         0.0600 
    242 H242        2.8471  -17.8464  -55.4439 H         1 UNK         0.3800 
    243 H243        2.7818  -19.3164  -54.5173 H         1 UNK         0.3800 
    244 H244        0.8678  -19.9948  -53.0023 H         1 UNK         0.0800 
    245 H245       -0.5222  -20.9805  -53.3030 H         1 UNK         0.0800 
    246 H246        0.5977  -17.8861  -51.6525 H         1 UNK         0.0800 
    247 H247       -0.3397  -19.1408  -50.8874 H         1 UNK         0.0800 
@<TRIPOS>BOND
     1    1    2 1    
     2    1  127 1    
     3    1  128 1    
     4    1  129 1    
     5    2    3 2    
     6    2    4 am   BACKBONE|DICT|INTERRES
     7    4    5 1    
     8    4  130 1    
     9    5    6 1    
    10    5   65 1    
    11    5  131 1    
    12    6    7 1    
    13    6  132 1    
    14    6  133 1    
    15    7    8 1    
    16    8    9 1    
    17    8  134 1    
    18    8  135 1    
    19    9   10 ar   
    20    9   14 ar   
    21   10   11 ar   
    22   10  136 1    
    23   11   12 ar   
    24   11  126 1    
    25   12   13 ar   
    26   12  137 1    
    27   13   14 ar   
    28   13   15 1    
    29   14  138 1    
    30   15   16 1    
    31   15  139 1    
    32   15  140 1    
    33   16   17 1    
    34   17   18 1    
    35   17  141 1    
    36   17  142 1    
    37   18   19 1    
    38   18   67 1    
    39   18  143 1    
    40   19   20 am   BACKBONE|DICT|INTERRES
    41   19  144 1    
    42   20   21 2    
    43   20   22 1    
    44   22   23 1    
    45   22   24 1    
    46   22  145 1    
    47   23  146 1    
    48   23  147 1    
    49   23  148 1    
    50   24   25 am   BACKBONE|DICT|INTERRES
    51   24  149 1    
    52   25   26 2    
    53   25   27 1    
    54   27   28 1    
    55   27   29 1    
    56   27  150 1    
    57   28  151 1    
    58   28  152 1    
    59   28  153 1    
    60   29   30 am   BACKBONE|DICT|INTERRES
    61   29  154 1    
    62   30   31 2    
    63   30   32 1    
    64   32   33 1    
    65   32   34 1    
    66   32  155 1    
    67   33  156 1    
    68   33  157 1    
    69   33  158 1    
    70   34   35 am   BACKBONE|DICT|INTERRES
    71   34  159 1    
    72   35   36 2    
    73   35   37 1    
    74   37   38 1    
    75   37   39 1    
    76   37  160 1    
    77   38  161 1    
    78   38  162 1    
    79   38  163 1    
    80   39   40 am   BACKBONE|DICT|INTERRES
    81   39  164 1    
    82   40   41 2    
    83   40   42 1    
    84   42   43 1    
    85   42   44 1    
    86   42  165 1    
    87   43  166 1    
    88   43  167 1    
    89   43  168 1    
    90   44   45 am   BACKBONE|DICT|INTERRES
    91   44  169 1    
    92   45   46 2    
    93   45   47 1    
    94   47   48 1    
    95   47   49 1    
    96   47  170 1    
    97   48  171 1    
    98   48  172 1    
    99   48  173 1    
   100   49   50 am   BACKBONE|DICT|INTERRES
   101   49  174 1    
   102   50   51 2    
   103   50   52 1    
   104   52   53 1    
   105   52   54 1    
   106   52  175 1    
   107   53  176 1    
   108   53  177 1    
   109   53  178 1    
   110   54   55 am   BACKBONE|DICT|INTERRES
   111   54  179 1    
   112   55   56 2    
   113   55   57 1    
   114   57   58 1    
   115   57   59 1    
   116   57  180 1    
   117   58  181 1    
   118   58  182 1    
   119   58  183 1    
   120   59   60 am   BACKBONE|DICT|INTERRES
   121   59  184 1    
   122   60   61 2    
   123   60   62 1    
   124   62   63 1    
   125   62   64 1    
   126   62  185 1    
   127   63  186 1    
   128   63  187 1    
   129   63  188 1    
   130   64   65 am   BACKBONE|DICT|INTERRES
   131   64  189 1    
   132   65   66 2    
   133   67   68 2    
   134   67   69 am   BACKBONE|DICT|INTERRES
   135   69   70 1    
   136   69  190 1    
   137   70   71 1    
   138   70   72 1    
   139   70  191 1    
   140   71  192 1    
   141   71  193 1    
   142   71  194 1    
   143   72   73 2    
   144   72   74 am   BACKBONE|DICT|INTERRES
   145   74   75 1    
   146   74  195 1    
   147   75   76 1    
   148   75   77 1    
   149   75  196 1    
   150   76  197 1    
   151   76  198 1    
   152   76  199 1    
   153   77   78 2    
   154   77   79 am   BACKBONE|DICT|INTERRES
   155   79   80 1    
   156   79  200 1    
   157   80   81 1    
   158   80   82 1    
   159   80  201 1    
   160   81  202 1    
   161   81  203 1    
   162   81  204 1    
   163   82   83 2    
   164   82   84 am   BACKBONE|DICT|INTERRES
   165   84   85 1    
   166   84  205 1    
   167   85   86 1    
   168   85   87 1    
   169   85  206 1    
   170   86  207 1    
   171   86  208 1    
   172   86  209 1    
   173   87   88 2    
   174   87   89 am   BACKBONE|DICT|INTERRES
   175   89   90 1    
   176   89  210 1    
   177   90   91 1    
   178   90   92 1    
   179   90  211 1    
   180   91  212 1    
   181   91  213 1    
   182   91  214 1    
   183   92   93 2    
   184   92   94 am   BACKBONE|DICT|INTERRES
   185   94   95 1    
   186   94  215 1    
   187   95   96 1    
   188   95   97 1    
   189   95  216 1    
   190   96  217 1    
   191   96  218 1    
   192   96  219 1    
   193   97   98 2    
   194   97   99 am   BACKBONE|DICT|INTERRES
   195   99  100 1    
   196   99  220 1    
   197  100  101 1    
   198  100  102 1    
   199  100  221 1    
   200  101  222 1    
   201  101  223 1    
   202  101  224 1    
   203  102  103 2    
   204  102  104 am   BACKBONE|DICT|INTERRES
   205  104  105 1    
   206  104  225 1    
   207  105  106 1    
   208  105  107 1    
   209  105  226 1    
   210  106  227 1    
   211  106  228 1    
   212  106  229 1    
   213  107  108 2    
   214  107  109 am   BACKBONE|DICT|INTERRES
   215  109  110 1    
   216  109  230 1    
   217  110  111 1    
   218  110  112 1    
   219  110  231 1    
   220  111  232 1    
   221  111  233 1    
   222  111  234 1    
   223  112  113 2    
   224  112  114 am   BACKBONE|DICT|INTERRES
   225  114  115 1    
   226  114  235 1    
   227  115  116 1    
   228  115  117 1    
   229  115  236 1    
   230  116  237 1    
   231  116  238 1    
   232  116  239 1    
   233  117  118 2    
   234  117  119 am   BACKBONE|DICT|INTERRES
   235  119  120 1    
   236  119  240 1    
   237  120  121 1    
   238  120  124 1    
   239  120  241 1    
   240  121  122 am   BACKBONE|DICT|INTERRES
   241  121  123 2    
   242  122  242 1    
   243  122  243 1    
   244  124  125 1    
   245  124  244 1    
   246  124  245 1    
   247  125  126 1    
   248  126  246 1    
   249  126  247 1    
@<TRIPOS>SUBSTRUCTURE
     1 UNK         1 GROUP             0       ****    0 ROOT    
