@<TRIPOS>MOLECULE
3R540
247   249    1
SMALL
USER_CHARGES


@<TRIPOS>ATOM
      1 CA         -3.1118   -8.0867  -42.2927 C.3       0 UNK        -0.1800 
      2 C          -2.4078   -9.1014  -43.1826 C.2       0 UNK         0.5000 
      3 O          -1.3325   -8.8115  -43.7049 O.2       0 UNK        -0.5000 
      4 N          -3.0158  -10.2806  -43.3597 N.am      1 UNK        -0.5000 
      5 CA         -2.4898  -11.4201  -44.1169 C.3       1 UNK         0.1400 
      6 C6         -3.6271  -12.4468  -44.3673 C.3       23 UNK        -0.0398 
      7 S7         -3.1467  -13.8947  -45.3680 S.3       23 UNK        -0.2404 
      8 C8         -3.7336  -13.4039  -47.0158 C.3       23 UNK        -0.0205 
      9 C9         -3.3824  -14.4667  -48.0425 C.ar      23 UNK        -0.0193 
     10 C10        -2.1368  -14.4446  -48.6777 C.ar      23 UNK        -0.1150 
     11 C11        -1.7994  -15.4355  -49.6020 C.ar      23 UNK        -0.0193 
     12 C12        -2.7150  -16.4465  -49.8944 C.ar      23 UNK        -0.1150 
     13 C13        -3.9588  -16.4840  -49.2633 C.ar      23 UNK        -0.0193 
     14 C14        -4.2925  -15.4858  -48.3429 C.ar      23 UNK        -0.1150 
     15 C15        -4.9208  -17.6234  -49.5643 C.3       23 UNK        -0.0205 
     16 S16        -5.1412  -18.7324  -48.1370 S.3       23 UNK        -0.2404 
     17 C17        -3.4211  -19.1614  -47.6802 C.3       23 UNK        -0.0398 
     18 CA         -3.2028  -20.6695  -47.4227 C.3       11 UNK         0.1400 
     19 N          -1.7812  -20.9989  -47.2743 N.am      11 UNK        -0.5000 
     20 C          -1.2930  -22.2416  -47.1529 C.2       10 UNK         0.5000 
     21 O          -1.9937  -23.2495  -47.1998 O.2       10 UNK        -0.5000 
     22 CA          0.2108  -22.3852  -46.8596 C.3       10 UNK         0.1400 
     23 CB          1.0459  -22.2308  -48.1391 C.3       10 UNK        -0.1800 
     24 N           0.6598  -21.4357  -45.8405 N.am      10 UNK        -0.5000 
     25 C           0.2513  -21.4594  -44.5630 C.2       9 UNK         0.5000 
     26 O          -0.4649  -22.3445  -44.0955 O.2       9 UNK        -0.5000 
     27 CA          0.6670  -20.2756  -43.6689 C.3       9 UNK         0.1400 
     28 CB          2.0553  -20.5109  -43.0566 C.3       9 UNK        -0.1800 
     29 N           0.6461  -18.9944  -44.3782 N.am      9 UNK        -0.5000 
     30 C          -0.4598  -18.4218  -44.8766 C.2       8 UNK         0.5000 
     31 O          -1.5892  -18.8890  -44.7322 O.2       8 UNK        -0.5000 
     32 CA         -0.2662  -17.1502  -45.7259 C.3       8 UNK         0.1400 
     33 CB         -0.1145  -15.9132  -44.8309 C.3       8 UNK        -0.1800 
     34 N           0.8817  -17.2586  -46.6296 N.am      8 UNK        -0.5000 
     35 C           0.9667  -18.1442  -47.6327 C.2       7 UNK         0.5000 
     36 O           0.0373  -18.8775  -47.9664 O.2       7 UNK        -0.5000 
     37 CA          2.3332  -18.2930  -48.3274 C.3       7 UNK         0.1400 
     38 CB          2.5055  -17.2989  -49.4831 C.3       7 UNK        -0.1800 
     39 N           3.4344  -18.1260  -47.3821 N.am      7 UNK        -0.5000 
     40 C           3.8302  -19.0665  -46.5149 C.2       6 UNK         0.5000 
     41 O           3.3183  -20.1830  -46.4436 O.2       6 UNK        -0.5000 
     42 CA          4.9666  -18.6853  -45.5469 C.3       6 UNK         0.1400 
     43 CB          6.3342  -18.9893  -46.1760 C.3       6 UNK        -0.1800 
     44 N           4.9215  -17.2777  -45.1462 N.am      6 UNK        -0.5000 
     45 C           3.9604  -16.7436  -44.3803 C.2       5 UNK         0.5000 
     46 O           3.0354  -17.3953  -43.8974 O.2       5 UNK        -0.5000 
     47 CA          4.0106  -15.2197  -44.1624 C.3       5 UNK         0.1400 
     48 CB          4.8827  -14.8738  -42.9473 C.3       5 UNK        -0.1800 
     49 N           4.4824  -14.4643  -45.3268 N.am      5 UNK        -0.5000 
     50 C           3.9061  -14.4699  -46.5356 C.2       4 UNK         0.5000 
     51 O           2.9457  -15.1848  -46.8259 O.2       4 UNK        -0.5000 
     52 CA          4.4724  -13.4732  -47.5645 C.3       4 UNK         0.1400 
     53 CB          3.9575  -13.7394  -48.9907 C.3       4 UNK        -0.1800 
     54 N           4.0931  -12.1195  -47.1719 N.am      4 UNK        -0.5000 
     55 C           4.7368  -11.3624  -46.2729 C.2       3 UNK         0.5000 
     56 O           5.8243  -11.6623  -45.7784 O.2       3 UNK        -0.5000 
     57 CA          3.9995  -10.0930  -45.8015 C.3       3 UNK         0.1400 
     58 CB          4.3015   -8.9098  -46.7333 C.3       3 UNK        -0.1800 
     59 N           2.5481  -10.2955  -45.7223 N.am      3 UNK        -0.5000 
     60 C           1.9531  -11.1364  -44.8648 C.2       2 UNK         0.5000 
     61 O           2.5532  -11.7519  -43.9782 O.2       2 UNK        -0.5000 
     62 CA          0.4487  -11.3669  -45.0670 C.3       2 UNK         0.1400 
     63 CB          0.2085  -12.2248  -46.3229 C.3       2 UNK        -0.1800 
     64 N          -0.0600  -12.0414  -43.8741 N.am      2 UNK        -0.5000 
     65 C          -1.2937  -12.0450  -43.3516 C.2       1 UNK         0.5000 
     66 O          -1.5073  -12.5412  -42.2446 O.2       1 UNK        -0.5000 
     67 C          -4.0508  -21.1930  -46.2397 C.2       11 UNK         0.5000 
     68 O          -5.1083  -21.7843  -46.4654 O.2       11 UNK        -0.5000 
     69 N          -3.5456  -21.0265  -45.0088 N.am      12 UNK        -0.5000 
     70 CA         -4.1562  -21.5478  -43.7835 C.3       12 UNK         0.1400 
     71 CB         -3.3931  -21.0142  -42.5622 C.3       12 UNK        -0.1800 
     72 C          -4.2497  -23.0877  -43.7469 C.2       12 UNK         0.5000 
     73 O          -5.1929  -23.6213  -43.1612 O.2       12 UNK        -0.5000 
     74 N          -3.3161  -23.7791  -44.4150 N.am      13 UNK        -0.5000 
     75 CA         -3.3101  -25.2284  -44.6184 C.3       13 UNK         0.1400 
     76 CB         -1.8592  -25.7043  -44.8147 C.3       13 UNK        -0.1800 
     77 C          -4.2426  -25.6416  -45.7792 C.2       13 UNK         0.5000 
     78 O          -3.7999  -26.2684  -46.7445 O.2       13 UNK        -0.5000 
     79 N          -5.5267  -25.2738  -45.6570 N.am      14 UNK        -0.5000 
     80 CA         -6.6412  -25.5948  -46.5559 C.3       14 UNK         0.1400 
     81 CB         -6.9999  -27.0910  -46.4375 C.3       14 UNK        -0.1800 
     82 C          -6.3951  -25.1568  -48.0145 C.2       14 UNK         0.5000 
     83 O          -6.5682  -25.9562  -48.9369 O.2       14 UNK        -0.5000 
     84 N          -5.9595  -23.9008  -48.1934 N.am      15 UNK        -0.5000 
     85 CA         -5.5885  -23.2810  -49.4697 C.3       15 UNK         0.1400 
     86 CB         -6.8263  -23.0898  -50.3713 C.3       15 UNK        -0.1800 
     87 C          -4.4429  -24.0404  -50.1678 C.2       15 UNK         0.5000 
     88 O          -4.5339  -24.3243  -51.3616 O.2       15 UNK        -0.5000 
     89 N          -3.4075  -24.3986  -49.3959 N.am      16 UNK        -0.5000 
     90 CA         -2.2533  -25.2182  -49.7800 C.3       16 UNK         0.1400 
     91 CB         -1.3598  -24.4524  -50.7759 C.3       16 UNK        -0.1800 
     92 C          -2.6687  -26.6157  -50.2849 C.2       16 UNK         0.5000 
     93 O          -2.1351  -27.0957  -51.2852 O.2       16 UNK        -0.5000 
     94 N          -3.6452  -27.2203  -49.5917 N.am      17 UNK        -0.5000 
     95 CA         -4.3688  -28.4406  -49.9633 C.3       17 UNK         0.1400 
     96 CB         -3.4453  -29.6744  -49.8899 C.3       17 UNK        -0.1800 
     97 C          -5.0919  -28.2920  -51.3214 C.2       17 UNK         0.5000 
     98 O          -4.9381  -29.1350  -52.2075 O.2       17 UNK        -0.5000 
     99 N          -5.8637  -27.2023  -51.4443 N.am      18 UNK        -0.5000 
    100 CA        -6.6528  -26.7824  -52.6072 C.3       18 UNK         0.1400 
    101 CB        -7.8339  -27.7490  -52.8336 C.3       18 UNK        -0.1800 
    102 C         -5.8101  -26.5423  -53.8810 C.2       18 UNK         0.5000 
    103 O         -6.2158  -26.9435  -54.9740 O.2       18 UNK        -0.5000 
    104 N         -4.6581  -25.8813  -53.7168 N.am      19 UNK        -0.5000 
    105 CA        -3.7331  -25.5091  -54.7924 C.3       19 UNK         0.1400 
    106 CB        -2.3952  -26.2310  -54.5690 C.3       19 UNK        -0.1800 
    107 C         -3.5087  -23.9862  -54.8888 C.2       19 UNK         0.5000 
    108 O         -2.9967  -23.5300  -55.9124 O.2       19 UNK        -0.5000 
    109 N         -3.8931  -23.2371  -53.8432 N.am      20 UNK        -0.5000 
    110 CA        -3.6832  -21.8022  -53.6141 C.3       20 UNK         0.1400 
    111 CB        -4.2946  -20.9508  -54.7469 C.3       20 UNK        -0.1800 
    112 C         -2.2078  -21.4387  -53.3378 C.2       20 UNK         0.5000 
    113 O         -1.3154  -22.2830  -53.4425 O.2       20 UNK        -0.5000 
    114 N         -1.9799  -20.1782  -52.9561 N.am      21 UNK        -0.5000 
    115 CA        -0.6722  -19.6191  -52.6269 C.3       21 UNK         0.1400 
    116 CB        -0.4158  -19.7841  -51.1189 C.3       21 UNK        -0.1800 
    117 C         -0.6404  -18.1429  -53.0525 C.2       21 UNK         0.5000 
    118 O         -1.7037  -17.5332  -53.1876 O.2       21 UNK        -0.5000 
    119 N          0.5738  -17.6231  -53.2791 N.am      22 UNK        -0.5000 
    120 CA         0.9677  -16.2733  -53.7492 C.3       22 UNK         0.1400 
    121 C          0.2982  -15.6972  -55.0378 C.2       22 UNK         0.5000 
    122 N         -0.8217  -16.2211  -55.5115 N.am      22 UNK        -0.7600 
    123 O          0.8366  -14.7746  -55.6442 O.2       22 UNK        -0.5000 
    124 C124        1.0831  -15.2153  -52.6144 C.3       23 UNK        -0.0398 
    125 S125       -0.5011  -14.6494  -51.9034 S.3       23 UNK        -0.2404 
    126 C126       -0.4406  -15.4444  -50.2726 C.3       23 UNK        -0.0205 
    127 H127       -4.0558   -8.4711  -41.9057 H         1 UNK         0.0600 
    128 H128       -3.3204   -7.1762  -42.8543 H         1 UNK         0.0600 
    129 H129       -2.4773   -7.8277  -41.4451 H         1 UNK         0.0600 
    130 H130       -3.8844  -10.4518  -42.8734 H         1 UNK         0.3000 
    131 H131       -2.1724  -11.0480  -45.0902 H         1 UNK         0.0600 
    132 H132       -4.0156  -12.8194  -43.4177 H         1 UNK         0.0800 
    133 H133       -4.4695  -11.9525  -44.8534 H         1 UNK         0.0800 
    134 H134       -4.8132  -13.2475  -46.9891 H         1 UNK         0.0800 
    135 H135       -3.2862  -12.4493  -47.2969 H         1 UNK         0.0800 
    136 H136       -1.4262  -13.6645  -48.4458 H         1 UNK         0.1150 
    137 H137       -2.4508  -17.2127  -50.6086 H         1 UNK         0.1150 
    138 H138       -5.2510  -15.5173  -47.8440 H         1 UNK         0.1150 
    139 H139       -5.8900  -17.2109  -49.8475 H         1 UNK         0.0800 
    140 H140       -4.5754  -18.2094  -50.4176 H         1 UNK         0.0800 
    141 H141       -3.1436  -18.5698  -46.8078 H         1 UNK         0.0800 
    142 H142       -2.7511  -18.8465  -48.4798 H         1 UNK         0.0800 
    143 H143       -3.5305  -21.1979  -48.3169 H         1 UNK         0.0600 
    144 H144       -1.1294  -20.2187  -47.2785 H         1 UNK         0.3000 
    145 H145        0.3784  -23.3921  -46.4715 H         1 UNK         0.0600 
    146 H146        2.1108  -22.3347  -47.9304 H         1 UNK         0.0600 
    147 H147        0.7821  -22.9975  -48.8679 H         1 UNK         0.0600 
    148 H148        0.8908  -21.2635  -48.6143 H         1 UNK         0.0600 
    149 H149        1.3104  -20.7168  -46.1347 H         1 UNK         0.3000 
    150 H150       -0.0541  -20.2117  -42.8515 H         1 UNK         0.0600 
    151 H151        2.0776  -21.4419  -42.4889 H         1 UNK         0.0600 
    152 H152        2.3262  -19.7063  -42.3729 H         1 UNK         0.0600 
    153 H153        2.8289  -20.5751  -43.8211 H         1 UNK         0.0600 
    154 H154        1.5334  -18.5089  -44.4700 H         1 UNK         0.3000 
    155 H155       -1.1622  -17.0158  -46.3360 H         1 UNK         0.0600 
    156 H156       -0.9548  -15.8247  -44.1412 H         1 UNK         0.0600 
    157 H157       -0.0930  -15.0042  -45.4278 H         1 UNK         0.0600 
    158 H158        0.7961  -15.9486  -44.2347 H         1 UNK         0.0600 
    159 H159        1.6690  -16.6406  -46.4600 H         1 UNK         0.3000 
    160 H160        2.3902  -19.2998  -48.7463 H         1 UNK         0.0600 
    161 H161        2.2875  -16.2768  -49.1757 H         1 UNK         0.0600 
    162 H162        1.8437  -17.5500  -50.3092 H         1 UNK         0.0600 
    163 H163        3.5219  -17.3205  -49.8766 H         1 UNK         0.0600 
    164 H164        3.8445  -17.2044  -47.3262 H         1 UNK         0.3000 
    165 H165        4.8596  -19.2991  -44.6501 H         1 UNK         0.0600 
    166 H166        7.1440  -18.7924  -45.4733 H         1 UNK         0.0600 
    167 H167        6.4051  -20.0385  -46.4661 H         1 UNK         0.0600 
    168 H168        6.5102  -18.3890  -47.0694 H         1 UNK         0.0600 
    169 H169        5.6460  -16.6728  -45.5041 H         1 UNK         0.3000 
    170 H170        2.9925  -14.8859  -43.9525 H         1 UNK         0.0600 
    171 H171        4.5421  -15.4051  -42.0575 H         1 UNK         0.0600 
    172 H172        5.9273  -15.1410  -43.1114 H         1 UNK         0.0600 
    173 H173        4.8389  -13.8074  -42.7241 H         1 UNK         0.0600 
    174 H174        5.2349  -13.8073  -45.1644 H         1 UNK         0.3000 
    175 H175        5.5601  -13.5688  -47.5728 H         1 UNK         0.0600 
    176 H176        2.8704  -13.6714  -49.0518 H         1 UNK         0.0600 
    177 H177        4.3764  -13.0247  -49.6993 H         1 UNK         0.0600 
    178 H178        4.2463  -14.7352  -49.3282 H         1 UNK         0.0600 
    179 H179        3.1926  -11.8013  -47.4968 H         1 UNK         0.3000 
    180 H180        4.3654   -9.8458  -44.8026 H         1 UNK         0.0600 
    181 H181        3.9413   -9.0907  -47.7468 H         1 UNK         0.0600 
    182 H182        5.3751   -8.7264  -46.7943 H         1 UNK         0.0600 
    183 H183        3.8368   -7.9931  -46.3698 H         1 UNK         0.0600 
    184 H184        1.9873   -9.8122  -46.4093 H         1 UNK         0.3000 
    185 H185       -0.0250  -10.3934  -45.1850 H         1 UNK         0.0600 
    186 H186       -0.8329  -12.5200  -46.4207 H         1 UNK         0.0600 
    187 H187        0.8153  -13.1306  -46.3142 H         1 UNK         0.0600 
    188 H188        0.4684  -11.6738  -47.2271 H         1 UNK         0.0600 
    189 H189        0.6937  -12.4344  -43.3240 H         1 UNK         0.3000 
    190 H190       -2.6952  -20.4804  -44.9010 H         1 UNK         0.3000 
    191 H191       -5.1759  -21.1599  -43.7384 H         1 UNK         0.0600 
    192 H192       -2.3658  -21.3759  -42.5378 H         1 UNK         0.0600 
    193 H193       -3.3645  -19.9244  -42.5592 H         1 UNK         0.0600 
    194 H194       -3.8727  -21.3303  -41.6351 H         1 UNK         0.0600 
    195 H195       -2.5907  -23.2626  -44.8963 H         1 UNK         0.3000 
    196 H196       -3.6896  -25.7119  -43.7160 H         1 UNK         0.0600 
    197 H197       -1.2306  -25.4082  -43.9746 H         1 UNK         0.0600 
    198 H198       -1.4145  -25.2973  -45.7221 H         1 UNK         0.0600 
    199 H199       -1.8132  -26.7914  -44.8886 H         1 UNK         0.0600 
    200 H200       -5.7664  -24.7299  -44.8351 H         1 UNK         0.3000 
    201 H201       -7.4990  -25.0196  -46.2051 H         1 UNK         0.0600 
    202 H202       -7.8887  -27.3284  -47.0232 H         1 UNK         0.0600 
    203 H203       -7.2114  -27.3650  -45.4040 H         1 UNK         0.0600 
    204 H204       -6.1919  -27.7305  -46.7948 H         1 UNK         0.0600 
    205 H205       -5.8040  -23.3150  -47.3761 H         1 UNK         0.3000 
    206 H206       -5.2106  -22.2870  -49.2406 H         1 UNK         0.0600 
    207 H207       -7.2645  -24.0409  -50.6728 H         1 UNK         0.0600 
    208 H208       -6.5674  -22.5466  -51.2809 H         1 UNK         0.0600 
    209 H209       -7.5978  -22.5143  -49.8599 H         1 UNK         0.0600 
    210 H210       -3.4004  -24.1136  -48.4223 H         1 UNK         0.3000 
    211 H211       -1.6742  -25.3818  -48.8702 H         1 UNK         0.0600 
    212 H212       -1.1104  -23.4596  -50.4020 H         1 UNK         0.0600 
    213 H213       -0.4227  -24.9820  -50.9491 H         1 UNK         0.0600 
    214 H214       -1.8489  -24.3300  -51.7418 H         1 UNK         0.0600 
    215 H215       -3.9768  -26.7539  -48.7528 H         1 UNK         0.3000 
    216 H216       -5.1500  -28.5708  -49.2129 H         1 UNK         0.0600 
    217 H217       -4.0106  -30.5926  -50.0526 H         1 UNK         0.0600 
    218 H218       -2.6567  -29.6398  -50.6420 H         1 UNK         0.0600 
    219 H219       -2.9723  -29.7535  -48.9111 H         1 UNK         0.0600 
    220 H220       -5.9432  -26.5977  -50.6299 H         1 UNK         0.3000 
    221 H221       -7.0748  -25.8116  -52.3456 H         1 UNK         0.0600 
    222 H222       -8.5020  -27.3760  -53.6107 H         1 UNK         0.0600 
    223 H223       -7.4944  -28.7386  -53.1408 H         1 UNK         0.0600 
    224 H224       -8.4270  -27.8643  -51.9263 H         1 UNK         0.0600 
    225 H225       -4.4235  -25.5625  -52.7805 H         1 UNK         0.3000 
    226 H226       -4.1288  -25.8275  -55.7587 H         1 UNK         0.0600 
    227 H227       -2.5357  -27.3087  -54.4841 H         1 UNK         0.0600 
    228 H228       -1.7121  -26.0539  -55.4004 H         1 UNK         0.0600 
    229 H229       -1.9007  -25.8846  -53.6615 H         1 UNK         0.0600 
    230 H230       -4.2548  -23.7275  -53.0290 H         1 UNK         0.3000 
    231 H231       -4.2316  -21.5767  -52.6982 H         1 UNK         0.0600 
    232 H232       -4.3306  -19.8963  -54.4721 H         1 UNK         0.0600 
    233 H233       -5.3169  -21.2601  -54.9647 H         1 UNK         0.0600 
    234 H234       -3.7180  -21.0232  -55.6692 H         1 UNK         0.0600 
    235 H235       -2.7310  -19.5001  -52.9550 H         1 UNK         0.3000 
    236 H236        0.1037  -20.1475  -53.1852 H         1 UNK         0.0600 
    237 H237       -0.4784  -20.8302  -50.8188 H         1 UNK         0.0600 
    238 H238        0.5795  -19.4342  -50.8490 H         1 UNK         0.0600 
    239 H239       -1.1365  -19.2256  -50.5214 H         1 UNK         0.0600 
    240 H240        1.3583  -18.2484  -53.1635 H         1 UNK         0.3000 
    241 H241        1.9946  -16.4420  -54.0766 H         1 UNK         0.0600 
    242 H242       -1.2406  -15.8508  -56.3496 H         1 UNK         0.3800 
    243 H243       -1.3285  -16.8790  -54.9284 H         1 UNK         0.3800 
    244 H244        1.6039  -14.3319  -52.9876 H         1 UNK         0.0800 
    245 H245        1.7226  -15.5992  -51.8199 H         1 UNK         0.0800 
    246 H246       -0.1213  -16.4790  -50.3892 H         1 UNK         0.0800 
    247 H247        0.3018  -14.9479  -49.6459 H         1 UNK         0.0800 
@<TRIPOS>BOND
     1    1    2 1    
     2    1  127 1    
     3    1  128 1    
     4    1  129 1    
     5    2    3 2    
     6    2    4 am   BACKBONE|DICT|INTERRES
     7    4    5 1    
     8    4  130 1    
     9    5    6 1    
    10    5   65 1    
    11    5  131 1    
    12    6    7 1    
    13    6  132 1    
    14    6  133 1    
    15    7    8 1    
    16    8    9 1    
    17    8  134 1    
    18    8  135 1    
    19    9   10 ar   
    20    9   14 ar   
    21   10   11 ar   
    22   10  136 1    
    23   11   12 ar   
    24   11  126 1    
    25   12   13 ar   
    26   12  137 1    
    27   13   14 ar   
    28   13   15 1    
    29   14  138 1    
    30   15   16 1    
    31   15  139 1    
    32   15  140 1    
    33   16   17 1    
    34   17   18 1    
    35   17  141 1    
    36   17  142 1    
    37   18   19 1    
    38   18   67 1    
    39   18  143 1    
    40   19   20 am   BACKBONE|DICT|INTERRES
    41   19  144 1    
    42   20   21 2    
    43   20   22 1    
    44   22   23 1    
    45   22   24 1    
    46   22  145 1    
    47   23  146 1    
    48   23  147 1    
    49   23  148 1    
    50   24   25 am   BACKBONE|DICT|INTERRES
    51   24  149 1    
    52   25   26 2    
    53   25   27 1    
    54   27   28 1    
    55   27   29 1    
    56   27  150 1    
    57   28  151 1    
    58   28  152 1    
    59   28  153 1    
    60   29   30 am   BACKBONE|DICT|INTERRES
    61   29  154 1    
    62   30   31 2    
    63   30   32 1    
    64   32   33 1    
    65   32   34 1    
    66   32  155 1    
    67   33  156 1    
    68   33  157 1    
    69   33  158 1    
    70   34   35 am   BACKBONE|DICT|INTERRES
    71   34  159 1    
    72   35   36 2    
    73   35   37 1    
    74   37   38 1    
    75   37   39 1    
    76   37  160 1    
    77   38  161 1    
    78   38  162 1    
    79   38  163 1    
    80   39   40 am   BACKBONE|DICT|INTERRES
    81   39  164 1    
    82   40   41 2    
    83   40   42 1    
    84   42   43 1    
    85   42   44 1    
    86   42  165 1    
    87   43  166 1    
    88   43  167 1    
    89   43  168 1    
    90   44   45 am   BACKBONE|DICT|INTERRES
    91   44  169 1    
    92   45   46 2    
    93   45   47 1    
    94   47   48 1    
    95   47   49 1    
    96   47  170 1    
    97   48  171 1    
    98   48  172 1    
    99   48  173 1    
   100   49   50 am   BACKBONE|DICT|INTERRES
   101   49  174 1    
   102   50   51 2    
   103   50   52 1    
   104   52   53 1    
   105   52   54 1    
   106   52  175 1    
   107   53  176 1    
   108   53  177 1    
   109   53  178 1    
   110   54   55 am   BACKBONE|DICT|INTERRES
   111   54  179 1    
   112   55   56 2    
   113   55   57 1    
   114   57   58 1    
   115   57   59 1    
   116   57  180 1    
   117   58  181 1    
   118   58  182 1    
   119   58  183 1    
   120   59   60 am   BACKBONE|DICT|INTERRES
   121   59  184 1    
   122   60   61 2    
   123   60   62 1    
   124   62   63 1    
   125   62   64 1    
   126   62  185 1    
   127   63  186 1    
   128   63  187 1    
   129   63  188 1    
   130   64   65 am   BACKBONE|DICT|INTERRES
   131   64  189 1    
   132   65   66 2    
   133   67   68 2    
   134   67   69 am   BACKBONE|DICT|INTERRES
   135   69   70 1    
   136   69  190 1    
   137   70   71 1    
   138   70   72 1    
   139   70  191 1    
   140   71  192 1    
   141   71  193 1    
   142   71  194 1    
   143   72   73 2    
   144   72   74 am   BACKBONE|DICT|INTERRES
   145   74   75 1    
   146   74  195 1    
   147   75   76 1    
   148   75   77 1    
   149   75  196 1    
   150   76  197 1    
   151   76  198 1    
   152   76  199 1    
   153   77   78 2    
   154   77   79 am   BACKBONE|DICT|INTERRES
   155   79   80 1    
   156   79  200 1    
   157   80   81 1    
   158   80   82 1    
   159   80  201 1    
   160   81  202 1    
   161   81  203 1    
   162   81  204 1    
   163   82   83 2    
   164   82   84 am   BACKBONE|DICT|INTERRES
   165   84   85 1    
   166   84  205 1    
   167   85   86 1    
   168   85   87 1    
   169   85  206 1    
   170   86  207 1    
   171   86  208 1    
   172   86  209 1    
   173   87   88 2    
   174   87   89 am   BACKBONE|DICT|INTERRES
   175   89   90 1    
   176   89  210 1    
   177   90   91 1    
   178   90   92 1    
   179   90  211 1    
   180   91  212 1    
   181   91  213 1    
   182   91  214 1    
   183   92   93 2    
   184   92   94 am   BACKBONE|DICT|INTERRES
   185   94   95 1    
   186   94  215 1    
   187   95   96 1    
   188   95   97 1    
   189   95  216 1    
   190   96  217 1    
   191   96  218 1    
   192   96  219 1    
   193   97   98 2    
   194   97   99 am   BACKBONE|DICT|INTERRES
   195   99  100 1    
   196   99  220 1    
   197  100  101 1    
   198  100  102 1    
   199  100  221 1    
   200  101  222 1    
   201  101  223 1    
   202  101  224 1    
   203  102  103 2    
   204  102  104 am   BACKBONE|DICT|INTERRES
   205  104  105 1    
   206  104  225 1    
   207  105  106 1    
   208  105  107 1    
   209  105  226 1    
   210  106  227 1    
   211  106  228 1    
   212  106  229 1    
   213  107  108 2    
   214  107  109 am   BACKBONE|DICT|INTERRES
   215  109  110 1    
   216  109  230 1    
   217  110  111 1    
   218  110  112 1    
   219  110  231 1    
   220  111  232 1    
   221  111  233 1    
   222  111  234 1    
   223  112  113 2    
   224  112  114 am   BACKBONE|DICT|INTERRES
   225  114  115 1    
   226  114  235 1    
   227  115  116 1    
   228  115  117 1    
   229  115  236 1    
   230  116  237 1    
   231  116  238 1    
   232  116  239 1    
   233  117  118 2    
   234  117  119 am   BACKBONE|DICT|INTERRES
   235  119  120 1    
   236  119  240 1    
   237  120  121 1    
   238  120  124 1    
   239  120  241 1    
   240  121  122 am   BACKBONE|DICT|INTERRES
   241  121  123 2    
   242  122  242 1    
   243  122  243 1    
   244  124  125 1    
   245  124  244 1    
   246  124  245 1    
   247  125  126 1    
   248  126  246 1    
   249  126  247 1    
@<TRIPOS>SUBSTRUCTURE
     1 UNK         1 GROUP             0       ****    0 ROOT    
