@<TRIPOS>MOLECULE
3R540
247   249    1
SMALL
USER_CHARGES


@<TRIPOS>ATOM
      1 CA         -3.3838  -11.0609  -45.2293 C.3       0 UNK        -0.1800 
      2 C          -2.9330  -12.4894  -45.4911 C.2       0 UNK         0.5000 
      3 O          -2.0283  -12.9785  -44.8103 O.2       0 UNK        -0.5000 
      4 N          -3.5678  -13.1715  -46.4545 N.am      1 UNK        -0.5000 
      5 CA         -3.2877  -14.5494  -46.8858 C.3       1 UNK         0.1400 
      6 C6         -3.8581  -14.8119  -48.3060 C.3       23 UNK        -0.0398 
      7 S7         -3.0149  -16.1856  -49.1618 S.3       23 UNK        -0.2404 
      8 C8         -1.6988  -15.2812  -50.0394 C.3       23 UNK        -0.0205 
      9 C9         -0.6565  -16.2141  -50.6415 C.ar      23 UNK        -0.0193 
     10 C10        -0.3212  -16.1305  -51.9965 C.ar      23 UNK        -0.1150 
     11 C11         0.6774  -16.9490  -52.5379 C.ar      23 UNK        -0.0193 
     12 C12         1.3306  -17.8687  -51.7093 C.ar      23 UNK        -0.1150 
     13 C13         0.9944  -17.9709  -50.3567 C.ar      23 UNK        -0.0193 
     14 C14         0.0106  -17.1330  -49.8290 C.ar      23 UNK        -0.1150 
     15 C15         1.7209  -18.9524  -49.4527 C.3       23 UNK        -0.0205 
     16 S16         0.9324  -20.5934  -49.4255 S.3       23 UNK        -0.2404 
     17 C17        -0.6103  -20.3041  -48.4912 C.3       23 UNK        -0.0398 
     18 CA         -0.9441  -21.4891  -47.5518 C.3       11 UNK         0.1400 
     19 N          -0.0752  -21.5504  -46.3710 N.am      11 UNK        -0.5000 
     20 C          -0.0110  -22.6000  -45.5394 C.2       10 UNK         0.5000 
     21 O          -0.6346  -23.6451  -45.7208 O.2       10 UNK        -0.5000 
     22 CA          0.8450  -22.4469  -44.2676 C.3       10 UNK         0.1400 
     23 CB          2.3268  -22.7261  -44.5587 C.3       10 UNK        -0.1800 
     24 N           0.6933  -21.1344  -43.6359 N.am      10 UNK        -0.5000 
     25 C          -0.4457  -20.6890  -43.0857 C.2       9 UNK         0.5000 
     26 O          -1.4720  -21.3631  -43.0138 O.2       9 UNK        -0.5000 
     27 CA         -0.4650  -19.2343  -42.5780 C.3       9 UNK         0.1400 
     28 CB          0.1479  -19.1270  -41.1744 C.3       9 UNK        -0.1800 
     29 N           0.2155  -18.3112  -43.4858 N.am      9 UNK        -0.5000 
     30 C          -0.1674  -18.0671  -44.7469 C.2       8 UNK         0.5000 
     31 O          -1.1822  -18.5355  -45.2615 O.2       8 UNK        -0.5000 
     32 CA          0.7852  -17.2099  -45.5963 C.3       8 UNK         0.1400 
     33 CB          0.5617  -15.7106  -45.3428 C.3       8 UNK        -0.1800 
     34 N           2.1891  -17.5593  -45.3659 N.am      8 UNK        -0.5000 
     35 C           2.7278  -18.7497  -45.6720 C.2       7 UNK         0.5000 
     36 O           2.0969  -19.6646  -46.1966 O.2       7 UNK        -0.5000 
     37 CA          4.1999  -18.9735  -45.2851 C.3       7 UNK         0.1400 
     38 CB          5.1351  -18.3154  -46.3104 C.3       7 UNK        -0.1800 
     39 N           4.5022  -18.4640  -43.9487 N.am      7 UNK        -0.5000 
     40 C           3.9749  -18.9454  -42.8130 C.2       6 UNK         0.5000 
     41 O           3.2461  -19.9352  -42.7659 O.2       6 UNK        -0.5000 
     42 CA          4.2616  -18.1461  -41.5258 C.3       6 UNK         0.1400 
     43 CB          5.5340  -18.6637  -40.8394 C.3       6 UNK        -0.1800 
     44 N           4.3920  -16.7063  -41.7749 N.am      6 UNK        -0.5000 
     45 C           3.4079  -15.9345  -42.2539 C.2       5 UNK         0.5000 
     46 O           2.2581  -16.3387  -42.4537 O.2       5 UNK        -0.5000 
     47 CA          3.7963  -14.5051  -42.6529 C.3       5 UNK         0.1400 
     48 CB          4.6748  -14.5204  -43.9212 C.3       5 UNK        -0.1800 
     49 N           2.5767  -13.7468  -42.9001 N.am      5 UNK        -0.5000 
     50 C           2.4789  -12.4184  -43.0107 C.2       4 UNK         0.5000 
     51 O           3.4388  -11.6515  -42.9195 O.2       4 UNK        -0.5000 
     52 CA          1.0722  -11.8405  -43.2649 C.3       4 UNK         0.1400 
     53 CB          0.8747  -11.5670  -44.7642 C.3       4 UNK        -0.1800 
     54 N          -0.0288  -12.6823  -42.7806 N.am      4 UNK        -0.5000 
     55 C          -0.2624  -12.9539  -41.4874 C.2       3 UNK         0.5000 
     56 O           0.4616  -12.5522  -40.5753 O.2       3 UNK        -0.5000 
     57 CA         -1.4979  -13.7968  -41.1241 C.3       3 UNK         0.1400 
     58 CB         -2.5608  -12.9246  -40.4338 C.3       3 UNK        -0.1800 
     59 N          -2.1211  -14.4728  -42.2673 N.am      3 UNK        -0.5000 
     60 C          -2.5173  -15.7563  -42.2470 C.2       2 UNK         0.5000 
     61 O          -2.2693  -16.5285  -41.3213 O.2       2 UNK        -0.5000 
     62 CA         -3.3634  -16.2758  -43.4237 C.3       2 UNK         0.1400 
     63 CB         -4.8487  -16.3013  -43.0038 C.3       2 UNK        -0.1800 
     64 N          -3.1574  -15.4724  -44.6274 N.am      2 UNK        -0.5000 
     65 C          -3.7310  -15.5950  -45.8293 C.2       1 UNK         0.5000 
     66 O          -4.5777  -16.4442  -46.1073 O.2       1 UNK        -0.5000 
     67 C          -2.4410  -21.5096  -47.1717 C.2       11 UNK         0.5000 
     68 O          -3.2210  -22.1855  -47.8444 O.2       11 UNK        -0.5000 
     69 N          -2.8169  -20.8246  -46.0824 N.am      12 UNK        -0.5000 
     70 CA         -4.1680  -20.8633  -45.5178 C.3       12 UNK         0.1400 
     71 CB         -4.3289  -19.7572  -44.4698 C.3       12 UNK        -0.1800 
     72 C          -4.5310  -22.2384  -44.9275 C.2       12 UNK         0.5000 
     73 O          -5.6535  -22.7019  -45.1284 O.2       12 UNK        -0.5000 
     74 N          -3.5708  -22.8931  -44.2575 N.am      13 UNK        -0.5000 
     75 CA         -3.6933  -24.2640  -43.7483 C.3       13 UNK         0.1400 
     76 CB         -2.4918  -24.5947  -42.8510 C.3       13 UNK        -0.1800 
     77 C          -3.8479  -25.3108  -44.8708 C.2       13 UNK         0.5000 
     78 O          -4.5268  -26.3182  -44.6731 O.2       13 UNK        -0.5000 
     79 N          -3.2783  -25.0189  -46.0481 N.am      14 UNK        -0.5000 
     80 CA         -3.4680  -25.7487  -47.3041 C.3       14 UNK         0.1400 
     81 CB         -2.2311  -25.5351  -48.1957 C.3       14 UNK        -0.1800 
     82 C          -4.7747  -25.3641  -48.0390 C.2       14 UNK         0.5000 
     83 O          -4.8969  -25.6314  -49.2349 O.2       14 UNK        -0.5000 
     84 N          -5.7214  -24.7249  -47.3339 N.am      15 UNK        -0.5000 
     85 CA         -7.0557  -24.3097  -47.7818 C.3       15 UNK         0.1400 
     86 CB         -7.9281  -25.5429  -48.0966 C.3       15 UNK        -0.1800 
     87 C          -7.0303  -23.2870  -48.9360 C.2       15 UNK         0.5000 
     88 O          -7.9701  -23.2378  -49.7308 O.2       15 UNK        -0.5000 
     89 N          -5.9421  -22.5063  -49.0171 N.am      16 UNK        -0.5000 
     90 CA         -5.6156  -21.5321  -50.0615 C.3       16 UNK         0.1400 
     91 CB         -6.6619  -20.4012  -50.1318 C.3       16 UNK        -0.1800 
     92 C          -5.3307  -22.1610  -51.4415 C.2       16 UNK         0.5000 
     93 O          -5.1855  -21.4204  -52.4136 O.2       16 UNK        -0.5000 
     94 N          -5.1871  -23.4936  -51.5228 N.am      17 UNK        -0.5000 
     95 CA         -4.8297  -24.2005  -52.7565 C.3       17 UNK         0.1400 
     96 CB         -5.0024  -25.7132  -52.5602 C.3       17 UNK        -0.1800 
     97 C          -3.3977  -23.8682  -53.2100 C.2       17 UNK         0.5000 
     98 O          -3.1549  -23.6949  -54.4034 O.2       17 UNK        -0.5000 
     99 N          -2.4908  -23.7191  -52.2355 N.am      18 UNK        -0.5000 
    100 CA        -1.1123  -23.2797  -52.4437 C.3       18 UNK         0.1400 
    101 CB        -0.3098  -23.5502  -51.1648 C.3       18 UNK        -0.1800 
    102 C         -1.0083  -21.7982  -52.8606 C.2       18 UNK         0.5000 
    103 O         -0.0711  -21.4441  -53.5731 O.2       18 UNK        -0.5000 
    104 N         -1.9800  -20.9733  -52.4415 N.am      19 UNK        -0.5000 
    105 CA        -2.1035  -19.5748  -52.8551 C.3       19 UNK         0.1400 
    106 CB        -2.9455  -18.7973  -51.8330 C.3       19 UNK        -0.1800 
    107 C         -2.6986  -19.4511  -54.2691 C.2       19 UNK         0.5000 
    108 O         -2.2469  -18.6144  -55.0488 O.2       19 UNK        -0.5000 
    109 N         -3.6785  -20.3060  -54.5973 N.am      20 UNK        -0.5000 
    110 CA        -4.2672  -20.4197  -55.9342 C.3       20 UNK         0.1400 
    111 CB        -5.4919  -21.3448  -55.8787 C.3       20 UNK        -0.1800 
    112 C         -3.2525  -20.9126  -56.9842 C.2       20 UNK         0.5000 
    113 O         -3.2613  -20.4296  -58.1181 O.2       20 UNK        -0.5000 
    114 N         -2.3565  -21.8201  -56.5688 N.am      21 UNK        -0.5000 
    115 CA        -1.2475  -22.3554  -57.3631 C.3       21 UNK         0.1400 
    116 CB        -0.5736  -23.4968  -56.5858 C.3       21 UNK        -0.1800 
    117 C         -0.2041  -21.3060  -57.8044 C.2       21 UNK         0.5000 
    118 O          0.5747  -21.5917  -58.7154 O.2       21 UNK        -0.5000 
    119 N         -0.2124  -20.1138  -57.1903 N.am      22 UNK        -0.5000 
    120 CA         0.5699  -18.9462  -57.6295 C.3       22 UNK         0.1400 
    121 C          0.1089  -18.3515  -58.9953 C.2       22 UNK         0.5000 
    122 N         -1.0880  -18.6538  -59.4892 N.am      22 UNK        -0.7600 
    123 O          0.8545  -17.6016  -59.6196 O.2       22 UNK        -0.5000 
    124 C124        0.6103  -17.8219  -56.5625 C.3       23 UNK        -0.0398 
    125 S125        1.1431  -18.3756  -54.9081 S.3       23 UNK        -0.2404 
    126 C126        1.0720  -16.7936  -54.0032 C.3       23 UNK        -0.0205 
    127 H127       -4.2133  -10.7721  -45.8749 H         1 UNK         0.0600 
    128 H128       -2.5585  -10.3710  -45.4044 H         1 UNK         0.0600 
    129 H129       -3.7043  -10.9543  -44.1930 H         1 UNK         0.0600 
    130 H130       -4.3282  -12.7177  -46.9406 H         1 UNK         0.3000 
    131 H131       -2.2018  -14.6286  -46.9610 H         1 UNK         0.0600 
    132 H132       -3.7514  -13.9204  -48.9257 H         1 UNK         0.0800 
    133 H133       -4.9299  -15.0147  -48.2727 H         1 UNK         0.0800 
    134 H134       -1.1969  -14.6049  -49.3461 H         1 UNK         0.0800 
    135 H135       -2.1533  -14.6583  -50.8113 H         1 UNK         0.0800 
    136 H136       -0.8239  -15.4102  -52.6264 H         1 UNK         0.1150 
    137 H137        2.1052  -18.5029  -52.1171 H         1 UNK         0.1150 
    138 H138       -0.2409  -17.1902  -48.7810 H         1 UNK         0.1150 
    139 H139        2.7517  -19.0680  -49.7901 H         1 UNK         0.0800 
    140 H140        1.7805  -18.5480  -48.4450 H         1 UNK         0.0800 
    141 H141       -1.4005  -20.1547  -49.2282 H         1 UNK         0.0800 
    142 H142       -0.5408  -19.3783  -47.9198 H         1 UNK         0.0800 
    143 H143       -0.7718  -22.4113  -48.1087 H         1 UNK         0.0600 
    144 H144        0.5326  -20.7530  -46.2022 H         1 UNK         0.3000 
    145 H145        0.5034  -23.1956  -43.5503 H         1 UNK         0.0600 
    146 H146        2.9255  -22.6654  -43.6497 H         1 UNK         0.0600 
    147 H147        2.4590  -23.7277  -44.9695 H         1 UNK         0.0600 
    148 H148        2.7407  -22.0220  -45.2792 H         1 UNK         0.0600 
    149 H149        1.5168  -20.5424  -43.6089 H         1 UNK         0.3000 
    150 H150       -1.5092  -18.9243  -42.5127 H         1 UNK         0.0600 
    151 H151       -0.3964  -19.7515  -40.4653 H         1 UNK         0.0600 
    152 H152        0.1065  -18.1022  -40.8044 H         1 UNK         0.0600 
    153 H153        1.1891  -19.4465  -41.1597 H         1 UNK         0.0600 
    154 H154        1.0465  -17.8480  -43.1336 H         1 UNK         0.3000 
    155 H155        0.5639  -17.4095  -46.6448 H         1 UNK         0.0600 
    156 H156        0.6511  -15.4547  -44.2884 H         1 UNK         0.0600 
    157 H157       -0.4365  -15.4134  -45.6591 H         1 UNK         0.0600 
    158 H158        1.2721  -15.1010  -45.9012 H         1 UNK         0.0600 
    159 H159        2.7537  -16.8782  -44.8830 H         1 UNK         0.3000 
    160 H160        4.3883  -20.0492  -45.2900 H         1 UNK         0.0600 
    161 H161        5.0161  -17.2314  -46.3312 H         1 UNK         0.0600 
    162 H162        4.9333  -18.6872  -47.3160 H         1 UNK         0.0600 
    163 H163        6.1796  -18.5342  -46.0879 H         1 UNK         0.0600 
    164 H164        5.1060  -17.6579  -43.8933 H         1 UNK         0.3000 
    165 H165        3.4196  -18.2967  -40.8472 H         1 UNK         0.0600 
    166 H166        5.7056  -18.1542  -39.8911 H         1 UNK         0.0600 
    167 H167        5.4542  -19.7301  -40.6241 H         1 UNK         0.0600 
    168 H168        6.4169  -18.5199  -41.4636 H         1 UNK         0.0600 
    169 H169        5.3078  -16.3053  -41.6313 H         1 UNK         0.3000 
    170 H170        4.3410  -14.0493  -41.8236 H         1 UNK         0.0600 
    171 H171        5.5848  -15.1017  -43.7697 H         1 UNK         0.0600 
    172 H172        4.1450  -14.9512  -44.7716 H         1 UNK         0.0600 
    173 H173        4.9875  -13.5149  -44.2022 H         1 UNK         0.0600 
    174 H174        1.7378  -14.3119  -42.9282 H         1 UNK         0.3000 
    175 H175        1.0172  -10.8857  -42.7380 H         1 UNK         0.0600 
    176 H176        0.8413  -12.4924  -45.3405 H         1 UNK         0.0600 
    177 H177       -0.0526  -11.0243  -44.9458 H         1 UNK         0.0600 
    178 H178        1.6867  -10.9585  -45.1643 H         1 UNK         0.0600 
    179 H179       -0.6895  -12.9885  -43.4871 H         1 UNK         0.3000 
    180 H180       -1.1432  -14.5314  -40.3983 H         1 UNK         0.0600 
    181 H181       -3.3980  -13.5285  -40.0832 H         1 UNK         0.0600 
    182 H182       -2.9553  -12.1645  -41.1093 H         1 UNK         0.0600 
    183 H183       -2.1472  -12.4109  -39.5649 H         1 UNK         0.0600 
    184 H184       -2.3651  -13.8808  -43.0511 H         1 UNK         0.3000 
    185 H185       -3.0289  -17.2909  -43.6336 H         1 UNK         0.0600 
    186 H186       -5.2504  -15.2932  -42.8960 H         1 UNK         0.0600 
    187 H187       -5.4673  -16.8345  -43.7244 H         1 UNK         0.0600 
    188 H188       -4.9786  -16.8102  -42.0477 H         1 UNK         0.0600 
    189 H189       -2.4979  -14.7056  -44.5386 H         1 UNK         0.3000 
    190 H190       -2.1382  -20.2343  -45.6106 H         1 UNK         0.3000 
    191 H191       -4.8731  -20.6587  -46.3266 H         1 UNK         0.0600 
    192 H192       -5.3290  -19.7679  -44.0349 H         1 UNK         0.0600 
    193 H193       -4.1861  -18.7811  -44.9289 H         1 UNK         0.0600 
    194 H194       -3.6121  -19.8575  -43.6553 H         1 UNK         0.0600 
    195 H195       -2.6966  -22.4122  -44.0635 H         1 UNK         0.3000 
    196 H196       -4.5947  -24.3077  -43.1335 H         1 UNK         0.0600 
    197 H197       -1.5556  -24.5806  -43.4077 H         1 UNK         0.0600 
    198 H198       -2.4043  -23.8833  -42.0296 H         1 UNK         0.0600 
    199 H199       -2.5957  -25.5876  -42.4119 H         1 UNK         0.0600 
    200 H200       -2.6863  -24.1979  -46.0954 H         1 UNK         0.3000 
    201 H201       -3.5350  -26.8148  -47.0794 H         1 UNK         0.0600 
    202 H202       -2.1389  -24.4986  -48.5176 H         1 UNK         0.0600 
    203 H203       -2.2802  -26.1527  -49.0933 H         1 UNK         0.0600 
    204 H204       -1.3146  -25.8031  -47.6698 H         1 UNK         0.0600 
    205 H205       -5.5053  -24.4738  -46.3773 H         1 UNK         0.3000 
    206 H206       -7.5109  -23.7933  -46.9357 H         1 UNK         0.0600 
    207 H207       -7.9328  -26.2454  -47.2631 H         1 UNK         0.0600 
    208 H208       -8.9636  -25.2547  -48.2807 H         1 UNK         0.0600 
    209 H209       -7.5748  -26.0738  -48.9812 H         1 UNK         0.0600 
    210 H210       -5.2038  -22.6484  -48.3354 H         1 UNK         0.3000 
    211 H211       -4.6758  -21.0731  -49.7539 H         1 UNK         0.0600 
    212 H212       -6.3226  -19.5952  -50.7834 H         1 UNK         0.0600 
    213 H213       -6.8392  -19.9667  -49.1480 H         1 UNK         0.0600 
    214 H214       -7.6169  -20.7515  -50.5235 H         1 UNK         0.0600 
    215 H215       -5.2959  -24.0584  -50.6880 H         1 UNK         0.3000 
    216 H216       -5.5158  -23.8787  -53.5428 H         1 UNK         0.0600 
    217 H217       -4.3091  -26.1065  -51.8160 H         1 UNK         0.0600 
    218 H218       -4.8195  -26.2489  -53.4924 H         1 UNK         0.0600 
    219 H219       -6.0146  -25.9568  -52.2367 H         1 UNK         0.0600 
    220 H220       -2.7797  -23.8876  -51.2832 H         1 UNK         0.3000 
    221 H221       -0.6811  -23.8790  -53.2484 H         1 UNK         0.0600 
    222 H222       -0.2953  -24.6131  -50.9231 H         1 UNK         0.0600 
    223 H223       -0.7335  -23.0189  -50.3143 H         1 UNK         0.0600 
    224 H224        0.7260  -23.2263  -51.2749 H         1 UNK         0.0600 
    225 H225       -2.7374  -21.3554  -51.8977 H         1 UNK         0.3000 
    226 H226       -1.1074  -19.1301  -52.8728 H         1 UNK         0.0600 
    227 H227       -3.9602  -19.1846  -51.7537 H         1 UNK         0.0600 
    228 H228       -2.4927  -18.8298  -50.8430 H         1 UNK         0.0600 
    229 H229       -3.0199  -17.7464  -52.1151 H         1 UNK         0.0600 
    230 H230       -4.0671  -20.9061  -53.8757 H         1 UNK         0.3000 
    231 H231       -4.6040  -19.4263  -56.2374 H         1 UNK         0.0600 
    232 H232       -5.2196  -22.3580  -55.5836 H         1 UNK         0.0600 
    233 H233       -5.9781  -21.4063  -56.8531 H         1 UNK         0.0600 
    234 H234       -6.2318  -20.9772  -55.1674 H         1 UNK         0.0600 
    235 H235       -2.4703  -22.2105  -55.6396 H         1 UNK         0.3000 
    236 H236       -1.6769  -22.7767  -58.2741 H         1 UNK         0.0600 
    237 H237       -1.2859  -24.2851  -56.3421 H         1 UNK         0.0600 
    238 H238        0.2241  -23.9532  -57.1730 H         1 UNK         0.0600 
    239 H239       -0.1317  -23.1417  -55.6554 H         1 UNK         0.0600 
    240 H240       -0.8659  -19.9501  -56.4362 H         1 UNK         0.3000 
    241 H241        1.5958  -19.2887  -57.7771 H         1 UNK         0.0600 
    242 H242       -1.3702  -18.2637  -60.3745 H         1 UNK         0.3800 
    243 H243       -1.7231  -19.2631  -58.9867 H         1 UNK         0.3800 
    244 H244       -0.3755  -17.3636  -56.4664 H         1 UNK         0.0800 
    245 H245        1.2865  -17.0265  -56.8811 H         1 UNK         0.0800 
    246 H246        0.3692  -16.1261  -54.5040 H         1 UNK         0.0800 
    247 H247        2.0477  -16.3095  -54.0593 H         1 UNK         0.0800 
@<TRIPOS>BOND
     1    1    2 1    
     2    1  127 1    
     3    1  128 1    
     4    1  129 1    
     5    2    3 2    
     6    2    4 am   BACKBONE|DICT|INTERRES
     7    4    5 1    
     8    4  130 1    
     9    5    6 1    
    10    5   65 1    
    11    5  131 1    
    12    6    7 1    
    13    6  132 1    
    14    6  133 1    
    15    7    8 1    
    16    8    9 1    
    17    8  134 1    
    18    8  135 1    
    19    9   10 ar   
    20    9   14 ar   
    21   10   11 ar   
    22   10  136 1    
    23   11   12 ar   
    24   11  126 1    
    25   12   13 ar   
    26   12  137 1    
    27   13   14 ar   
    28   13   15 1    
    29   14  138 1    
    30   15   16 1    
    31   15  139 1    
    32   15  140 1    
    33   16   17 1    
    34   17   18 1    
    35   17  141 1    
    36   17  142 1    
    37   18   19 1    
    38   18   67 1    
    39   18  143 1    
    40   19   20 am   BACKBONE|DICT|INTERRES
    41   19  144 1    
    42   20   21 2    
    43   20   22 1    
    44   22   23 1    
    45   22   24 1    
    46   22  145 1    
    47   23  146 1    
    48   23  147 1    
    49   23  148 1    
    50   24   25 am   BACKBONE|DICT|INTERRES
    51   24  149 1    
    52   25   26 2    
    53   25   27 1    
    54   27   28 1    
    55   27   29 1    
    56   27  150 1    
    57   28  151 1    
    58   28  152 1    
    59   28  153 1    
    60   29   30 am   BACKBONE|DICT|INTERRES
    61   29  154 1    
    62   30   31 2    
    63   30   32 1    
    64   32   33 1    
    65   32   34 1    
    66   32  155 1    
    67   33  156 1    
    68   33  157 1    
    69   33  158 1    
    70   34   35 am   BACKBONE|DICT|INTERRES
    71   34  159 1    
    72   35   36 2    
    73   35   37 1    
    74   37   38 1    
    75   37   39 1    
    76   37  160 1    
    77   38  161 1    
    78   38  162 1    
    79   38  163 1    
    80   39   40 am   BACKBONE|DICT|INTERRES
    81   39  164 1    
    82   40   41 2    
    83   40   42 1    
    84   42   43 1    
    85   42   44 1    
    86   42  165 1    
    87   43  166 1    
    88   43  167 1    
    89   43  168 1    
    90   44   45 am   BACKBONE|DICT|INTERRES
    91   44  169 1    
    92   45   46 2    
    93   45   47 1    
    94   47   48 1    
    95   47   49 1    
    96   47  170 1    
    97   48  171 1    
    98   48  172 1    
    99   48  173 1    
   100   49   50 am   BACKBONE|DICT|INTERRES
   101   49  174 1    
   102   50   51 2    
   103   50   52 1    
   104   52   53 1    
   105   52   54 1    
   106   52  175 1    
   107   53  176 1    
   108   53  177 1    
   109   53  178 1    
   110   54   55 am   BACKBONE|DICT|INTERRES
   111   54  179 1    
   112   55   56 2    
   113   55   57 1    
   114   57   58 1    
   115   57   59 1    
   116   57  180 1    
   117   58  181 1    
   118   58  182 1    
   119   58  183 1    
   120   59   60 am   BACKBONE|DICT|INTERRES
   121   59  184 1    
   122   60   61 2    
   123   60   62 1    
   124   62   63 1    
   125   62   64 1    
   126   62  185 1    
   127   63  186 1    
   128   63  187 1    
   129   63  188 1    
   130   64   65 am   BACKBONE|DICT|INTERRES
   131   64  189 1    
   132   65   66 2    
   133   67   68 2    
   134   67   69 am   BACKBONE|DICT|INTERRES
   135   69   70 1    
   136   69  190 1    
   137   70   71 1    
   138   70   72 1    
   139   70  191 1    
   140   71  192 1    
   141   71  193 1    
   142   71  194 1    
   143   72   73 2    
   144   72   74 am   BACKBONE|DICT|INTERRES
   145   74   75 1    
   146   74  195 1    
   147   75   76 1    
   148   75   77 1    
   149   75  196 1    
   150   76  197 1    
   151   76  198 1    
   152   76  199 1    
   153   77   78 2    
   154   77   79 am   BACKBONE|DICT|INTERRES
   155   79   80 1    
   156   79  200 1    
   157   80   81 1    
   158   80   82 1    
   159   80  201 1    
   160   81  202 1    
   161   81  203 1    
   162   81  204 1    
   163   82   83 2    
   164   82   84 am   BACKBONE|DICT|INTERRES
   165   84   85 1    
   166   84  205 1    
   167   85   86 1    
   168   85   87 1    
   169   85  206 1    
   170   86  207 1    
   171   86  208 1    
   172   86  209 1    
   173   87   88 2    
   174   87   89 am   BACKBONE|DICT|INTERRES
   175   89   90 1    
   176   89  210 1    
   177   90   91 1    
   178   90   92 1    
   179   90  211 1    
   180   91  212 1    
   181   91  213 1    
   182   91  214 1    
   183   92   93 2    
   184   92   94 am   BACKBONE|DICT|INTERRES
   185   94   95 1    
   186   94  215 1    
   187   95   96 1    
   188   95   97 1    
   189   95  216 1    
   190   96  217 1    
   191   96  218 1    
   192   96  219 1    
   193   97   98 2    
   194   97   99 am   BACKBONE|DICT|INTERRES
   195   99  100 1    
   196   99  220 1    
   197  100  101 1    
   198  100  102 1    
   199  100  221 1    
   200  101  222 1    
   201  101  223 1    
   202  101  224 1    
   203  102  103 2    
   204  102  104 am   BACKBONE|DICT|INTERRES
   205  104  105 1    
   206  104  225 1    
   207  105  106 1    
   208  105  107 1    
   209  105  226 1    
   210  106  227 1    
   211  106  228 1    
   212  106  229 1    
   213  107  108 2    
   214  107  109 am   BACKBONE|DICT|INTERRES
   215  109  110 1    
   216  109  230 1    
   217  110  111 1    
   218  110  112 1    
   219  110  231 1    
   220  111  232 1    
   221  111  233 1    
   222  111  234 1    
   223  112  113 2    
   224  112  114 am   BACKBONE|DICT|INTERRES
   225  114  115 1    
   226  114  235 1    
   227  115  116 1    
   228  115  117 1    
   229  115  236 1    
   230  116  237 1    
   231  116  238 1    
   232  116  239 1    
   233  117  118 2    
   234  117  119 am   BACKBONE|DICT|INTERRES
   235  119  120 1    
   236  119  240 1    
   237  120  121 1    
   238  120  124 1    
   239  120  241 1    
   240  121  122 am   BACKBONE|DICT|INTERRES
   241  121  123 2    
   242  122  242 1    
   243  122  243 1    
   244  124  125 1    
   245  124  244 1    
   246  124  245 1    
   247  125  126 1    
   248  126  246 1    
   249  126  247 1    
@<TRIPOS>SUBSTRUCTURE
     1 UNK         1 GROUP             0       ****    0 ROOT    
