@<TRIPOS>MOLECULE
3R540
247   249    1
SMALL
USER_CHARGES


@<TRIPOS>ATOM
      1 CA          2.2343  -11.7916  -42.4314 C.3       0 UNK        -0.1800 
      2 C           2.5143  -11.8335  -43.9271 C.2       0 UNK         0.5000 
      3 O           3.1221  -10.9081  -44.4658 O.2       0 UNK        -0.5000 
      4 N           2.0769  -12.9042  -44.5957 N.am      1 UNK        -0.5000 
      5 CA          2.3335  -13.1844  -46.0049 C.3       1 UNK         0.1400 
      6 C6          1.2480  -14.1008  -46.6170 C.3       23 UNK        -0.0398 
      7 S7         -0.3490  -13.2313  -46.7932 S.3       23 UNK        -0.2404 
      8 C8         -0.6019  -13.2496  -48.5994 C.3       23 UNK        -0.0205 
      9 C9         -1.2036  -14.5687  -49.0598 C.ar      23 UNK        -0.0193 
     10 C10        -2.5883  -14.7051  -49.1889 C.ar      23 UNK        -0.1150 
     11 C11        -3.1505  -15.9298  -49.5614 C.ar      23 UNK        -0.0193 
     12 C12        -2.3175  -17.0302  -49.7864 C.ar      23 UNK        -0.1150 
     13 C13        -0.9296  -16.9028  -49.6707 C.ar      23 UNK        -0.0193 
     14 C14        -0.3806  -15.6616  -49.3384 C.ar      23 UNK        -0.1150 
     15 C15        -0.0248  -18.1123  -49.8722 C.3       23 UNK        -0.0205 
     16 S16         1.1636  -18.3507  -48.5026 S.3       23 UNK        -0.2404 
     17 C17         0.0709  -18.4133  -47.0379 C.3       23 UNK        -0.0398 
     18 CA         -0.2029  -19.8468  -46.5304 C.3       11 UNK         0.1400 
     19 N          -0.8229  -19.8309  -45.2056 N.am      11 UNK        -0.5000 
     20 C          -1.0807  -20.9098  -44.4549 C.2       10 UNK         0.5000 
     21 O          -0.7542  -22.0546  -44.7621 O.2       10 UNK        -0.5000 
     22 CA         -1.9019  -20.6742  -43.1767 C.3       10 UNK         0.1400 
     23 CB         -1.0132  -20.1703  -42.0292 C.3       10 UNK        -0.1800 
     24 N          -2.9994  -19.7339  -43.4074 N.am      10 UNK        -0.5000 
     25 C          -4.0743  -20.0003  -44.1636 C.2       9 UNK         0.5000 
     26 O          -4.2729  -21.0854  -44.7095 O.2       9 UNK        -0.5000 
     27 CA         -5.0775  -18.8507  -44.3717 C.3       9 UNK         0.1400 
     28 CB         -6.0685  -18.7795  -43.2006 C.3       9 UNK        -0.1800 
     29 N          -4.4246  -17.5507  -44.5334 N.am      9 UNK        -0.5000 
     30 C          -3.6670  -17.2104  -45.5858 C.2       8 UNK         0.5000 
     31 O          -3.4544  -17.9535  -46.5425 O.2       8 UNK        -0.5000 
     32 CA         -2.9877  -15.8286  -45.5254 C.3       8 UNK         0.1400 
     33 CB         -3.9695  -14.7267  -45.9499 C.3       8 UNK        -0.1800 
     34 N          -2.4510  -15.4991  -44.2013 N.am      8 UNK        -0.5000 
     35 C          -1.5539  -16.2325  -43.5312 C.2       7 UNK         0.5000 
     36 O          -1.0906  -17.2945  -43.9522 O.2       7 UNK        -0.5000 
     37 CA         -1.1659  -15.7212  -42.1292 C.3       7 UNK         0.1400 
     38 CB         -2.2390  -16.1276  -41.1064 C.3       7 UNK        -0.1800 
     39 N           0.1271  -16.2354  -41.6728 N.am      7 UNK        -0.5000 
     40 C           1.2961  -15.9980  -42.2780 C.2       6 UNK         0.5000 
     41 O           1.4172  -15.2490  -43.2503 O.2       6 UNK        -0.5000 
     42 CA          2.5289  -16.7123  -41.7023 C.3       6 UNK         0.1400 
     43 CB          2.3574  -18.2444  -41.7172 C.3       6 UNK        -0.1800 
     44 N           3.6923  -16.3514  -42.5027 N.am      6 UNK        -0.5000 
     45 C           4.9688  -16.3600  -42.1041 C.2       5 UNK         0.5000 
     46 O           5.3282  -16.6148  -40.9531 O.2       5 UNK        -0.5000 
     47 CA          6.0045  -16.0657  -43.2101 C.3       5 UNK         0.1400 
     48 CB          7.4637  -16.3338  -42.7873 C.3       5 UNK        -0.1800 
     49 N           5.6595  -16.7724  -44.4493 N.am      5 UNK        -0.5000 
     50 C           5.5839  -18.1006  -44.6327 C.2       4 UNK         0.5000 
     51 O           5.9860  -18.9324  -43.8187 O.2       4 UNK        -0.5000 
     52 CA          4.9123  -18.5962  -45.9252 C.3       4 UNK         0.1400 
     53 CB          3.4699  -19.0355  -45.6282 C.3       4 UNK        -0.1800 
     54 N           4.8914  -17.5735  -46.9749 N.am      4 UNK        -0.5000 
     55 C           5.4845  -17.6956  -48.1710 C.2       3 UNK         0.5000 
     56 O           6.0690  -18.7122  -48.5482 O.2       3 UNK        -0.5000 
     57 CA          5.4414  -16.4678  -49.1056 C.3       3 UNK         0.1400 
     58 CB          4.2177  -16.5351  -50.0323 C.3       3 UNK        -0.1800 
     59 N           5.4229  -15.1903  -48.3915 N.am      3 UNK        -0.5000 
     60 C           6.3954  -14.7342  -47.5897 C.2       2 UNK         0.5000 
     61 O           7.4777  -15.3013  -47.4393 O.2       2 UNK        -0.5000 
     62 CA          6.1054  -13.4429  -46.7964 C.3       2 UNK         0.1400 
     63 CB          6.8655  -12.2562  -47.4085 C.3       2 UNK        -0.1800 
     64 N           4.6862  -13.0832  -46.6794 N.am      2 UNK        -0.5000 
     65 C           3.7268  -13.8259  -46.1108 C.2       1 UNK         0.5000 
     66 O           3.9073  -14.9687  -45.6822 O.2       1 UNK        -0.5000 
     67 C          -1.0391  -20.6641  -47.5362 C.2       11 UNK         0.5000 
     68 O          -0.4910  -21.5354  -48.2092 O.2       11 UNK        -0.5000 
     69 N          -2.3529  -20.4037  -47.5905 N.am      12 UNK        -0.5000 
     70 CA         -3.3060  -21.1172  -48.4408 C.3       12 UNK         0.1400 
     71 CB         -4.6792  -20.4417  -48.3323 C.3       12 UNK        -0.1800 
     72 C          -3.3994  -22.6229  -48.1262 C.2       12 UNK         0.5000 
     73 O          -3.4999  -23.4310  -49.0508 O.2       12 UNK        -0.5000 
     74 N          -3.3328  -22.9743  -46.8346 N.am      13 UNK        -0.5000 
     75 CA         -3.2691  -24.3543  -46.3570 C.3       13 UNK         0.1400 
     76 CB         -3.5156  -24.3909  -44.8413 C.3       13 UNK        -0.1800 
     77 C          -1.9379  -25.0392  -46.7177 C.2       13 UNK         0.5000 
     78 O          -1.9566  -26.1740  -47.1939 O.2       13 UNK        -0.5000 
     79 N          -0.8143  -24.3358  -46.5133 N.am      14 UNK        -0.5000 
     80 CA          0.5393  -24.8043  -46.8254 C.3       14 UNK         0.1400 
     81 CB          1.5706  -23.8266  -46.2410 C.3       14 UNK        -0.1800 
     82 C           0.7794  -25.0078  -48.3328 C.2       14 UNK         0.5000 
     83 O           1.4384  -25.9743  -48.7180 O.2       14 UNK        -0.5000 
     84 N           0.2180  -24.1128  -49.1567 N.am      15 UNK        -0.5000 
     85 CA          0.2240  -24.1920  -50.6191 C.3       15 UNK         0.1400 
     86 CB         -0.2690  -22.8525  -51.1888 C.3       15 UNK        -0.1800 
     87 C          -0.6325  -25.3485  -51.1731 C.2       15 UNK         0.5000 
     88 O          -0.3813  -25.7925  -52.2943 O.2       15 UNK        -0.5000 
     89 N          -1.6106  -25.7995  -50.3727 N.am      16 UNK        -0.5000 
     90 CA         -2.6501  -26.7952  -50.6456 C.3       16 UNK         0.1400 
     91 CB         -2.0509  -28.1414  -51.0982 C.3       16 UNK        -0.1800 
     92 C          -3.7170  -26.2848  -51.6319 C.2       16 UNK         0.5000 
     93 O          -3.4729  -25.3538  -52.4025 O.2       16 UNK        -0.5000 
     94 N          -4.9117  -26.8919  -51.5601 N.am      17 UNK        -0.5000 
     95 CA         -6.1019  -26.5933  -52.3728 C.3       17 UNK         0.1400 
     96 CB         -5.8848  -27.0629  -53.8267 C.3       17 UNK        -0.1800 
     97 C          -6.5499  -25.1159  -52.2912 C.2       17 UNK         0.5000 
     98 O          -7.0319  -24.5604  -53.2796 O.2       17 UNK        -0.5000 
     99 N          -6.3288  -24.4910  -51.1236 N.am      18 UNK        -0.5000 
    100 CA        -6.5324  -23.0673  -50.8297 C.3       18 UNK         0.1400 
    101 CB        -8.0375  -22.7274  -50.8377 C.3       18 UNK        -0.1800 
    102 C         -5.7034  -22.1361  -51.7465 C.2       18 UNK         0.5000 
    103 O         -6.1684  -21.0534  -52.1101 O.2       18 UNK        -0.5000 
    104 N         -4.5164  -22.6053  -52.1639 N.am      19 UNK        -0.5000 
    105 CA        -3.6229  -22.0135  -53.1696 C.3       19 UNK         0.1400 
    106 CB        -3.0549  -20.6653  -52.6741 C.3       19 UNK        -0.1800 
    107 C         -4.2628  -21.8908  -54.5729 C.2       19 UNK         0.5000 
    108 O         -3.7486  -21.1466  -55.4090 O.2       19 UNK        -0.5000 
    109 N         -5.3879  -22.5921  -54.7945 N.am      20 UNK        -0.5000 
    110 CA        -6.3161  -22.4678  -55.9219 C.3       20 UNK         0.1400 
    111 CB        -5.6654  -22.9763  -57.2250 C.3       20 UNK        -0.1800 
    112 C         -6.9155  -21.0481  -56.0567 C.2       20 UNK         0.5000 
    113 O         -7.2665  -20.6379  -57.1651 O.2       20 UNK        -0.5000 
    114 N         -7.0087  -20.3132  -54.9386 N.am      21 UNK        -0.5000 
    115 CA        -7.3862  -18.9059  -54.8992 C.3       21 UNK         0.1400 
    116 CB        -6.1810  -18.0328  -55.3216 C.3       21 UNK        -0.1800 
    117 C         -7.9707  -18.5559  -53.5185 C.2       21 UNK         0.5000 
    118 O         -9.0337  -19.0672  -53.1640 O.2       21 UNK        -0.5000 
    119 N         -7.2949  -17.6602  -52.7914 N.am      22 UNK        -0.5000 
    120 CA        -7.7300  -17.0304  -51.5353 C.3       22 UNK         0.1400 
    121 C         -7.7383  -17.9254  -50.2627 C.2       22 UNK         0.5000 
    122 N         -7.2506  -19.1553  -50.2927 N.am      22 UNK        -0.7600 
    123 O         -8.2122  -17.4924  -49.2158 O.2       22 UNK        -0.5000 
    124 C124       -6.9726  -15.6965  -51.2938 C.3       23 UNK        -0.0398 
    125 S125       -5.1535  -15.8234  -51.4455 S.3       23 UNK        -0.2404 
    126 C126       -4.6572  -16.0619  -49.7133 C.3       23 UNK        -0.0205 
    127 H127        3.1711  -11.7920  -41.8744 H         1 UNK         0.0600 
    128 H128        1.6841  -10.8858  -42.1772 H         1 UNK         0.0600 
    129 H129        1.6446  -12.6491  -42.1061 H         1 UNK         0.0600 
    130 H130        1.6654  -13.6804  -44.0791 H         1 UNK         0.3000 
    131 H131        2.3375  -12.2466  -46.5651 H         1 UNK         0.0600 
    132 H132        1.5743  -14.4570  -47.5927 H         1 UNK         0.0800 
    133 H133        1.0949  -14.9927  -46.0060 H         1 UNK         0.0800 
    134 H134       -1.2685  -12.4279  -48.8654 H         1 UNK         0.0800 
    135 H135        0.3385  -13.0541  -49.1167 H         1 UNK         0.0800 
    136 H136       -3.2304  -13.8584  -48.9909 H         1 UNK         0.1150 
    137 H137       -2.7533  -17.9837  -50.0503 H         1 UNK         0.1150 
    138 H138        0.6916  -15.5647  -49.2629 H         1 UNK         0.1150 
    139 H139       -0.6152  -19.0220  -49.9909 H         1 UNK         0.0800 
    140 H140        0.5317  -17.9838  -50.8012 H         1 UNK         0.0800 
    141 H141       -0.8631  -17.8850  -47.2266 H         1 UNK         0.0800 
    142 H142        0.5672  -17.8402  -46.2537 H         1 UNK         0.0800 
    143 H143        0.7562  -20.3556  -46.4182 H         1 UNK         0.0600 
    144 H144       -1.0853  -18.9185  -44.8388 H         1 UNK         0.3000 
    145 H145       -2.3320  -21.6317  -42.8751 H         1 UNK         0.0600 
    146 H146       -0.5514  -19.2120  -42.2633 H         1 UNK         0.0600 
    147 H147       -1.5861  -20.0507  -41.1097 H         1 UNK         0.0600 
    148 H148       -0.2089  -20.8772  -41.8219 H         1 UNK         0.0600 
    149 H149       -2.8796  -18.7994  -43.0477 H         1 UNK         0.3000 
    150 H150       -5.6413  -19.0623  -45.2827 H         1 UNK         0.0600 
    151 H151       -6.5834  -19.7320  -43.0674 H         1 UNK         0.0600 
    152 H152       -6.8316  -18.0209  -43.3755 H         1 UNK         0.0600 
    153 H153       -5.5678  -18.5426  -42.2609 H         1 UNK         0.0600 
    154 H154       -4.5444  -16.8814  -43.7878 H         1 UNK         0.3000 
    155 H155       -2.1551  -15.8407  -46.2322 H         1 UNK         0.0600 
    156 H156       -4.4405  -14.9666  -46.9018 H         1 UNK         0.0600 
    157 H157       -3.4589  -13.7714  -46.0727 H         1 UNK         0.0600 
    158 H158       -4.7674  -14.5916  -45.2189 H         1 UNK         0.0600 
    159 H159       -2.7881  -14.6428  -43.7862 H         1 UNK         0.3000 
    160 H160       -1.1021  -14.6317  -42.1649 H         1 UNK         0.0600 
    161 H161       -2.0069  -15.7367  -40.1155 H         1 UNK         0.0600 
    162 H162       -2.3284  -17.2119  -41.0260 H         1 UNK         0.0600 
    163 H163       -3.2189  -15.7370  -41.3837 H         1 UNK         0.0600 
    164 H164        0.1035  -16.8704  -40.8894 H         1 UNK         0.3000 
    165 H165        2.6716  -16.3650  -40.6771 H         1 UNK         0.0600 
    166 H166        3.2663  -18.7496  -41.3899 H         1 UNK         0.0600 
    167 H167        1.5588  -18.5615  -41.0465 H         1 UNK         0.0600 
    168 H168        2.1155  -18.6103  -42.7162 H         1 UNK         0.0600 
    169 H169        3.4685  -16.0499  -43.4442 H         1 UNK         0.3000 
    170 H170        5.9185  -15.0011  -43.4327 H         1 UNK         0.0600 
    171 H171        7.7485  -15.6934  -41.9520 H         1 UNK         0.0600 
    172 H172        7.6164  -17.3657  -42.4709 H         1 UNK         0.0600 
    173 H173        8.1540  -16.1274  -43.6053 H         1 UNK         0.0600 
    174 H174        5.2273  -16.1796  -45.1497 H         1 UNK         0.3000 
    175 H175        5.4728  -19.4746  -46.2512 H         1 UNK         0.0600 
    176 H176        3.0255  -19.5089  -46.5023 H         1 UNK         0.0600 
    177 H177        3.4357  -19.7636  -44.8166 H         1 UNK         0.0600 
    178 H178        2.8424  -18.1912  -45.3402 H         1 UNK         0.0600 
    179 H179        4.4286  -16.7010  -46.7507 H         1 UNK         0.3000 
    180 H180        6.3416  -16.4940  -49.7231 H         1 UNK         0.0600 
    181 H181        3.2861  -16.4352  -49.4748 H         1 UNK         0.0600 
    182 H182        4.1804  -17.4857  -50.5661 H         1 UNK         0.0600 
    183 H183        4.2461  -15.7435  -50.7813 H         1 UNK         0.0600 
    184 H184        4.5789  -14.6435  -48.4662 H         1 UNK         0.3000 
    185 H185        6.4832  -13.6030  -45.7846 H         1 UNK         0.0600 
    186 H186        6.7562  -11.3596  -46.7980 H         1 UNK         0.0600 
    187 H187        7.9332  -12.4684  -47.4806 H         1 UNK         0.0600 
    188 H188        6.5080  -12.0258  -48.4129 H         1 UNK         0.0600 
    189 H189        4.4469  -12.1514  -46.9879 H         1 UNK         0.3000 
    190 H190       -2.7275  -19.6338  -47.0413 H         1 UNK         0.3000 
    191 H191       -2.9611  -21.0210  -49.4703 H         1 UNK         0.0600 
    192 H192       -5.0633  -20.4710  -47.3127 H         1 UNK         0.0600 
    193 H193       -5.4099  -20.9304  -48.9725 H         1 UNK         0.0600 
    194 H194       -4.6284  -19.3977  -48.6410 H         1 UNK         0.0600 
    195 H195       -3.3162  -22.2455  -46.1293 H         1 UNK         0.3000 
    196 H196       -4.0724  -24.9145  -46.8404 H         1 UNK         0.0600 
    197 H197       -2.7616  -23.8253  -44.2940 H         1 UNK         0.0600 
    198 H198       -3.4942  -25.4151  -44.4669 H         1 UNK         0.0600 
    199 H199       -4.4911  -23.9732  -44.5916 H         1 UNK         0.0600 
    200 H200       -0.8818  -23.4213  -46.0735 H         1 UNK         0.3000 
    201 H201        0.6756  -25.7713  -46.3370 H         1 UNK         0.0600 
    202 H202        1.4610  -22.8268  -46.6621 H         1 UNK         0.0600 
    203 H203        2.5881  -24.1608  -46.4472 H         1 UNK         0.0600 
    204 H204        1.4681  -23.7464  -45.1587 H         1 UNK         0.0600 
    205 H205       -0.2316  -23.2946  -48.7505 H         1 UNK         0.3000 
    206 H206        1.2526  -24.3510  -50.9487 H         1 UNK         0.0600 
    207 H207        0.3671  -22.0270  -50.8685 H         1 UNK         0.0600 
    208 H208       -0.2662  -22.8627  -52.2793 H         1 UNK         0.0600 
    209 H209       -1.2873  -22.6367  -50.8635 H         1 UNK         0.0600 
    210 H210       -1.7122  -25.3280  -49.4840 H         1 UNK         0.3000 
    211 H211       -3.1479  -26.9568  -49.6883 H         1 UNK         0.0600 
    212 H212       -1.6220  -28.0836  -52.0988 H         1 UNK         0.0600 
    213 H213       -2.8145  -28.9195  -51.1213 H         1 UNK         0.0600 
    214 H214       -1.2694  -28.4748  -50.4151 H         1 UNK         0.0600 
    215 H215       -5.0285  -27.6366  -50.8866 H         1 UNK         0.3000 
    216 H216       -6.9198  -27.1807  -51.9534 H         1 UNK         0.0600 
    217 H217       -5.5821  -28.1094  -53.8622 H         1 UNK         0.0600 
    218 H218       -6.8018  -26.9724  -54.4102 H         1 UNK         0.0600 
    219 H219       -5.1172  -26.4746  -54.3308 H         1 UNK         0.0600 
    220 H220       -5.9024  -25.0290  -50.3824 H         1 UNK         0.3000 
    221 H221       -6.1646  -22.9170  -49.8154 H         1 UNK         0.0600 
    222 H222       -8.4581  -22.7712  -51.8428 H         1 UNK         0.0600 
    223 H223       -8.6010  -23.4162  -50.2085 H         1 UNK         0.0600 
    224 H224       -8.2184  -21.7237  -50.4553 H         1 UNK         0.0600 
    225 H225       -4.2399  -23.5341  -51.8610 H         1 UNK         0.3000 
    226 H226       -2.7882  -22.7073  -53.2778 H         1 UNK         0.0600 
    227 H227       -2.5765  -20.7681  -51.7025 H         1 UNK         0.0600 
    228 H228       -2.2978  -20.2833  -53.3597 H         1 UNK         0.0600 
    229 H229       -3.8288  -19.9020  -52.5888 H         1 UNK         0.0600 
    230 H230       -5.7246  -23.1920  -54.0488 H         1 UNK         0.3000 
    231 H231       -7.1553  -23.1264  -55.6951 H         1 UNK         0.0600 
    232 H232       -5.2535  -23.9770  -57.0945 H         1 UNK         0.0600 
    233 H233       -4.8599  -22.3219  -57.5587 H         1 UNK         0.0600 
    234 H234       -6.3968  -23.0311  -58.0320 H         1 UNK         0.0600 
    235 H235       -6.7377  -20.7180  -54.0470 H         1 UNK         0.3000 
    236 H236       -8.1936  -18.7364  -55.6145 H         1 UNK         0.0600 
    237 H237       -6.4271  -16.9705  -55.2908 H         1 UNK         0.0600 
    238 H238       -5.3144  -18.2007  -54.6804 H         1 UNK         0.0600 
    239 H239       -5.8758  -18.2542  -56.3444 H         1 UNK         0.0600 
    240 H240       -6.4087  -17.3283  -53.1438 H         1 UNK         0.3000 
    241 H241       -8.7794  -16.7667  -51.6800 H         1 UNK         0.0600 
    242 H242       -7.2891  -19.6999  -49.4491 H         1 UNK         0.3800 
    243 H243       -6.8823  -19.5694  -51.1437 H         1 UNK         0.3800 
    244 H244       -7.2992  -14.9713  -52.0402 H         1 UNK         0.0800 
    245 H245       -7.2393  -15.2503  -50.3341 H         1 UNK         0.0800 
    246 H246       -5.1647  -15.3267  -49.0884 H         1 UNK         0.0800 
    247 H247       -4.9829  -17.0433  -49.3661 H         1 UNK         0.0800 
@<TRIPOS>BOND
     1    1    2 1    
     2    1  127 1    
     3    1  128 1    
     4    1  129 1    
     5    2    3 2    
     6    2    4 am   BACKBONE|DICT|INTERRES
     7    4    5 1    
     8    4  130 1    
     9    5    6 1    
    10    5   65 1    
    11    5  131 1    
    12    6    7 1    
    13    6  132 1    
    14    6  133 1    
    15    7    8 1    
    16    8    9 1    
    17    8  134 1    
    18    8  135 1    
    19    9   10 ar   
    20    9   14 ar   
    21   10   11 ar   
    22   10  136 1    
    23   11   12 ar   
    24   11  126 1    
    25   12   13 ar   
    26   12  137 1    
    27   13   14 ar   
    28   13   15 1    
    29   14  138 1    
    30   15   16 1    
    31   15  139 1    
    32   15  140 1    
    33   16   17 1    
    34   17   18 1    
    35   17  141 1    
    36   17  142 1    
    37   18   19 1    
    38   18   67 1    
    39   18  143 1    
    40   19   20 am   BACKBONE|DICT|INTERRES
    41   19  144 1    
    42   20   21 2    
    43   20   22 1    
    44   22   23 1    
    45   22   24 1    
    46   22  145 1    
    47   23  146 1    
    48   23  147 1    
    49   23  148 1    
    50   24   25 am   BACKBONE|DICT|INTERRES
    51   24  149 1    
    52   25   26 2    
    53   25   27 1    
    54   27   28 1    
    55   27   29 1    
    56   27  150 1    
    57   28  151 1    
    58   28  152 1    
    59   28  153 1    
    60   29   30 am   BACKBONE|DICT|INTERRES
    61   29  154 1    
    62   30   31 2    
    63   30   32 1    
    64   32   33 1    
    65   32   34 1    
    66   32  155 1    
    67   33  156 1    
    68   33  157 1    
    69   33  158 1    
    70   34   35 am   BACKBONE|DICT|INTERRES
    71   34  159 1    
    72   35   36 2    
    73   35   37 1    
    74   37   38 1    
    75   37   39 1    
    76   37  160 1    
    77   38  161 1    
    78   38  162 1    
    79   38  163 1    
    80   39   40 am   BACKBONE|DICT|INTERRES
    81   39  164 1    
    82   40   41 2    
    83   40   42 1    
    84   42   43 1    
    85   42   44 1    
    86   42  165 1    
    87   43  166 1    
    88   43  167 1    
    89   43  168 1    
    90   44   45 am   BACKBONE|DICT|INTERRES
    91   44  169 1    
    92   45   46 2    
    93   45   47 1    
    94   47   48 1    
    95   47   49 1    
    96   47  170 1    
    97   48  171 1    
    98   48  172 1    
    99   48  173 1    
   100   49   50 am   BACKBONE|DICT|INTERRES
   101   49  174 1    
   102   50   51 2    
   103   50   52 1    
   104   52   53 1    
   105   52   54 1    
   106   52  175 1    
   107   53  176 1    
   108   53  177 1    
   109   53  178 1    
   110   54   55 am   BACKBONE|DICT|INTERRES
   111   54  179 1    
   112   55   56 2    
   113   55   57 1    
   114   57   58 1    
   115   57   59 1    
   116   57  180 1    
   117   58  181 1    
   118   58  182 1    
   119   58  183 1    
   120   59   60 am   BACKBONE|DICT|INTERRES
   121   59  184 1    
   122   60   61 2    
   123   60   62 1    
   124   62   63 1    
   125   62   64 1    
   126   62  185 1    
   127   63  186 1    
   128   63  187 1    
   129   63  188 1    
   130   64   65 am   BACKBONE|DICT|INTERRES
   131   64  189 1    
   132   65   66 2    
   133   67   68 2    
   134   67   69 am   BACKBONE|DICT|INTERRES
   135   69   70 1    
   136   69  190 1    
   137   70   71 1    
   138   70   72 1    
   139   70  191 1    
   140   71  192 1    
   141   71  193 1    
   142   71  194 1    
   143   72   73 2    
   144   72   74 am   BACKBONE|DICT|INTERRES
   145   74   75 1    
   146   74  195 1    
   147   75   76 1    
   148   75   77 1    
   149   75  196 1    
   150   76  197 1    
   151   76  198 1    
   152   76  199 1    
   153   77   78 2    
   154   77   79 am   BACKBONE|DICT|INTERRES
   155   79   80 1    
   156   79  200 1    
   157   80   81 1    
   158   80   82 1    
   159   80  201 1    
   160   81  202 1    
   161   81  203 1    
   162   81  204 1    
   163   82   83 2    
   164   82   84 am   BACKBONE|DICT|INTERRES
   165   84   85 1    
   166   84  205 1    
   167   85   86 1    
   168   85   87 1    
   169   85  206 1    
   170   86  207 1    
   171   86  208 1    
   172   86  209 1    
   173   87   88 2    
   174   87   89 am   BACKBONE|DICT|INTERRES
   175   89   90 1    
   176   89  210 1    
   177   90   91 1    
   178   90   92 1    
   179   90  211 1    
   180   91  212 1    
   181   91  213 1    
   182   91  214 1    
   183   92   93 2    
   184   92   94 am   BACKBONE|DICT|INTERRES
   185   94   95 1    
   186   94  215 1    
   187   95   96 1    
   188   95   97 1    
   189   95  216 1    
   190   96  217 1    
   191   96  218 1    
   192   96  219 1    
   193   97   98 2    
   194   97   99 am   BACKBONE|DICT|INTERRES
   195   99  100 1    
   196   99  220 1    
   197  100  101 1    
   198  100  102 1    
   199  100  221 1    
   200  101  222 1    
   201  101  223 1    
   202  101  224 1    
   203  102  103 2    
   204  102  104 am   BACKBONE|DICT|INTERRES
   205  104  105 1    
   206  104  225 1    
   207  105  106 1    
   208  105  107 1    
   209  105  226 1    
   210  106  227 1    
   211  106  228 1    
   212  106  229 1    
   213  107  108 2    
   214  107  109 am   BACKBONE|DICT|INTERRES
   215  109  110 1    
   216  109  230 1    
   217  110  111 1    
   218  110  112 1    
   219  110  231 1    
   220  111  232 1    
   221  111  233 1    
   222  111  234 1    
   223  112  113 2    
   224  112  114 am   BACKBONE|DICT|INTERRES
   225  114  115 1    
   226  114  235 1    
   227  115  116 1    
   228  115  117 1    
   229  115  236 1    
   230  116  237 1    
   231  116  238 1    
   232  116  239 1    
   233  117  118 2    
   234  117  119 am   BACKBONE|DICT|INTERRES
   235  119  120 1    
   236  119  240 1    
   237  120  121 1    
   238  120  124 1    
   239  120  241 1    
   240  121  122 am   BACKBONE|DICT|INTERRES
   241  121  123 2    
   242  122  242 1    
   243  122  243 1    
   244  124  125 1    
   245  124  244 1    
   246  124  245 1    
   247  125  126 1    
   248  126  246 1    
   249  126  247 1    
@<TRIPOS>SUBSTRUCTURE
     1 UNK         1 GROUP             0       ****    0 ROOT    
