@<TRIPOS>MOLECULE
3R540
247   249    1
SMALL
USER_CHARGES


@<TRIPOS>ATOM
      1 CA         -0.2778  -10.9663  -45.4258 C.3       0 UNK        -0.1800 
      2 C          -0.1444  -12.0126  -46.5231 C.2       0 UNK         0.5000 
      3 O          -0.2302  -13.2018  -46.2301 O.2       0 UNK        -0.5000 
      4 N           0.0829  -11.5627  -47.7658 N.am      1 UNK        -0.5000 
      5 CA          0.2488  -12.2971  -49.0345 C.3       1 UNK         0.1400 
      6 C6         -1.0585  -12.9235  -49.5993 C.3       23 UNK        -0.0398 
      7 S7         -1.5826  -14.5168  -48.8753 S.3       23 UNK        -0.2404 
      8 C8         -1.1130  -15.6749  -50.1993 C.3       23 UNK        -0.0205 
      9 C9         -1.1708  -17.1183  -49.7255 C.ar      23 UNK        -0.0193 
     10 C10        -2.3917  -17.6893  -49.3639 C.ar      23 UNK        -0.1150 
     11 C11        -2.4542  -19.0147  -48.9314 C.ar      23 UNK        -0.0193 
     12 C12        -1.2837  -19.7797  -48.8837 C.ar      23 UNK        -0.1150 
     13 C13        -0.0471  -19.2238  -49.2453 C.ar      23 UNK        -0.0193 
     14 C14        -0.0071  -17.8884  -49.6584 C.ar      23 UNK        -0.1150 
     15 C15         1.2746  -19.9994  -49.2175 C.3       23 UNK        -0.0205 
     16 S16         1.2170  -21.7092  -48.5810 S.3       23 UNK        -0.2404 
     17 C17         0.9306  -21.4023  -46.8034 C.3       23 UNK        -0.0398 
     18 CA          0.2913  -22.5676  -46.0068 C.3       11 UNK         0.1400 
     19 N           0.1370  -22.1930  -44.5992 N.am      11 UNK        -0.5000 
     20 C          -0.1953  -23.0067  -43.5887 C.2       10 UNK         0.5000 
     21 O          -0.4080  -24.2126  -43.7207 O.2       10 UNK        -0.5000 
     22 CA         -0.3467  -22.3438  -42.2055 C.3       10 UNK         0.1400 
     23 CB          1.0236  -22.1413  -41.5414 C.3       10 UNK        -0.1800 
     24 N          -1.0465  -21.0588  -42.2828 N.am      10 UNK        -0.5000 
     25 C          -2.3515  -20.9305  -42.5620 C.2       9 UNK         0.5000 
     26 O          -3.1139  -21.8871  -42.6943 O.2       9 UNK        -0.5000 
     27 CA         -2.8956  -19.5020  -42.7586 C.3       9 UNK         0.1400 
     28 CB         -3.2695  -18.8698  -41.4099 C.3       9 UNK        -0.1800 
     29 N          -1.9693  -18.6236  -43.4762 N.am      9 UNK        -0.5000 
     30 C          -1.5712  -18.8122  -44.7429 C.2       8 UNK         0.5000 
     31 O          -1.9696  -19.7371  -45.4489 O.2       8 UNK        -0.5000 
     32 CA         -0.5051  -17.8436  -45.2902 C.3       8 UNK         0.1400 
     33 CB         -1.1415  -16.5271  -45.7516 C.3       8 UNK        -0.1800 
     34 N           0.5565  -17.5732  -44.3177 N.am      8 UNK        -0.5000 
     35 C           1.3869  -18.5054  -43.8271 C.2       7 UNK         0.5000 
     36 O           1.3885  -19.6787  -44.1923 O.2       7 UNK        -0.5000 
     37 CA          2.3265  -18.0777  -42.6891 C.3       7 UNK         0.1400 
     38 CB          3.5889  -17.3912  -43.2342 C.3       7 UNK        -0.1800 
     39 N           1.6421  -17.2074  -41.7333 N.am      7 UNK        -0.5000 
     40 C           0.6900  -17.6288  -40.8871 C.2       6 UNK         0.5000 
     41 O           0.3343  -18.8037  -40.7934 O.2       6 UNK        -0.5000 
     42 CA         -0.0054  -16.5553  -40.0282 C.3       6 UNK         0.1400 
     43 CB          0.7810  -16.3108  -38.7319 C.3       6 UNK        -0.1800 
     44 N          -0.1722  -15.2861  -40.7372 N.am      6 UNK        -0.5000 
     45 C          -0.9789  -15.1029  -41.7929 C.2       5 UNK         0.5000 
     46 O          -1.7248  -15.9738  -42.2385 O.2       5 UNK        -0.5000 
     47 CA         -0.8860  -13.7361  -42.5028 C.3       5 UNK         0.1400 
     48 CB         -1.8701  -12.7334  -41.8834 C.3       5 UNK        -0.1800 
     49 N           0.4685  -13.1716  -42.4754 N.am      5 UNK        -0.5000 
     50 C           1.5256  -13.7545  -43.0537 C.2       4 UNK         0.5000 
     51 O           1.4560  -14.8115  -43.6885 O.2       4 UNK        -0.5000 
     52 CA          2.8937  -13.0968  -42.8287 C.3       4 UNK         0.1400 
     53 CB          3.4000  -13.3751  -41.4001 C.3       4 UNK        -0.1800 
     54 N           3.8060  -13.6690  -43.8071 N.am      4 UNK        -0.5000 
     55 C           5.0222  -13.2355  -44.1511 C.2       3 UNK         0.5000 
     56 O           5.5853  -12.2738  -43.6272 O.2       3 UNK        -0.5000 
     57 CA          5.7196  -14.0056  -45.2937 C.3       3 UNK         0.1400 
     58 CB          6.6637  -15.0740  -44.7211 C.3       3 UNK        -0.1800 
     59 N           4.7748  -14.6489  -46.2157 N.am      3 UNK        -0.5000 
     60 C           3.9344  -13.9850  -47.0222 C.2       2 UNK         0.5000 
     61 O           3.9482  -12.7561  -47.1335 O.2       2 UNK        -0.5000 
     62 CA          2.9053  -14.8235  -47.8125 C.3       2 UNK         0.1400 
     63 CB          2.4912  -16.1183  -47.0844 C.3       2 UNK        -0.1800 
     64 N           1.7069  -14.0244  -48.0463 N.am      2 UNK        -0.5000 
     65 C           1.4751  -13.2401  -49.1028 C.2       1 UNK         0.5000 
     66 O           2.1962  -13.2156  -50.1020 O.2       1 UNK        -0.5000 
     67 C          -1.0233  -23.0742  -46.6418 C.2       11 UNK         0.5000 
     68 O          -0.9582  -23.8626  -47.5834 O.2       11 UNK        -0.5000 
     69 N          -2.1868  -22.6632  -46.1159 N.am      12 UNK        -0.5000 
     70 CA         -3.5265  -23.0096  -46.6086 C.3       12 UNK         0.1400 
     71 CB         -4.5829  -22.3228  -45.7300 C.3       12 UNK        -0.1800 
     72 C          -3.8301  -24.5181  -46.7264 C.2       12 UNK         0.5000 
     73 O          -4.7207  -24.8925  -47.4893 O.2       12 UNK        -0.5000 
     74 N          -3.0779  -25.3576  -46.0015 N.am      13 UNK        -0.5000 
     75 CA         -3.1035  -26.8158  -46.1231 C.3       13 UNK         0.1400 
     76 CB         -2.3247  -27.4218  -44.9457 C.3       13 UNK        -0.1800 
     77 C          -2.5383  -27.3317  -47.4653 C.2       13 UNK         0.5000 
     78 O          -2.9357  -28.4110  -47.9064 O.2       13 UNK        -0.5000 
     79 N          -1.6280  -26.5658  -48.0819 N.am      14 UNK        -0.5000 
     80 CA         -0.9947  -26.8648  -49.3670 C.3       14 UNK         0.1400 
     81 CB          0.5303  -26.7495  -49.2082 C.3       14 UNK        -0.1800 
     82 C          -1.4803  -25.9155  -50.4765 C.2       14 UNK         0.5000 
     83 O          -1.6233  -26.3542  -51.6180 O.2       14 UNK        -0.5000 
     84 N          -1.7154  -24.6419  -50.1223 N.am      15 UNK        -0.5000 
     85 CA         -2.1171  -23.5282  -50.9884 C.3       15 UNK         0.1400 
     86 CB         -3.5400  -23.7455  -51.5381 C.3       15 UNK        -0.1800 
     87 C          -1.0787  -23.2378  -52.0909 C.2       15 UNK         0.5000 
     88 O          -1.4277  -23.0906  -53.2632 O.2       15 UNK        -0.5000 
     89 N           0.1974  -23.1899  -51.6860 N.am      16 UNK        -0.5000 
     90 CA          1.3640  -23.1414  -52.5700 C.3       16 UNK         0.1400 
     91 CB          2.6250  -23.4028  -51.7313 C.3       16 UNK        -0.1800 
     92 C           1.5232  -21.8452  -53.3910 C.2       16 UNK         0.5000 
     93 O           2.2786  -21.8526  -54.3644 O.2       16 UNK        -0.5000 
     94 N           0.8379  -20.7637  -52.9988 N.am      17 UNK        -0.5000 
     95 CA          0.9190  -19.4553  -53.6491 C.3       17 UNK         0.1400 
     96 CB          2.0371  -18.6162  -52.9999 C.3       17 UNK        -0.1800 
     97 C          -0.4471  -18.7478  -53.6598 C.2       17 UNK         0.5000 
     98 O          -0.5087  -17.5339  -53.4572 O.2       17 UNK        -0.5000 
     99 N          -1.5199  -19.5102  -53.9075 N.am      18 UNK        -0.5000 
    100 CA        -2.8797  -18.9950  -54.0330 C.3       18 UNK         0.1400 
    101 CB        -3.6453  -19.2388  -52.7251 C.3       18 UNK        -0.1800 
    102 C         -3.5733  -19.6838  -55.2133 C.2       18 UNK         0.5000 
    103 O         -3.8467  -20.8830  -55.1435 O.2       18 UNK        -0.5000 
    104 N         -3.8820  -18.9125  -56.2644 N.am      19 UNK        -0.5000 
    105 CA        -4.6142  -19.3738  -57.4510 C.3       19 UNK         0.1400 
    106 CB        -4.5490  -18.2877  -58.5355 C.3       19 UNK        -0.1800 
    107 C         -6.0801  -19.7539  -57.1540 C.2       19 UNK         0.5000 
    108 O         -6.6498  -20.5886  -57.8568 O.2       19 UNK        -0.5000 
    109 N         -6.6481  -19.1579  -56.0966 N.am      20 UNK        -0.5000 
    110 CA        -7.9784  -19.4539  -55.5603 C.3       20 UNK         0.1400 
    111 CB        -8.4835  -18.2084  -54.8121 C.3       20 UNK        -0.1800 
    112 C         -8.0031  -20.6918  -54.6359 C.2       20 UNK         0.5000 
    113 O         -9.0549  -20.9945  -54.0696 O.2       20 UNK        -0.5000 
    114 N         -6.8495  -21.3568  -54.4537 N.am      21 UNK        -0.5000 
    115 CA        -6.6236  -22.5341  -53.6048 C.3       21 UNK         0.1400 
    116 CB        -7.3793  -23.7595  -54.1591 C.3       21 UNK        -0.1800 
    117 C         -6.9121  -22.2796  -52.1079 C.2       21 UNK         0.5000 
    118 O         -7.2547  -23.2117  -51.3791 O.2       21 UNK        -0.5000 
    119 N         -6.7762  -21.0135  -51.6888 N.am      22 UNK        -0.5000 
    120 CA        -7.0478  -20.4974  -50.3345 C.3       22 UNK         0.1400 
    121 C         -8.5515  -20.5394  -49.9197 C.2       22 UNK         0.5000 
    122 N         -9.4907  -20.7018  -50.8460 N.am      22 UNK        -0.7600 
    123 O         -8.8804  -20.3874  -48.7464 O.2       22 UNK        -0.5000 
    124 C124       -6.1000  -21.0867  -49.2497 C.3       23 UNK        -0.0398 
    125 S125       -4.3450  -20.8657  -49.6951 S.3       23 UNK        -0.2404 
    126 C126       -3.7879  -19.6106  -48.5097 C.3       23 UNK        -0.0205 
    127 H127       -1.2177  -11.1034  -44.8912 H         1 UNK         0.0600 
    128 H128       -0.2582   -9.9520  -45.8250 H         1 UNK         0.0600 
    129 H129        0.5391  -11.0680  -44.7115 H         1 UNK         0.0600 
    130 H130        0.1691  -10.5620  -47.8755 H         1 UNK         0.3000 
    131 H131        0.4963  -11.4940  -49.7310 H         1 UNK         0.0600 
    132 H132       -1.8805  -12.2179  -49.4735 H         1 UNK         0.0800 
    133 H133       -0.9589  -13.0501  -50.6785 H         1 UNK         0.0800 
    134 H134       -1.7831  -15.5481  -51.0507 H         1 UNK         0.0800 
    135 H135       -0.1101  -15.4340  -50.5549 H         1 UNK         0.0800 
    136 H136       -3.2920  -17.0934  -49.4122 H         1 UNK         0.1150 
    137 H137       -1.3564  -20.8061  -48.5594 H         1 UNK         0.1150 
    138 H138        0.9385  -17.4446  -49.9358 H         1 UNK         0.1150 
    139 H139        1.6694  -20.0427  -50.2324 H         1 UNK         0.0800 
    140 H140        2.0032  -19.4382  -48.6303 H         1 UNK         0.0800 
    141 H141        0.3132  -20.5123  -46.6981 H         1 UNK         0.0800 
    142 H142        1.8954  -21.1480  -46.3630 H         1 UNK         0.0800 
    143 H143        0.9896  -23.4064  -46.0359 H         1 UNK         0.0600 
    144 H144        0.3508  -21.2229  -44.3807 H         1 UNK         0.3000 
    145 H145       -0.9321  -23.0160  -41.5747 H         1 UNK         0.0600 
    146 H146        0.9170  -21.7272  -40.5385 H         1 UNK         0.0600 
    147 H147        1.6559  -21.4636  -42.1154 H         1 UNK         0.0600 
    148 H148        1.5561  -23.0886  -41.4483 H         1 UNK         0.0600 
    149 H149       -0.4945  -20.2234  -42.1240 H         1 UNK         0.3000 
    150 H150       -3.8049  -19.5781  -43.3584 H         1 UNK         0.0600 
    151 H151       -3.9922  -19.4884  -40.8764 H         1 UNK         0.0600 
    152 H152       -3.7207  -17.8869  -41.5463 H         1 UNK         0.0600 
    153 H153       -2.3992  -18.7525  -40.7647 H         1 UNK         0.0600 
    154 H154       -1.6443  -17.7993  -42.9802 H         1 UNK         0.3000 
    155 H155       -0.0456  -18.3077  -46.1641 H         1 UNK         0.0600 
    156 H156       -1.9220  -16.7107  -46.4908 H         1 UNK         0.0600 
    157 H157       -0.4025  -15.8784  -46.2201 H         1 UNK         0.0600 
    158 H158       -1.5924  -15.9781  -44.9258 H         1 UNK         0.0600 
    159 H159        0.6490  -16.6169  -43.9902 H         1 UNK         0.3000 
    160 H160        2.6415  -18.9790  -42.1586 H         1 UNK         0.0600 
    161 H161        3.3523  -16.5341  -43.8614 H         1 UNK         0.0600 
    162 H162        4.1693  -18.0842  -43.8444 H         1 UNK         0.0600 
    163 H163        4.2359  -17.0494  -42.4263 H         1 UNK         0.0600 
    164 H164        1.8308  -16.2191  -41.8034 H         1 UNK         0.3000 
    165 H165       -0.9959  -16.9300  -39.7621 H         1 UNK         0.0600 
    166 H166        0.2609  -15.6069  -38.0820 H         1 UNK         0.0600 
    167 H167        0.9057  -17.2381  -38.1709 H         1 UNK         0.0600 
    168 H168        1.7762  -15.9117  -38.9321 H         1 UNK         0.0600 
    169 H169        0.3996  -14.5135  -40.4306 H         1 UNK         0.3000 
    170 H170       -1.1642  -13.8872  -43.5482 H         1 UNK         0.0600 
    171 H171       -1.6289  -12.5222  -40.8410 H         1 UNK         0.0600 
    172 H172       -1.8659  -11.7892  -42.4280 H         1 UNK         0.0600 
    173 H173       -2.8898  -13.1198  -41.9133 H         1 UNK         0.0600 
    174 H174        0.5926  -12.3119  -41.9606 H         1 UNK         0.3000 
    175 H175        2.8057  -12.0224  -43.0005 H         1 UNK         0.0600 
    176 H176        3.5102  -14.4443  -41.2141 H         1 UNK         0.0600 
    177 H177        4.3676  -12.9062  -41.2221 H         1 UNK         0.0600 
    178 H178        2.7123  -12.9790  -40.6522 H         1 UNK         0.0600 
    179 H179        3.3979  -14.4426  -44.3164 H         1 UNK         0.3000 
    180 H180        6.3160  -13.2879  -45.8609 H         1 UNK         0.0600 
    181 H181        7.2154  -15.5796  -45.5138 H         1 UNK         0.0600 
    182 H182        6.1202  -15.8302  -44.1535 H         1 UNK         0.0600 
    183 H183        7.3984  -14.6262  -44.0505 H         1 UNK         0.0600 
    184 H184        4.7289  -15.6567  -46.1858 H         1 UNK         0.3000 
    185 H185        3.3604  -15.0963  -48.7665 H         1 UNK         0.0600 
    186 H186        1.6911  -16.6300  -47.6187 H         1 UNK         0.0600 
    187 H187        3.3201  -16.8222  -47.0076 H         1 UNK         0.0600 
    188 H188        2.1301  -15.9124  -46.0769 H         1 UNK         0.0600 
    189 H189        1.0551  -13.9399  -47.2679 H         1 UNK         0.3000 
    190 H190       -2.1484  -21.9692  -45.3796 H         1 UNK         0.3000 
    191 H191       -3.5974  -22.6029  -47.6157 H         1 UNK         0.0600 
    192 H192       -4.3894  -21.2557  -45.6241 H         1 UNK         0.0600 
    193 H193       -4.6113  -22.7567  -44.7303 H         1 UNK         0.0600 
    194 H194       -5.5783  -22.4320  -46.1621 H         1 UNK         0.0600 
    195 H195       -2.3727  -24.9637  -45.3934 H         1 UNK         0.3000 
    196 H196       -4.1421  -27.1456  -46.0532 H         1 UNK         0.0600 
    197 H197       -2.7619  -27.1290  -43.9910 H         1 UNK         0.0600 
    198 H198       -1.2813  -27.1034  -44.9481 H         1 UNK         0.0600 
    199 H199       -2.3367  -28.5118  -44.9877 H         1 UNK         0.0600 
    200 H200       -1.3884  -25.6690  -47.6691 H         1 UNK         0.3000 
    201 H201       -1.2262  -27.8851  -49.6795 H         1 UNK         0.0600 
    202 H202        0.9025  -27.4584  -48.4686 H         1 UNK         0.0600 
    203 H203        0.8297  -25.7490  -48.8926 H         1 UNK         0.0600 
    204 H204        1.0391  -26.9633  -50.1491 H         1 UNK         0.0600 
    205 H205       -1.5085  -24.3787  -49.1603 H         1 UNK         0.3000 
    206 H206       -2.1350  -22.6437  -50.3514 H         1 UNK         0.0600 
    207 H207       -3.5916  -24.5902  -52.2253 H         1 UNK         0.0600 
    208 H208       -4.2527  -23.9209  -50.7318 H         1 UNK         0.0600 
    209 H209       -3.8733  -22.8605  -52.0789 H         1 UNK         0.0600 
    210 H210        0.3907  -23.2958  -50.6999 H         1 UNK         0.3000 
    211 H211        1.2620  -23.9592  -53.2863 H         1 UNK         0.0600 
    212 H212        3.5108  -23.4627  -52.3649 H         1 UNK         0.0600 
    213 H213        2.5524  -24.3451  -51.1877 H         1 UNK         0.0600 
    214 H214        2.7970  -22.6073  -51.0058 H         1 UNK         0.0600 
    215 H215        0.2162  -20.8383  -52.2062 H         1 UNK         0.3000 
    216 H216        1.1756  -19.5904  -54.7018 H         1 UNK         0.0600 
    217 H217        2.1697  -17.6680  -53.5222 H         1 UNK         0.0600 
    218 H218        2.9938  -19.1375  -53.0322 H         1 UNK         0.0600 
    219 H219        1.8145  -18.3877  -51.9589 H         1 UNK         0.0600 
    220 H220       -1.4042  -20.4992  -54.0917 H         1 UNK         0.3000 
    221 H221       -2.8672  -17.9197  -54.2235 H         1 UNK         0.0600 
    222 H222       -3.6989  -20.3017  -52.4889 H         1 UNK         0.0600 
    223 H223       -3.1607  -18.7362  -51.8891 H         1 UNK         0.0600 
    224 H224       -4.6654  -18.8592  -52.7871 H         1 UNK         0.0600 
    225 H225       -3.6136  -17.9386  -56.2551 H         1 UNK         0.3000 
    226 H226       -4.1146  -20.2675  -57.8311 H         1 UNK         0.0600 
    227 H227       -3.5176  -18.0647  -58.8093 H         1 UNK         0.0600 
    228 H228       -5.0616  -18.6102  -59.4427 H         1 UNK         0.0600 
    229 H229       -5.0182  -17.3600  -58.2057 H         1 UNK         0.0600 
    230 H230       -6.1039  -18.4745  -55.5915 H         1 UNK         0.3000 
    231 H231       -8.6601  -19.6547  -56.3893 H         1 UNK         0.0600 
    232 H232       -9.5001  -18.3543  -54.4444 H         1 UNK         0.0600 
    233 H233       -8.5016  -17.3362  -55.4659 H         1 UNK         0.0600 
    234 H234       -7.8548  -17.9717  -53.9528 H         1 UNK         0.0600 
    235 H235       -6.0275  -21.0289  -54.9464 H         1 UNK         0.3000 
    236 H236       -5.5578  -22.7507  -53.6776 H         1 UNK         0.0600 
    237 H237       -8.4594  -23.6492  -54.0591 H         1 UNK         0.0600 
    238 H238       -7.1537  -23.9174  -55.2137 H         1 UNK         0.0600 
    239 H239       -7.0932  -24.6684  -53.6285 H         1 UNK         0.0600 
    240 H240       -6.4977  -20.3239  -52.3689 H         1 UNK         0.3000 
    241 H241       -6.8245  -19.4316  -50.3932 H         1 UNK         0.0600 
    242 H242      -10.4596  -20.7159  -50.5696 H         1 UNK         0.3800 
    243 H243       -9.2462  -20.8293  -51.8195 H         1 UNK         0.3800 
    244 H244       -6.2813  -20.6207  -48.2800 H         1 UNK         0.0800 
    245 H245       -6.2880  -22.1522  -49.1110 H         1 UNK         0.0800 
    246 H246       -3.6872  -20.0570  -47.5215 H         1 UNK         0.0800 
    247 H247       -4.5454  -18.8301  -48.4247 H         1 UNK         0.0800 
@<TRIPOS>BOND
     1    1    2 1    
     2    1  127 1    
     3    1  128 1    
     4    1  129 1    
     5    2    3 2    
     6    2    4 am   BACKBONE|DICT|INTERRES
     7    4    5 1    
     8    4  130 1    
     9    5    6 1    
    10    5   65 1    
    11    5  131 1    
    12    6    7 1    
    13    6  132 1    
    14    6  133 1    
    15    7    8 1    
    16    8    9 1    
    17    8  134 1    
    18    8  135 1    
    19    9   10 ar   
    20    9   14 ar   
    21   10   11 ar   
    22   10  136 1    
    23   11   12 ar   
    24   11  126 1    
    25   12   13 ar   
    26   12  137 1    
    27   13   14 ar   
    28   13   15 1    
    29   14  138 1    
    30   15   16 1    
    31   15  139 1    
    32   15  140 1    
    33   16   17 1    
    34   17   18 1    
    35   17  141 1    
    36   17  142 1    
    37   18   19 1    
    38   18   67 1    
    39   18  143 1    
    40   19   20 am   BACKBONE|DICT|INTERRES
    41   19  144 1    
    42   20   21 2    
    43   20   22 1    
    44   22   23 1    
    45   22   24 1    
    46   22  145 1    
    47   23  146 1    
    48   23  147 1    
    49   23  148 1    
    50   24   25 am   BACKBONE|DICT|INTERRES
    51   24  149 1    
    52   25   26 2    
    53   25   27 1    
    54   27   28 1    
    55   27   29 1    
    56   27  150 1    
    57   28  151 1    
    58   28  152 1    
    59   28  153 1    
    60   29   30 am   BACKBONE|DICT|INTERRES
    61   29  154 1    
    62   30   31 2    
    63   30   32 1    
    64   32   33 1    
    65   32   34 1    
    66   32  155 1    
    67   33  156 1    
    68   33  157 1    
    69   33  158 1    
    70   34   35 am   BACKBONE|DICT|INTERRES
    71   34  159 1    
    72   35   36 2    
    73   35   37 1    
    74   37   38 1    
    75   37   39 1    
    76   37  160 1    
    77   38  161 1    
    78   38  162 1    
    79   38  163 1    
    80   39   40 am   BACKBONE|DICT|INTERRES
    81   39  164 1    
    82   40   41 2    
    83   40   42 1    
    84   42   43 1    
    85   42   44 1    
    86   42  165 1    
    87   43  166 1    
    88   43  167 1    
    89   43  168 1    
    90   44   45 am   BACKBONE|DICT|INTERRES
    91   44  169 1    
    92   45   46 2    
    93   45   47 1    
    94   47   48 1    
    95   47   49 1    
    96   47  170 1    
    97   48  171 1    
    98   48  172 1    
    99   48  173 1    
   100   49   50 am   BACKBONE|DICT|INTERRES
   101   49  174 1    
   102   50   51 2    
   103   50   52 1    
   104   52   53 1    
   105   52   54 1    
   106   52  175 1    
   107   53  176 1    
   108   53  177 1    
   109   53  178 1    
   110   54   55 am   BACKBONE|DICT|INTERRES
   111   54  179 1    
   112   55   56 2    
   113   55   57 1    
   114   57   58 1    
   115   57   59 1    
   116   57  180 1    
   117   58  181 1    
   118   58  182 1    
   119   58  183 1    
   120   59   60 am   BACKBONE|DICT|INTERRES
   121   59  184 1    
   122   60   61 2    
   123   60   62 1    
   124   62   63 1    
   125   62   64 1    
   126   62  185 1    
   127   63  186 1    
   128   63  187 1    
   129   63  188 1    
   130   64   65 am   BACKBONE|DICT|INTERRES
   131   64  189 1    
   132   65   66 2    
   133   67   68 2    
   134   67   69 am   BACKBONE|DICT|INTERRES
   135   69   70 1    
   136   69  190 1    
   137   70   71 1    
   138   70   72 1    
   139   70  191 1    
   140   71  192 1    
   141   71  193 1    
   142   71  194 1    
   143   72   73 2    
   144   72   74 am   BACKBONE|DICT|INTERRES
   145   74   75 1    
   146   74  195 1    
   147   75   76 1    
   148   75   77 1    
   149   75  196 1    
   150   76  197 1    
   151   76  198 1    
   152   76  199 1    
   153   77   78 2    
   154   77   79 am   BACKBONE|DICT|INTERRES
   155   79   80 1    
   156   79  200 1    
   157   80   81 1    
   158   80   82 1    
   159   80  201 1    
   160   81  202 1    
   161   81  203 1    
   162   81  204 1    
   163   82   83 2    
   164   82   84 am   BACKBONE|DICT|INTERRES
   165   84   85 1    
   166   84  205 1    
   167   85   86 1    
   168   85   87 1    
   169   85  206 1    
   170   86  207 1    
   171   86  208 1    
   172   86  209 1    
   173   87   88 2    
   174   87   89 am   BACKBONE|DICT|INTERRES
   175   89   90 1    
   176   89  210 1    
   177   90   91 1    
   178   90   92 1    
   179   90  211 1    
   180   91  212 1    
   181   91  213 1    
   182   91  214 1    
   183   92   93 2    
   184   92   94 am   BACKBONE|DICT|INTERRES
   185   94   95 1    
   186   94  215 1    
   187   95   96 1    
   188   95   97 1    
   189   95  216 1    
   190   96  217 1    
   191   96  218 1    
   192   96  219 1    
   193   97   98 2    
   194   97   99 am   BACKBONE|DICT|INTERRES
   195   99  100 1    
   196   99  220 1    
   197  100  101 1    
   198  100  102 1    
   199  100  221 1    
   200  101  222 1    
   201  101  223 1    
   202  101  224 1    
   203  102  103 2    
   204  102  104 am   BACKBONE|DICT|INTERRES
   205  104  105 1    
   206  104  225 1    
   207  105  106 1    
   208  105  107 1    
   209  105  226 1    
   210  106  227 1    
   211  106  228 1    
   212  106  229 1    
   213  107  108 2    
   214  107  109 am   BACKBONE|DICT|INTERRES
   215  109  110 1    
   216  109  230 1    
   217  110  111 1    
   218  110  112 1    
   219  110  231 1    
   220  111  232 1    
   221  111  233 1    
   222  111  234 1    
   223  112  113 2    
   224  112  114 am   BACKBONE|DICT|INTERRES
   225  114  115 1    
   226  114  235 1    
   227  115  116 1    
   228  115  117 1    
   229  115  236 1    
   230  116  237 1    
   231  116  238 1    
   232  116  239 1    
   233  117  118 2    
   234  117  119 am   BACKBONE|DICT|INTERRES
   235  119  120 1    
   236  119  240 1    
   237  120  121 1    
   238  120  124 1    
   239  120  241 1    
   240  121  122 am   BACKBONE|DICT|INTERRES
   241  121  123 2    
   242  122  242 1    
   243  122  243 1    
   244  124  125 1    
   245  124  244 1    
   246  124  245 1    
   247  125  126 1    
   248  126  246 1    
   249  126  247 1    
@<TRIPOS>SUBSTRUCTURE
     1 UNK         1 GROUP             0       ****    0 ROOT    
