@<TRIPOS>MOLECULE
3R540
247   249    1
SMALL
USER_CHARGES


@<TRIPOS>ATOM
      1 CA          0.6605  -13.3644  -49.4413 C.3       0 UNK        -0.1800 
      2 C           2.1316  -13.0680  -49.1917 C.2       0 UNK         0.5000 
      3 O           2.6990  -12.2044  -49.8610 O.2       0 UNK        -0.5000 
      4 N           2.7490  -13.7697  -48.2336 N.am      1 UNK        -0.5000 
      5 CA          4.1538  -13.5780  -47.8432 C.3       1 UNK         0.1400 
      6 C6          4.8030  -14.8759  -47.3033 C.3       23 UNK        -0.0398 
      7 S7          4.8168  -16.2120  -48.5507 S.3       23 UNK        -0.2404 
      8 C8          3.6627  -17.4099  -47.8140 C.3       23 UNK        -0.0205 
      9 C9          2.7478  -18.0385  -48.8536 C.ar      23 UNK        -0.0193 
     10 C10         1.7992  -17.2491  -49.5062 C.ar      23 UNK        -0.1150 
     11 C11         0.9344  -17.8063  -50.4487 C.ar      23 UNK        -0.0193 
     12 C12         1.0020  -19.1761  -50.7184 C.ar      23 UNK        -0.1150 
     13 C13         1.9370  -19.9857  -50.0643 C.ar      23 UNK        -0.0193 
     14 C14         2.8189  -19.4044  -49.1431 C.ar      23 UNK        -0.1150 
     15 C15         2.0167  -21.4701  -50.4123 C.3       23 UNK        -0.0205 
     16 S16         2.2881  -22.5598  -48.9750 S.3       23 UNK        -0.2404 
     17 C17         0.6961  -22.4558  -48.0890 C.3       23 UNK        -0.0398 
     18 CA          0.3167  -23.8121  -47.4455 C.3       11 UNK         0.1400 
     19 N           1.3315  -24.2778  -46.4950 N.am      11 UNK        -0.5000 
     20 C           1.4323  -25.5288  -46.0300 C.2       10 UNK         0.5000 
     21 O           0.6664  -26.4379  -46.3453 O.2       10 UNK        -0.5000 
     22 CA          2.5556  -25.7938  -45.0108 C.3       10 UNK         0.1400 
     23 CB          3.8896  -26.0426  -45.7300 C.3       10 UNK        -0.1800 
     24 N           2.7155  -24.6936  -44.0579 N.am      10 UNK        -0.5000 
     25 C           1.8088  -24.3666  -43.1264 C.2       9 UNK         0.5000 
     26 O           0.7634  -24.9890  -42.9449 O.2       9 UNK        -0.5000 
     27 CA          2.0904  -23.0981  -42.2982 C.3       9 UNK         0.1400 
     28 CB          2.9945  -23.4243  -41.1003 C.3       9 UNK        -0.1800 
     29 N           2.6852  -22.0047  -43.0755 N.am      9 UNK        -0.5000 
     30 C           2.1197  -21.4408  -44.1510 C.2       8 UNK         0.5000 
     31 O           1.0543  -21.8224  -44.6386 O.2       8 UNK        -0.5000 
     32 CA          2.9022  -20.3035  -44.8309 C.3       8 UNK         0.1400 
     33 CB          4.0042  -20.8910  -45.7268 C.3       8 UNK        -0.1800 
     34 N           2.0169  -19.4616  -45.6405 N.am      8 UNK        -0.5000 
     35 C           1.1174  -18.6129  -45.1269 C.2       7 UNK         0.5000 
     36 O           1.0312  -18.3567  -43.9225 O.2       7 UNK        -0.5000 
     37 CA          0.1324  -17.9710  -46.1209 C.3       7 UNK         0.1400 
     38 CB         -1.0334  -18.9262  -46.4239 C.3       7 UNK        -0.1800 
     39 N          -0.4049  -16.7316  -45.5670 N.am      7 UNK        -0.5000 
     40 C           0.1452  -15.5240  -45.7269 C.2       6 UNK         0.5000 
     41 O           1.1058  -15.2889  -46.4646 O.2       6 UNK        -0.5000 
     42 CA         -0.4707  -14.3828  -44.8983 C.3       6 UNK         0.1400 
     43 CB          0.5698  -13.7981  -43.9343 C.3       6 UNK        -0.1800 
     44 N          -0.9937  -13.3141  -45.7460 N.am      6 UNK        -0.5000 
     45 C          -2.0554  -13.4413  -46.5524 C.2       5 UNK         0.5000 
     46 O          -2.7021  -14.4835  -46.6729 O.2       5 UNK        -0.5000 
     47 CA         -2.4804  -12.1672  -47.3094 C.3       5 UNK         0.1400 
     48 CB         -3.7151  -12.3772  -48.2105 C.3       5 UNK        -0.1800 
     49 N          -2.6803  -11.0251  -46.4118 N.am      5 UNK        -0.5000 
     50 C          -3.5266  -10.9319  -45.3722 C.2       4 UNK         0.5000 
     51 O          -4.3049  -11.8248  -45.0333 O.2       4 UNK        -0.5000 
     52 CA         -3.5082   -9.5942  -44.5979 C.3       4 UNK         0.1400 
     53 CB         -3.9983   -9.7285  -43.1400 C.3       4 UNK        -0.1800 
     54 N          -2.2113   -8.9071  -44.6699 N.am      4 UNK        -0.5000 
     55 C          -1.0454   -9.3216  -44.1532 C.2       3 UNK         0.5000 
     56 O          -0.9146  -10.3094  -43.4270 O.2       3 UNK        -0.5000 
     57 CA          0.1806   -8.4644  -44.5247 C.3       3 UNK         0.1400 
     58 CB          0.3616   -7.3259  -43.5084 C.3       3 UNK        -0.1800 
     59 N           1.4361   -9.2142  -44.6181 N.am      3 UNK        -0.5000 
     60 C           1.6610  -10.3148  -45.3486 C.2       2 UNK         0.5000 
     61 O           0.8052  -10.8866  -46.0356 O.2       2 UNK        -0.5000 
     62 CA          3.1021  -10.8513  -45.3138 C.3       2 UNK         0.1400 
     63 CB          3.5463  -11.2577  -43.8941 C.3       2 UNK        -0.1800 
     64 N           3.2013  -11.9857  -46.2235 N.am      2 UNK        -0.5000 
     65 C           4.3109  -12.4242  -46.8281 C.2       1 UNK         0.5000 
     66 O           5.4288  -11.9488  -46.6223 O.2       1 UNK        -0.5000 
     67 C          -1.0808  -23.7488  -46.7973 C.2       11 UNK         0.5000 
     68 O          -2.0708  -24.0023  -47.4817 O.2       11 UNK        -0.5000 
     69 N          -1.1266  -23.4265  -45.4971 N.am      12 UNK        -0.5000 
     70 CA         -2.3258  -23.4208  -44.6616 C.3       12 UNK         0.1400 
     71 CB         -2.0596  -22.5709  -43.4103 C.3       12 UNK        -0.1800 
     72 C          -2.7987  -24.8341  -44.2757 C.2       12 UNK         0.5000 
     73 O          -4.0037  -25.0441  -44.1324 O.2       12 UNK        -0.5000 
     74 N          -1.8571  -25.7746  -44.1088 N.am      13 UNK        -0.5000 
     75 CA         -2.1403  -27.1957  -43.8930 C.3       13 UNK         0.1400 
     76 CB         -0.8772  -27.9029  -43.3783 C.3       13 UNK        -0.1800 
     77 C          -2.6686  -27.8734  -45.1713 C.2       13 UNK         0.5000 
     78 O          -3.5832  -28.6955  -45.0964 O.2       13 UNK        -0.5000 
     79 N          -2.0955  -27.4934  -46.3198 N.am      14 UNK        -0.5000 
     80 CA         -2.5709  -27.8285  -47.6594 C.3       14 UNK         0.1400 
     81 CB         -1.4085  -27.6146  -48.6467 C.3       14 UNK        -0.1800 
     82 C          -3.8022  -26.9863  -48.0594 C.2       14 UNK         0.5000 
     83 O          -4.2869  -26.1596  -47.2846 O.2       14 UNK        -0.5000 
     84 N          -4.2842  -27.1962  -49.2901 N.am      15 UNK        -0.5000 
     85 CA         -5.3577  -26.4006  -49.8905 C.3       15 UNK         0.1400 
     86 CB         -5.9923  -27.2058  -51.0349 C.3       15 UNK        -0.1800 
     87 C          -4.8797  -25.0293  -50.4098 C.2       15 UNK         0.5000 
     88 O          -5.7188  -24.1689  -50.6705 O.2       15 UNK        -0.5000 
     89 N          -3.5597  -24.8524  -50.5764 N.am      16 UNK        -0.5000 
     90 CA         -2.9111  -23.7182  -51.2437 C.3       16 UNK         0.1400 
     91 CB         -1.3889  -23.9180  -51.2150 C.3       16 UNK        -0.1800 
     92 C          -3.2833  -22.3233  -50.7061 C.2       16 UNK         0.5000 
     93 O          -3.3585  -21.3825  -51.4942 O.2       16 UNK        -0.5000 
     94 N          -3.5296  -22.2115  -49.3942 N.am      17 UNK        -0.5000 
     95 CA         -3.9787  -20.9733  -48.7537 C.3       17 UNK         0.1400 
     96 CB         -3.8657  -21.1172  -47.2311 C.3       17 UNK        -0.1800 
     97 C          -5.4124  -20.5541  -49.1414 C.2       17 UNK         0.5000 
     98 O          -5.7144  -19.3610  -49.1127 O.2       17 UNK        -0.5000 
     99 N          -6.2687  -21.5307  -49.4700 N.am      18 UNK        -0.5000 
    100 CA        -7.6690  -21.3217  -49.8430 C.3       18 UNK         0.1400 
    101 CB        -8.5226  -22.4304  -49.2070 C.3       18 UNK        -0.1800 
    102 C         -7.8607  -21.3092  -51.3691 C.2       18 UNK         0.5000 
    103 O         -8.7150  -20.5755  -51.8687 O.2       18 UNK        -0.5000 
    104 N         -7.0750  -22.1295  -52.0774 N.am      19 UNK        -0.5000 
    105 CA        -7.0484  -22.2496  -53.5330 C.3       19 UNK         0.1400 
    106 CB        -6.2359  -23.5047  -53.8955 C.3       19 UNK        -0.1800 
    107 C         -6.4588  -21.0044  -54.2229 C.2       19 UNK         0.5000 
    108 O         -5.8953  -20.1253  -53.5661 O.2       19 UNK        -0.5000 
    109 N         -6.5476  -20.9792  -55.5598 N.am      20 UNK        -0.5000 
    110 CA        -6.0681  -19.9073  -56.4443 C.3       20 UNK         0.1400 
    111 CB        -6.4527  -20.2578  -57.8905 C.3       20 UNK        -0.1800 
    112 C         -4.5583  -19.5898  -56.3488 C.2       20 UNK         0.5000 
    113 O         -4.1294  -18.5483  -56.8469 O.2       20 UNK        -0.5000 
    114 N         -3.7857  -20.4700  -55.6970 N.am      21 UNK        -0.5000 
    115 CA        -2.3862  -20.2626  -55.3288 C.3       21 UNK         0.1400 
    116 CB        -1.8113  -21.5821  -54.7899 C.3       21 UNK        -0.1800 
    117 C         -2.1733  -19.1195  -54.3125 C.2       21 UNK         0.5000 
    118 O         -1.0813  -18.5513  -54.2909 O.2       21 UNK        -0.5000 
    119 N         -3.1977  -18.7874  -53.5131 N.am      22 UNK        -0.5000 
    120 CA        -3.1763  -17.6726  -52.5519 C.3       22 UNK         0.1400 
    121 C         -4.5340  -16.9273  -52.4014 C.2       22 UNK         0.5000 
    122 N         -5.6678  -17.4918  -52.7959 N.am      22 UNK        -0.7600 
    123 O         -4.5613  -15.7866  -51.9483 O.2       22 UNK        -0.5000 
    124 C124       -2.5794  -18.0995  -51.1820 C.3       23 UNK        -0.0398 
    125 S125       -1.6410  -16.7669  -50.3612 S.3       23 UNK        -0.2404 
    126 C126       -0.0338  -16.9089  -51.2008 C.3       23 UNK        -0.0205 
    127 H127        0.2668  -14.1125  -48.7532 H         1 UNK         0.0600 
    128 H128        0.5201  -13.7273  -50.4585 H         1 UNK         0.0600 
    129 H129        0.0789  -12.4511  -49.3296 H         1 UNK         0.0600 
    130 H130        2.2191  -14.4398  -47.6783 H         1 UNK         0.3000 
    131 H131        4.7217  -13.2832  -48.7284 H         1 UNK         0.0600 
    132 H132        5.8420  -14.6902  -47.0251 H         1 UNK         0.0800 
    133 H133        4.3051  -15.2045  -46.3898 H         1 UNK         0.0800 
    134 H134        4.2443  -18.1685  -47.2924 H         1 UNK         0.0800 
    135 H135        3.0417  -16.9299  -47.0594 H         1 UNK         0.0800 
    136 H136        1.7431  -16.1933  -49.2858 H         1 UNK         0.1150 
    137 H137        0.3405  -19.6068  -51.4569 H         1 UNK         0.1150 
    138 H138        3.5623  -20.0161  -48.6524 H         1 UNK         0.1150 
    139 H139        1.1161  -21.7949  -50.9350 H         1 UNK         0.0800 
    140 H140        2.8426  -21.6104  -51.1106 H         1 UNK         0.0800 
    141 H141       -0.0802  -22.1306  -48.7841 H         1 UNK         0.0800 
    142 H142        0.7769  -21.6768  -47.3309 H         1 UNK         0.0800 
    143 H143        0.2593  -24.5533  -48.2450 H         1 UNK         0.0600 
    144 H144        1.9743  -23.5799  -46.1533 H         1 UNK         0.3000 
    145 H145        2.2945  -26.6954  -44.4524 H         1 UNK         0.0600 
    146 H146        4.6770  -26.3013  -45.0219 H         1 UNK         0.0600 
    147 H147        3.8033  -26.8703  -46.4353 H         1 UNK         0.0600 
    148 H148        4.2164  -25.1661  -46.2911 H         1 UNK         0.0600 
    149 H149        3.5487  -24.1302  -44.1405 H         1 UNK         0.3000 
    150 H150        1.1328  -22.7419  -41.9131 H         1 UNK         0.0600 
    151 H151        3.9856  -23.7495  -41.4192 H         1 UNK         0.0600 
    152 H152        2.5659  -24.2235  -40.4940 H         1 UNK         0.0600 
    153 H153        3.1177  -22.5572  -40.4511 H         1 UNK         0.0600 
    154 H154        3.5699  -21.6486  -42.7432 H         1 UNK         0.3000 
    155 H155        3.3660  -19.6875  -44.0577 H         1 UNK         0.0600 
    156 H156        3.5898  -21.4861  -46.5398 H         1 UNK         0.0600 
    157 H157        4.6715  -21.5391  -45.1574 H         1 UNK         0.0600 
    158 H158        4.6233  -20.1087  -46.1624 H         1 UNK         0.0600 
    159 H159        2.0023  -19.6493  -46.6314 H         1 UNK         0.3000 
    160 H160        0.6510  -17.7586  -47.0543 H         1 UNK         0.0600 
    161 H161       -1.5767  -19.2028  -45.5193 H         1 UNK         0.0600 
    162 H162       -0.6762  -19.8467  -46.8849 H         1 UNK         0.0600 
    163 H163       -1.7422  -18.4737  -47.1182 H         1 UNK         0.0600 
    164 H164       -1.1694  -16.8361  -44.9165 H         1 UNK         0.3000 
    165 H165       -1.2987  -14.7739  -44.3032 H         1 UNK         0.0600 
    166 H166        0.1573  -12.9734  -43.3525 H         1 UNK         0.0600 
    167 H167        0.9189  -14.5550  -43.2310 H         1 UNK         0.0600 
    168 H168        1.4396  -13.4287  -44.4750 H         1 UNK         0.0600 
    169 H169       -0.5028  -12.4263  -45.7164 H         1 UNK         0.3000 
    170 H170       -1.6460  -11.8989  -47.9559 H         1 UNK         0.0600 
    171 H171       -3.5329  -13.1652  -48.9426 H         1 UNK         0.0600 
    172 H172       -4.5953  -12.6640  -47.6343 H         1 UNK         0.0600 
    173 H173       -3.9578  -11.4702  -48.7641 H         1 UNK         0.0600 
    174 H174       -2.0671  -10.2396  -46.5754 H         1 UNK         0.3000 
    175 H175       -4.2168   -8.9462  -45.1157 H         1 UNK         0.0600 
    176 H176       -3.9561   -8.7719  -42.6194 H         1 UNK         0.0600 
    177 H177       -5.0338  -10.0688  -43.1071 H         1 UNK         0.0600 
    178 H178       -3.4042  -10.4464  -42.5741 H         1 UNK         0.0600 
    179 H179       -2.2082   -8.0655  -45.2301 H         1 UNK         0.3000 
    180 H180        0.0027   -8.0247  -45.5081 H         1 UNK         0.0600 
    181 H181        0.5858   -7.7104  -42.5124 H         1 UNK         0.0600 
    182 H182       -0.5425   -6.7206  -43.4297 H         1 UNK         0.0600 
    183 H183        1.1717   -6.6578  -43.8015 H         1 UNK         0.0600 
    184 H184        2.2011   -8.8433  -44.0745 H         1 UNK         0.3000 
    185 H185        3.7539  -10.0545  -45.6782 H         1 UNK         0.0600 
    186 H186        3.5669  -10.3968  -43.2256 H         1 UNK         0.0600 
    187 H187        2.8786  -11.9951  -43.4509 H         1 UNK         0.0600 
    188 H188        4.5514  -11.6795  -43.8979 H         1 UNK         0.0600 
    189 H189        2.3082  -12.3745  -46.4996 H         1 UNK         0.3000 
    190 H190       -0.2647  -23.1280  -45.0488 H         1 UNK         0.3000 
    191 H191       -3.1356  -22.9534  -45.2206 H         1 UNK         0.0600 
    192 H192       -1.7804  -21.5517  -43.6791 H         1 UNK         0.0600 
    193 H193       -2.9487  -22.5114  -42.7815 H         1 UNK         0.0600 
    194 H194       -1.2551  -22.9891  -42.8049 H         1 UNK         0.0600 
    195 H195       -0.8819  -25.5024  -44.1431 H         1 UNK         0.3000 
    196 H196       -2.9118  -27.2806  -43.1248 H         1 UNK         0.0600 
    197 H197       -1.0703  -28.9603  -43.1937 H         1 UNK         0.0600 
    198 H198       -0.5363  -27.4657  -42.4397 H         1 UNK         0.0600 
    199 H199       -0.0574  -27.8388  -44.0940 H         1 UNK         0.0600 
    200 H200       -1.3178  -26.8445  -46.2748 H         1 UNK         0.3000 
    201 H201       -2.8589  -28.8814  -47.6777 H         1 UNK         0.0600 
    202 H202       -1.6623  -27.9572  -49.6500 H         1 UNK         0.0600 
    203 H203       -1.1311  -26.5622  -48.7162 H         1 UNK         0.0600 
    204 H204       -0.5229  -28.1700  -48.3367 H         1 UNK         0.0600 
    205 H205       -3.8649  -27.9050  -49.8748 H         1 UNK         0.3000 
    206 H206       -6.1290  -26.2152  -49.1398 H         1 UNK         0.0600 
    207 H207       -6.3939  -28.1534  -50.6753 H         1 UNK         0.0600 
    208 H208       -6.8184  -26.6563  -51.4886 H         1 UNK         0.0600 
    209 H209       -5.2711  -27.4231  -51.8238 H         1 UNK         0.0600 
    210 H210       -2.9530  -25.6069  -50.2961 H         1 UNK         0.3000 
    211 H211       -3.2277  -23.7470  -52.2873 H         1 UNK         0.0600 
    212 H212       -1.0125  -23.9680  -50.1945 H         1 UNK         0.0600 
    213 H213       -0.8765  -23.0967  -51.7176 H         1 UNK         0.0600 
    214 H214       -1.1009  -24.8378  -51.7241 H         1 UNK         0.0600 
    215 H215       -3.3871  -23.0193  -48.7965 H         1 UNK         0.3000 
    216 H216       -3.3017  -20.1743  -49.0579 H         1 UNK         0.0600 
    217 H217       -4.1953  -20.2093  -46.7243 H         1 UNK         0.0600 
    218 H218       -2.8338  -21.2945  -46.9317 H         1 UNK         0.0600 
    219 H219       -4.4775  -21.9418  -46.8637 H         1 UNK         0.0600 
    220 H220       -5.9226  -22.4810  -49.5370 H         1 UNK         0.3000 
    221 H221       -8.0216  -20.3636  -49.4553 H         1 UNK         0.0600 
    222 H222       -8.2230  -23.4204  -49.5536 H         1 UNK         0.0600 
    223 H223       -8.4384  -22.4167  -48.1202 H         1 UNK         0.0600 
    224 H224       -9.5773  -22.3010  -49.4532 H         1 UNK         0.0600 
    225 H225       -6.4344  -22.7334  -51.5704 H         1 UNK         0.3000 
    226 H226       -8.0744  -22.3785  -53.8832 H         1 UNK         0.0600 
    227 H227       -6.2514  -23.6973  -54.9686 H         1 UNK         0.0600 
    228 H228       -5.1930  -23.4051  -53.5941 H         1 UNK         0.0600 
    229 H229       -6.6404  -24.3911  -53.4060 H         1 UNK         0.0600 
    230 H230       -7.0064  -21.7508  -56.0225 H         1 UNK         0.3000 
    231 H231       -6.5978  -18.9952  -56.1624 H         1 UNK         0.0600 
    232 H232       -5.9746  -21.1812  -58.2198 H         1 UNK         0.0600 
    233 H233       -6.1511  -19.4682  -58.5803 H         1 UNK         0.0600 
    234 H234       -7.5309  -20.3806  -57.9947 H         1 UNK         0.0600 
    235 H235       -4.2311  -21.2924  -55.3199 H         1 UNK         0.3000 
    236 H236       -1.8380  -19.9973  -56.2351 H         1 UNK         0.0600 
    237 H237       -1.8537  -22.3682  -55.5438 H         1 UNK         0.0600 
    238 H238       -0.7660  -21.4657  -54.5005 H         1 UNK         0.0600 
    239 H239       -2.3572  -21.9288  -53.9130 H         1 UNK         0.0600 
    240 H240       -4.0586  -19.3211  -53.5643 H         1 UNK         0.3000 
    241 H241       -2.5186  -16.9155  -52.9835 H         1 UNK         0.0600 
    242 H242       -5.7144  -18.4608  -53.1075 H         1 UNK         0.3800 
    243 H243       -6.5240  -16.9714  -52.6958 H         1 UNK         0.3800 
    244 H244       -1.9172  -18.9577  -51.2963 H         1 UNK         0.0800 
    245 H245       -3.3711  -18.4330  -50.5117 H         1 UNK         0.0800 
    246 H246       -0.1669  -17.2712  -52.2196 H         1 UNK         0.0800 
    247 H247        0.3961  -15.9125  -51.3008 H         1 UNK         0.0800 
@<TRIPOS>BOND
     1    1    2 1    
     2    1  127 1    
     3    1  128 1    
     4    1  129 1    
     5    2    3 2    
     6    2    4 am   BACKBONE|DICT|INTERRES
     7    4    5 1    
     8    4  130 1    
     9    5    6 1    
    10    5   65 1    
    11    5  131 1    
    12    6    7 1    
    13    6  132 1    
    14    6  133 1    
    15    7    8 1    
    16    8    9 1    
    17    8  134 1    
    18    8  135 1    
    19    9   10 ar   
    20    9   14 ar   
    21   10   11 ar   
    22   10  136 1    
    23   11   12 ar   
    24   11  126 1    
    25   12   13 ar   
    26   12  137 1    
    27   13   14 ar   
    28   13   15 1    
    29   14  138 1    
    30   15   16 1    
    31   15  139 1    
    32   15  140 1    
    33   16   17 1    
    34   17   18 1    
    35   17  141 1    
    36   17  142 1    
    37   18   19 1    
    38   18   67 1    
    39   18  143 1    
    40   19   20 am   BACKBONE|DICT|INTERRES
    41   19  144 1    
    42   20   21 2    
    43   20   22 1    
    44   22   23 1    
    45   22   24 1    
    46   22  145 1    
    47   23  146 1    
    48   23  147 1    
    49   23  148 1    
    50   24   25 am   BACKBONE|DICT|INTERRES
    51   24  149 1    
    52   25   26 2    
    53   25   27 1    
    54   27   28 1    
    55   27   29 1    
    56   27  150 1    
    57   28  151 1    
    58   28  152 1    
    59   28  153 1    
    60   29   30 am   BACKBONE|DICT|INTERRES
    61   29  154 1    
    62   30   31 2    
    63   30   32 1    
    64   32   33 1    
    65   32   34 1    
    66   32  155 1    
    67   33  156 1    
    68   33  157 1    
    69   33  158 1    
    70   34   35 am   BACKBONE|DICT|INTERRES
    71   34  159 1    
    72   35   36 2    
    73   35   37 1    
    74   37   38 1    
    75   37   39 1    
    76   37  160 1    
    77   38  161 1    
    78   38  162 1    
    79   38  163 1    
    80   39   40 am   BACKBONE|DICT|INTERRES
    81   39  164 1    
    82   40   41 2    
    83   40   42 1    
    84   42   43 1    
    85   42   44 1    
    86   42  165 1    
    87   43  166 1    
    88   43  167 1    
    89   43  168 1    
    90   44   45 am   BACKBONE|DICT|INTERRES
    91   44  169 1    
    92   45   46 2    
    93   45   47 1    
    94   47   48 1    
    95   47   49 1    
    96   47  170 1    
    97   48  171 1    
    98   48  172 1    
    99   48  173 1    
   100   49   50 am   BACKBONE|DICT|INTERRES
   101   49  174 1    
   102   50   51 2    
   103   50   52 1    
   104   52   53 1    
   105   52   54 1    
   106   52  175 1    
   107   53  176 1    
   108   53  177 1    
   109   53  178 1    
   110   54   55 am   BACKBONE|DICT|INTERRES
   111   54  179 1    
   112   55   56 2    
   113   55   57 1    
   114   57   58 1    
   115   57   59 1    
   116   57  180 1    
   117   58  181 1    
   118   58  182 1    
   119   58  183 1    
   120   59   60 am   BACKBONE|DICT|INTERRES
   121   59  184 1    
   122   60   61 2    
   123   60   62 1    
   124   62   63 1    
   125   62   64 1    
   126   62  185 1    
   127   63  186 1    
   128   63  187 1    
   129   63  188 1    
   130   64   65 am   BACKBONE|DICT|INTERRES
   131   64  189 1    
   132   65   66 2    
   133   67   68 2    
   134   67   69 am   BACKBONE|DICT|INTERRES
   135   69   70 1    
   136   69  190 1    
   137   70   71 1    
   138   70   72 1    
   139   70  191 1    
   140   71  192 1    
   141   71  193 1    
   142   71  194 1    
   143   72   73 2    
   144   72   74 am   BACKBONE|DICT|INTERRES
   145   74   75 1    
   146   74  195 1    
   147   75   76 1    
   148   75   77 1    
   149   75  196 1    
   150   76  197 1    
   151   76  198 1    
   152   76  199 1    
   153   77   78 2    
   154   77   79 am   BACKBONE|DICT|INTERRES
   155   79   80 1    
   156   79  200 1    
   157   80   81 1    
   158   80   82 1    
   159   80  201 1    
   160   81  202 1    
   161   81  203 1    
   162   81  204 1    
   163   82   83 2    
   164   82   84 am   BACKBONE|DICT|INTERRES
   165   84   85 1    
   166   84  205 1    
   167   85   86 1    
   168   85   87 1    
   169   85  206 1    
   170   86  207 1    
   171   86  208 1    
   172   86  209 1    
   173   87   88 2    
   174   87   89 am   BACKBONE|DICT|INTERRES
   175   89   90 1    
   176   89  210 1    
   177   90   91 1    
   178   90   92 1    
   179   90  211 1    
   180   91  212 1    
   181   91  213 1    
   182   91  214 1    
   183   92   93 2    
   184   92   94 am   BACKBONE|DICT|INTERRES
   185   94   95 1    
   186   94  215 1    
   187   95   96 1    
   188   95   97 1    
   189   95  216 1    
   190   96  217 1    
   191   96  218 1    
   192   96  219 1    
   193   97   98 2    
   194   97   99 am   BACKBONE|DICT|INTERRES
   195   99  100 1    
   196   99  220 1    
   197  100  101 1    
   198  100  102 1    
   199  100  221 1    
   200  101  222 1    
   201  101  223 1    
   202  101  224 1    
   203  102  103 2    
   204  102  104 am   BACKBONE|DICT|INTERRES
   205  104  105 1    
   206  104  225 1    
   207  105  106 1    
   208  105  107 1    
   209  105  226 1    
   210  106  227 1    
   211  106  228 1    
   212  106  229 1    
   213  107  108 2    
   214  107  109 am   BACKBONE|DICT|INTERRES
   215  109  110 1    
   216  109  230 1    
   217  110  111 1    
   218  110  112 1    
   219  110  231 1    
   220  111  232 1    
   221  111  233 1    
   222  111  234 1    
   223  112  113 2    
   224  112  114 am   BACKBONE|DICT|INTERRES
   225  114  115 1    
   226  114  235 1    
   227  115  116 1    
   228  115  117 1    
   229  115  236 1    
   230  116  237 1    
   231  116  238 1    
   232  116  239 1    
   233  117  118 2    
   234  117  119 am   BACKBONE|DICT|INTERRES
   235  119  120 1    
   236  119  240 1    
   237  120  121 1    
   238  120  124 1    
   239  120  241 1    
   240  121  122 am   BACKBONE|DICT|INTERRES
   241  121  123 2    
   242  122  242 1    
   243  122  243 1    
   244  124  125 1    
   245  124  244 1    
   246  124  245 1    
   247  125  126 1    
   248  126  246 1    
   249  126  247 1    
@<TRIPOS>SUBSTRUCTURE
     1 UNK         1 GROUP             0       ****    0 ROOT    
