@<TRIPOS>MOLECULE
3R540
247   249    1
SMALL
USER_CHARGES


@<TRIPOS>ATOM
      1 CA         -1.0467  -15.0865  -51.5089 C.3       0 UNK        -0.1800 
      2 C          -1.1426  -14.3688  -50.1702 C.2       0 UNK         0.5000 
      3 O          -1.6449  -13.2468  -50.1090 O.2       0 UNK        -0.5000 
      4 N          -0.6545  -15.0180  -49.1054 N.am      1 UNK        -0.5000 
      5 CA         -0.6910  -14.5677  -47.7053 C.3       1 UNK         0.1400 
      6 C6         -2.1239  -14.4461  -47.1143 C.3       23 UNK        -0.0398 
      7 S7         -3.2498  -15.8566  -47.4250 S.3       23 UNK        -0.2404 
      8 C8         -2.3335  -17.3140  -46.8215 C.3       23 UNK        -0.0205 
      9 C9         -1.4767  -17.9513  -47.9077 C.ar      23 UNK        -0.0193 
     10 C10        -2.0822  -18.5118  -49.0362 C.ar      23 UNK        -0.1150 
     11 C11        -1.3121  -19.1160  -50.0323 C.ar      23 UNK        -0.0193 
     12 C12         0.0789  -19.1400  -49.9047 C.ar      23 UNK        -0.1150 
     13 C13         0.6993  -18.5748  -48.7881 C.ar      23 UNK        -0.0193 
     14 C14        -0.0847  -17.9969  -47.7848 C.ar      23 UNK        -0.1150 
     15 C15         2.2170  -18.5768  -48.6806 C.3       23 UNK        -0.0205 
     16 S16         2.8773  -20.2073  -48.2139 S.3       23 UNK        -0.2404 
     17 C17         2.3120  -20.3427  -46.4859 C.3       23 UNK        -0.0398 
     18 CA          1.5606  -21.6562  -46.1687 C.3       11 UNK         0.1400 
     19 N           1.4979  -21.8641  -44.7189 N.am      11 UNK        -0.5000 
     20 C           1.0658  -22.9666  -44.0921 C.2       10 UNK         0.5000 
     21 O           0.6459  -23.9674  -44.6734 O.2       10 UNK        -0.5000 
     22 CA          1.0769  -22.9188  -42.5547 C.3       10 UNK         0.1400 
     23 CB          2.4946  -23.1421  -42.0055 C.3       10 UNK        -0.1800 
     24 N           0.5582  -21.6414  -42.0644 N.am      10 UNK        -0.5000 
     25 C          -0.7463  -21.3575  -41.9476 C.2       9 UNK         0.5000 
     26 O          -1.6427  -22.1746  -42.1583 O.2       9 UNK        -0.5000 
     27 CA         -1.1208  -19.9190  -41.5384 C.3       9 UNK         0.1400 
     28 CB         -1.2218  -19.8079  -40.0097 C.3       9 UNK        -0.1800 
     29 N          -0.1920  -18.9013  -42.0346 N.am      9 UNK        -0.5000 
     30 C           0.0248  -18.6314  -43.3298 C.2       8 UNK         0.5000 
     31 O          -0.5513  -19.1996  -44.2543 O.2       8 UNK        -0.5000 
     32 CA          1.1115  -17.5939  -43.6552 C.3       8 UNK         0.1400 
     33 CB          0.5411  -16.1703  -43.5908 C.3       8 UNK        -0.1800 
     34 N           2.2837  -17.6984  -42.7875 N.am      8 UNK        -0.5000 
     35 C           3.0611  -18.7821  -42.6536 C.2       7 UNK         0.5000 
     36 O           2.8649  -19.8423  -43.2467 O.2       7 UNK        -0.5000 
     37 CA          4.2263  -18.6747  -41.6594 C.3       7 UNK         0.1400 
     38 CB          5.4115  -17.9200  -42.2801 C.3       7 UNK        -0.1800 
     39 N           3.8062  -18.0018  -40.4326 N.am      7 UNK        -0.5000 
     40 C           3.1700  -18.6053  -39.4205 C.2       6 UNK         0.5000 
     41 O           2.9256  -19.8118  -39.3881 O.2       6 UNK        -0.5000 
     42 CA          2.7167  -17.7079  -38.2522 C.3       6 UNK         0.1400 
     43 CB          3.8303  -17.5901  -37.2006 C.3       6 UNK        -0.1800 
     44 N           2.3089  -16.3648  -38.6715 N.am      6 UNK        -0.5000 
     45 C           1.2306  -16.1025  -39.4220 C.2       5 UNK         0.5000 
     46 O           0.4723  -16.9692  -39.8576 O.2       5 UNK        -0.5000 
     47 CA          0.9781  -14.6252  -39.7818 C.3       5 UNK         0.1400 
     48 CB          0.2767  -13.9047  -38.6202 C.3       5 UNK        -0.1800 
     49 N           2.1620  -13.8535  -40.1852 N.am      5 UNK        -0.5000 
     50 C           3.0701  -14.2231  -41.0985 C.2       4 UNK         0.5000 
     51 O           3.1437  -15.3558  -41.5767 O.2       4 UNK        -0.5000 
     52 CA          4.0808  -13.1541  -41.5545 C.3       4 UNK         0.1400 
     53 CB          5.3334  -13.1942  -40.6665 C.3       4 UNK        -0.1800 
     54 N           4.4795  -13.3661  -42.9495 N.am      4 UNK        -0.5000 
     55 C           3.6466  -13.2973  -43.9975 C.2       3 UNK         0.5000 
     56 O           2.4811  -12.9004  -43.9173 O.2       3 UNK        -0.5000 
     57 CA          4.2084  -13.8050  -45.3418 C.3       3 UNK         0.1400 
     58 CB          4.3541  -15.3372  -45.3222 C.3       3 UNK        -0.1800 
     59 N           3.3601  -13.4442  -46.4775 N.am      3 UNK        -0.5000 
     60 C           3.2127  -12.2115  -46.9805 C.2       2 UNK         0.5000 
     61 O           3.8436  -11.2311  -46.5820 O.2       2 UNK        -0.5000 
     62 CA          2.2058  -12.0464  -48.1381 C.3       2 UNK         0.1400 
     63 CB          2.9450  -11.9164  -49.4792 C.3       2 UNK        -0.1800 
     64 N           1.2488  -13.1528  -48.2367 N.am      2 UNK        -0.5000 
     65 C           0.1691  -13.3055  -47.4557 C.2       1 UNK         0.5000 
     66 O          -0.1421  -12.5094  -46.5689 O.2       1 UNK        -0.5000 
     67 C           0.1731  -21.7324  -46.8494 C.2       11 UNK         0.5000 
     68 O           0.0838  -22.1825  -47.9917 O.2       11 UNK        -0.5000 
     69 N          -0.8909  -21.3767  -46.1122 N.am      12 UNK        -0.5000 
     70 CA         -2.2997  -21.4467  -46.5131 C.3       12 UNK         0.1400 
     71 CB         -3.1771  -20.9730  -45.3439 C.3       12 UNK        -0.1800 
     72 C          -2.7856  -22.8253  -47.0078 C.2       12 UNK         0.5000 
     73 O          -3.7896  -22.8906  -47.7211 O.2       12 UNK        -0.5000 
     74 N          -2.0497  -23.8933  -46.6639 N.am      13 UNK        -0.5000 
     75 CA         -2.2154  -25.2477  -47.1927 C.3       13 UNK         0.1400 
     76 CB         -1.2171  -26.1816  -46.4935 C.3       13 UNK        -0.1800 
     77 C          -2.0589  -25.3422  -48.7259 C.2       13 UNK         0.5000 
     78 O          -2.6193  -26.2583  -49.3276 O.2       13 UNK        -0.5000 
     79 N          -1.3639  -24.3763  -49.3468 N.am      14 UNK        -0.5000 
     80 CA         -1.2273  -24.2064  -50.7969 C.3       14 UNK         0.1400 
     81 CB          0.0411  -23.3805  -51.0810 C.3       14 UNK        -0.1800 
     82 C          -2.4873  -23.6034  -51.4675 C.2       14 UNK         0.5000 
     83 O          -2.3618  -22.8085  -52.3981 O.2       14 UNK        -0.5000 
     84 N          -3.6750  -24.0110  -50.9994 N.am      15 UNK        -0.5000 
     85 CA         -5.0092  -23.6593  -51.4867 C.3       15 UNK         0.1400 
     86 CB         -5.2160  -24.1585  -52.9324 C.3       15 UNK        -0.1800 
     87 C          -5.3596  -22.1675  -51.3163 C.2       15 UNK         0.5000 
     88 O          -5.7344  -21.5077  -52.2871 O.2       15 UNK        -0.5000 
     89 N          -5.3165  -21.6713  -50.0688 N.am      16 UNK        -0.5000 
     90 CA         -5.7682  -20.3202  -49.6884 C.3       16 UNK         0.1400 
     91 CB         -5.5054  -20.0920  -48.1941 C.3       16 UNK        -0.1800 
     92 C          -7.2484  -20.0136  -50.0105 C.2       16 UNK         0.5000 
     93 O          -7.6185  -18.8436  -50.1081 O.2       16 UNK        -0.5000 
     94 N          -8.0576  -21.0641  -50.2084 N.am      17 UNK        -0.5000 
     95 CA         -9.4320  -21.0082  -50.7128 C.3       17 UNK         0.1400 
     96 CB        -10.0873  -22.3794  -50.4779 C.3       17 UNK        -0.1800 
     97 C          -9.5429  -20.6042  -52.2025 C.2       17 UNK         0.5000 
     98 O         -10.6605  -20.4203  -52.6856 O.2       17 UNK        -0.5000 
     99 N          -8.4021  -20.4896  -52.9017 N.am      18 UNK        -0.5000 
    100 CA        -8.2392  -20.1289  -54.3137 C.3       18 UNK         0.1400 
    101 CB        -8.8605  -18.7527  -54.6343 C.3       18 UNK        -0.1800 
    102 C         -8.6840  -21.2435  -55.2810 C.2       18 UNK         0.5000 
    103 O         -9.0390  -20.9621  -56.4269 O.2       18 UNK        -0.5000 
    104 N         -8.6139  -22.5007  -54.8182 N.am      19 UNK        -0.5000 
    105 CA        -8.8040  -23.7031  -55.6371 C.3       19 UNK         0.1400 
    106 CB        -9.0375  -24.9090  -54.7137 C.3       19 UNK        -0.1800 
    107 C         -7.6180  -23.9625  -56.5918 C.2       19 UNK         0.5000 
    108 O         -7.7822  -24.6537  -57.5977 O.2       19 UNK        -0.5000 
    109 N         -6.4582  -23.3822  -56.2687 N.am      20 UNK        -0.5000 
    110 CA        -5.2567  -23.2998  -57.0860 C.3       20 UNK         0.1400 
    111 CB        -4.3456  -24.5061  -56.7998 C.3       20 UNK        -0.1800 
    112 C         -4.5665  -21.9678  -56.7487 C.2       20 UNK         0.5000 
    113 O         -4.9193  -21.3306  -55.7515 O.2       20 UNK        -0.5000 
    114 N         -3.6082  -21.5581  -57.5863 N.am      21 UNK        -0.5000 
    115 CA        -2.8041  -20.3540  -57.3761 C.3       21 UNK         0.1400 
    116 CB        -2.1232  -19.9709  -58.6995 C.3       21 UNK        -0.1800 
    117 C         -1.7540  -20.5648  -56.2691 C.2       21 UNK         0.5000 
    118 O         -1.1822  -21.6534  -56.1695 O.2       21 UNK        -0.5000 
    119 N         -1.4926  -19.5079  -55.4912 N.am      22 UNK        -0.5000 
    120 CA        -0.4919  -19.4950  -54.4084 C.3       22 UNK         0.1400 
    121 C          0.9873  -19.4109  -54.8906 C.2       22 UNK         0.5000 
    122 N          1.2650  -19.1552  -56.1636 N.am      22 UNK        -0.7600 
    123 O          1.9034  -19.5876  -54.0926 O.2       22 UNK        -0.5000 
    124 C124       -0.7857  -18.3879  -53.3610 C.3       23 UNK        -0.0398 
    125 S125       -2.4046  -18.5877  -52.5417 S.3       23 UNK        -0.2404 
    126 C126       -1.9875  -19.7726  -51.2248 C.3       23 UNK        -0.0205 
    127 H127       -2.0439  -15.2632  -51.9120 H         1 UNK         0.0600 
    128 H128       -0.5456  -16.0502  -51.4139 H         1 UNK         0.0600 
    129 H129       -0.4889  -14.4813  -52.2234 H         1 UNK         0.0600 
    130 H130       -0.2933  -15.9524  -49.2389 H         1 UNK         0.3000 
    131 H131       -0.1830  -15.3407  -47.1324 H         1 UNK         0.0600 
    132 H132       -2.0710  -14.3014  -46.0339 H         1 UNK         0.0800 
    133 H133       -2.6131  -13.5545  -47.5098 H         1 UNK         0.0800 
    134 H134       -1.7393  -17.0488  -45.9468 H         1 UNK         0.0800 
    135 H135       -3.0588  -18.0530  -46.4811 H         1 UNK         0.0800 
    136 H136       -3.1572  -18.4793  -49.1371 H         1 UNK         0.1150 
    137 H137        0.6830  -19.6093  -50.6685 H         1 UNK         0.1150 
    138 H138        0.3896  -17.5763  -46.9105 H         1 UNK         0.1150 
    139 H139        2.6435  -18.2901  -49.6430 H         1 UNK         0.0800 
    140 H140        2.5577  -17.8277  -47.9640 H         1 UNK         0.0800 
    141 H141        1.7023  -19.4842  -46.2105 H         1 UNK         0.0800 
    142 H142        3.2096  -20.2753  -45.8700 H         1 UNK         0.0800 
    143 H143        2.1509  -22.4831  -46.5690 H         1 UNK         0.0600 
    144 H144        1.8600  -21.1033  -44.1486 H         1 UNK         0.3000 
    145 H145        0.4442  -23.7296  -42.1869 H         1 UNK         0.0600 
    146 H146        2.4969  -23.1486  -40.9154 H         1 UNK         0.0600 
    147 H147        3.1873  -22.3672  -42.3350 H         1 UNK         0.0600 
    148 H148        2.8936  -24.1012  -42.3378 H         1 UNK         0.0600 
    149 H149        1.2329  -20.9065  -41.9018 H         1 UNK         0.3000 
    150 H150       -2.1041  -19.7050  -41.9625 H         1 UNK         0.0600 
    151 H151       -1.9008  -20.5593  -39.6045 H         1 UNK         0.0600 
    152 H152       -1.6039  -18.8317  -39.7108 H         1 UNK         0.0600 
    153 H153       -0.2507  -19.9476  -39.5325 H         1 UNK         0.0600 
    154 H154        0.2884  -18.3461  -41.3331 H         1 UNK         0.3000 
    155 H155        1.4499  -17.7724  -44.6760 H         1 UNK         0.0600 
    156 H156       -0.2995  -16.0512  -44.2746 H         1 UNK         0.0600 
    157 H157        1.2905  -15.4293  -43.8667 H         1 UNK         0.0600 
    158 H158        0.1855  -15.9284  -42.5899 H         1 UNK         0.0600 
    159 H159        2.5401  -16.8575  -42.2719 H         1 UNK         0.3000 
    160 H160        4.5594  -19.6874  -41.4219 H         1 UNK         0.0600 
    161 H161        5.1630  -16.8809  -42.4947 H         1 UNK         0.0600 
    162 H162        5.7247  -18.3845  -43.2161 H         1 UNK         0.0600 
    163 H163        6.2717  -17.9241  -41.6107 H         1 UNK         0.0600 
    164 H164        3.8832  -16.9924  -40.4247 H         1 UNK         0.3000 
    165 H165        1.8556  -18.1895  -37.7839 H         1 UNK         0.0600 
    166 H166        3.4926  -17.0287  -36.3293 H         1 UNK         0.0600 
    167 H167        4.1421  -18.5750  -36.8502 H         1 UNK         0.0600 
    168 H168        4.7124  -17.0900  -37.6024 H         1 UNK         0.0600 
    169 H169        2.8890  -15.5941  -38.3742 H         1 UNK         0.3000 
    170 H170        0.2960  -14.6175  -40.6332 H         1 UNK         0.0600 
    171 H171        0.9280  -13.8153  -37.7499 H         1 UNK         0.0600 
    172 H172       -0.0374  -12.9016  -38.9092 H         1 UNK         0.0600 
    173 H173       -0.6180  -14.4447  -38.3070 H         1 UNK         0.0600 
    174 H174        2.2070  -12.9103  -39.8275 H         1 UNK         0.3000 
    175 H175        3.6168  -12.1689  -41.4751 H         1 UNK         0.0600 
    176 H176        5.8331  -14.1626  -40.7191 H         1 UNK         0.0600 
    177 H177        6.0515  -12.4290  -40.9620 H         1 UNK         0.0600 
    178 H178        5.0789  -13.0128  -39.6215 H         1 UNK         0.0600 
    179 H179        5.4100  -13.7295  -43.0926 H         1 UNK         0.3000 
    180 H180        5.1935  -13.3585  -45.4924 H         1 UNK         0.0600 
    181 H181        5.0480  -15.6567  -44.5450 H         1 UNK         0.0600 
    182 H182        4.7432  -15.7103  -46.2698 H         1 UNK         0.0600 
    183 H183        3.4011  -15.8324  -45.1329 H         1 UNK         0.0600 
    184 H184        2.7808  -14.1769  -46.8556 H         1 UNK         0.3000 
    185 H185        1.6542  -11.1202  -47.9631 H         1 UNK         0.0600 
    186 H186        2.2478  -11.7370  -50.2979 H         1 UNK         0.0600 
    187 H187        3.6445  -11.0795  -49.4609 H         1 UNK         0.0600 
    188 H188        3.5156  -12.8159  -49.7137 H         1 UNK         0.0600 
    189 H189        1.4176  -13.8367  -48.9601 H         1 UNK         0.3000 
    190 H190       -0.7136  -20.9355  -45.2157 H         1 UNK         0.3000 
    191 H191       -2.4123  -20.7538  -47.3454 H         1 UNK         0.0600 
    192 H192       -3.0430  -21.6046  -44.4655 H         1 UNK         0.0600 
    193 H193       -4.2353  -20.9995  -45.6055 H         1 UNK         0.0600 
    194 H194       -2.9432  -19.9491  -45.0567 H         1 UNK         0.0600 
    195 H195       -1.2403  -23.7414  -46.0753 H         1 UNK         0.3000 
    196 H196       -3.2268  -25.5763  -46.9461 H         1 UNK         0.0600 
    197 H197       -1.3636  -26.1791  -45.4131 H         1 UNK         0.0600 
    198 H198       -0.1860  -25.8857  -46.6916 H         1 UNK         0.0600 
    199 H199       -1.3364  -27.2105  -46.8355 H         1 UNK         0.0600 
    200 H200       -0.9439  -23.6428  -48.7813 H         1 UNK         0.3000 
    201 H201       -1.0810  -25.1921  -51.2427 H         1 UNK         0.0600 
    202 H202        0.9200  -23.8388  -50.6275 H         1 UNK         0.0600 
    203 H203       -0.0444  -22.3670  -50.6884 H         1 UNK         0.0600 
    204 H204        0.2331  -23.3040  -52.1519 H         1 UNK         0.0600 
    205 H205       -3.6513  -24.6858  -50.2445 H         1 UNK         0.3000 
    206 H206       -5.7109  -24.2070  -50.8561 H         1 UNK         0.0600 
    207 H207       -4.9953  -25.2220  -53.0229 H         1 UNK         0.0600 
    208 H208       -6.2479  -24.0119  -53.2488 H         1 UNK         0.0600 
    209 H209       -4.5832  -23.6207  -53.6386 H         1 UNK         0.0600 
    210 H210       -4.9570  -22.2528  -49.3176 H         1 UNK         0.3000 
    211 H211       -5.1701  -19.6029  -50.2536 H         1 UNK         0.0600 
    212 H212       -5.8586  -19.1109  -47.8734 H         1 UNK         0.0600 
    213 H213       -4.4418  -20.1295  -47.9797 H         1 UNK         0.0600 
    214 H214       -6.0028  -20.8416  -47.5777 H         1 UNK         0.0600 
    215 H215       -7.6669  -21.9851  -50.0792 H         1 UNK         0.3000 
    216 H216       -9.9782  -20.2613  -50.1333 H         1 UNK         0.0600 
    217 H217       -9.5816  -23.1681  -51.0365 H         1 UNK         0.0600 
    218 H218      -10.0698  -22.6500  -49.4220 H         1 UNK         0.0600 
    219 H219      -11.1322  -22.3746  -50.7911 H         1 UNK         0.0600 
    220 H220       -7.5295  -20.7053  -52.4283 H         1 UNK         0.3000 
    221 H221       -7.1624  -20.0321  -54.4613 H         1 UNK         0.0600 
    222 H222       -9.9500  -18.7818  -54.6166 H         1 UNK         0.0600 
    223 H223       -8.5313  -17.9959  -53.9223 H         1 UNK         0.0600 
    224 H224       -8.5624  -18.4137  -55.6270 H         1 UNK         0.0600 
    225 H225       -8.3263  -22.6389  -53.8611 H         1 UNK         0.3000 
    226 H226       -9.6972  -23.5657  -56.2501 H         1 UNK         0.0600 
    227 H227       -9.8982  -24.7479  -54.0643 H         1 UNK         0.0600 
    228 H228       -9.2349  -25.8105  -55.2951 H         1 UNK         0.0600 
    229 H229       -8.1727  -25.1118  -54.0820 H         1 UNK         0.0600 
    230 H230       -6.4252  -22.7767  -55.4576 H         1 UNK         0.3000 
    231 H231       -5.5326  -23.2861  -58.1425 H         1 UNK         0.0600 
    232 H232       -3.4539  -24.4813  -57.4270 H         1 UNK         0.0600 
    233 H233       -4.8592  -25.4457  -57.0037 H         1 UNK         0.0600 
    234 H234       -4.0139  -24.5247  -55.7617 H         1 UNK         0.0600 
    235 H235       -3.3440  -22.1462  -58.3630 H         1 UNK         0.3000 
    236 H236       -3.4690  -19.5381  -57.0833 H         1 UNK         0.0600 
    237 H237       -1.4430  -20.7512  -59.0437 H         1 UNK         0.0600 
    238 H238       -2.8583  -19.7955  -59.4853 H         1 UNK         0.0600 
    239 H239       -1.5427  -19.0541  -58.5897 H         1 UNK         0.0600 
    240 H240       -2.0044  -18.6492  -55.6312 H         1 UNK         0.3000 
    241 H241       -0.5665  -20.4543  -53.8925 H         1 UNK         0.0600 
    242 H242        0.5266  -19.0107  -56.8325 H         1 UNK         0.3800 
    243 H243        2.2271  -19.1086  -56.4609 H         1 UNK         0.3800 
    244 H244       -0.0106  -18.3567  -52.5951 H         1 UNK         0.0800 
    245 H245       -0.7673  -17.4068  -53.8380 H         1 UNK         0.0800 
    246 H246       -1.3474  -20.5541  -51.6317 H         1 UNK         0.0800 
    247 H247       -2.8983  -20.2734  -50.8974 H         1 UNK         0.0800 
@<TRIPOS>BOND
     1    1    2 1    
     2    1  127 1    
     3    1  128 1    
     4    1  129 1    
     5    2    3 2    
     6    2    4 am   BACKBONE|DICT|INTERRES
     7    4    5 1    
     8    4  130 1    
     9    5    6 1    
    10    5   65 1    
    11    5  131 1    
    12    6    7 1    
    13    6  132 1    
    14    6  133 1    
    15    7    8 1    
    16    8    9 1    
    17    8  134 1    
    18    8  135 1    
    19    9   10 ar   
    20    9   14 ar   
    21   10   11 ar   
    22   10  136 1    
    23   11   12 ar   
    24   11  126 1    
    25   12   13 ar   
    26   12  137 1    
    27   13   14 ar   
    28   13   15 1    
    29   14  138 1    
    30   15   16 1    
    31   15  139 1    
    32   15  140 1    
    33   16   17 1    
    34   17   18 1    
    35   17  141 1    
    36   17  142 1    
    37   18   19 1    
    38   18   67 1    
    39   18  143 1    
    40   19   20 am   BACKBONE|DICT|INTERRES
    41   19  144 1    
    42   20   21 2    
    43   20   22 1    
    44   22   23 1    
    45   22   24 1    
    46   22  145 1    
    47   23  146 1    
    48   23  147 1    
    49   23  148 1    
    50   24   25 am   BACKBONE|DICT|INTERRES
    51   24  149 1    
    52   25   26 2    
    53   25   27 1    
    54   27   28 1    
    55   27   29 1    
    56   27  150 1    
    57   28  151 1    
    58   28  152 1    
    59   28  153 1    
    60   29   30 am   BACKBONE|DICT|INTERRES
    61   29  154 1    
    62   30   31 2    
    63   30   32 1    
    64   32   33 1    
    65   32   34 1    
    66   32  155 1    
    67   33  156 1    
    68   33  157 1    
    69   33  158 1    
    70   34   35 am   BACKBONE|DICT|INTERRES
    71   34  159 1    
    72   35   36 2    
    73   35   37 1    
    74   37   38 1    
    75   37   39 1    
    76   37  160 1    
    77   38  161 1    
    78   38  162 1    
    79   38  163 1    
    80   39   40 am   BACKBONE|DICT|INTERRES
    81   39  164 1    
    82   40   41 2    
    83   40   42 1    
    84   42   43 1    
    85   42   44 1    
    86   42  165 1    
    87   43  166 1    
    88   43  167 1    
    89   43  168 1    
    90   44   45 am   BACKBONE|DICT|INTERRES
    91   44  169 1    
    92   45   46 2    
    93   45   47 1    
    94   47   48 1    
    95   47   49 1    
    96   47  170 1    
    97   48  171 1    
    98   48  172 1    
    99   48  173 1    
   100   49   50 am   BACKBONE|DICT|INTERRES
   101   49  174 1    
   102   50   51 2    
   103   50   52 1    
   104   52   53 1    
   105   52   54 1    
   106   52  175 1    
   107   53  176 1    
   108   53  177 1    
   109   53  178 1    
   110   54   55 am   BACKBONE|DICT|INTERRES
   111   54  179 1    
   112   55   56 2    
   113   55   57 1    
   114   57   58 1    
   115   57   59 1    
   116   57  180 1    
   117   58  181 1    
   118   58  182 1    
   119   58  183 1    
   120   59   60 am   BACKBONE|DICT|INTERRES
   121   59  184 1    
   122   60   61 2    
   123   60   62 1    
   124   62   63 1    
   125   62   64 1    
   126   62  185 1    
   127   63  186 1    
   128   63  187 1    
   129   63  188 1    
   130   64   65 am   BACKBONE|DICT|INTERRES
   131   64  189 1    
   132   65   66 2    
   133   67   68 2    
   134   67   69 am   BACKBONE|DICT|INTERRES
   135   69   70 1    
   136   69  190 1    
   137   70   71 1    
   138   70   72 1    
   139   70  191 1    
   140   71  192 1    
   141   71  193 1    
   142   71  194 1    
   143   72   73 2    
   144   72   74 am   BACKBONE|DICT|INTERRES
   145   74   75 1    
   146   74  195 1    
   147   75   76 1    
   148   75   77 1    
   149   75  196 1    
   150   76  197 1    
   151   76  198 1    
   152   76  199 1    
   153   77   78 2    
   154   77   79 am   BACKBONE|DICT|INTERRES
   155   79   80 1    
   156   79  200 1    
   157   80   81 1    
   158   80   82 1    
   159   80  201 1    
   160   81  202 1    
   161   81  203 1    
   162   81  204 1    
   163   82   83 2    
   164   82   84 am   BACKBONE|DICT|INTERRES
   165   84   85 1    
   166   84  205 1    
   167   85   86 1    
   168   85   87 1    
   169   85  206 1    
   170   86  207 1    
   171   86  208 1    
   172   86  209 1    
   173   87   88 2    
   174   87   89 am   BACKBONE|DICT|INTERRES
   175   89   90 1    
   176   89  210 1    
   177   90   91 1    
   178   90   92 1    
   179   90  211 1    
   180   91  212 1    
   181   91  213 1    
   182   91  214 1    
   183   92   93 2    
   184   92   94 am   BACKBONE|DICT|INTERRES
   185   94   95 1    
   186   94  215 1    
   187   95   96 1    
   188   95   97 1    
   189   95  216 1    
   190   96  217 1    
   191   96  218 1    
   192   96  219 1    
   193   97   98 2    
   194   97   99 am   BACKBONE|DICT|INTERRES
   195   99  100 1    
   196   99  220 1    
   197  100  101 1    
   198  100  102 1    
   199  100  221 1    
   200  101  222 1    
   201  101  223 1    
   202  101  224 1    
   203  102  103 2    
   204  102  104 am   BACKBONE|DICT|INTERRES
   205  104  105 1    
   206  104  225 1    
   207  105  106 1    
   208  105  107 1    
   209  105  226 1    
   210  106  227 1    
   211  106  228 1    
   212  106  229 1    
   213  107  108 2    
   214  107  109 am   BACKBONE|DICT|INTERRES
   215  109  110 1    
   216  109  230 1    
   217  110  111 1    
   218  110  112 1    
   219  110  231 1    
   220  111  232 1    
   221  111  233 1    
   222  111  234 1    
   223  112  113 2    
   224  112  114 am   BACKBONE|DICT|INTERRES
   225  114  115 1    
   226  114  235 1    
   227  115  116 1    
   228  115  117 1    
   229  115  236 1    
   230  116  237 1    
   231  116  238 1    
   232  116  239 1    
   233  117  118 2    
   234  117  119 am   BACKBONE|DICT|INTERRES
   235  119  120 1    
   236  119  240 1    
   237  120  121 1    
   238  120  124 1    
   239  120  241 1    
   240  121  122 am   BACKBONE|DICT|INTERRES
   241  121  123 2    
   242  122  242 1    
   243  122  243 1    
   244  124  125 1    
   245  124  244 1    
   246  124  245 1    
   247  125  126 1    
   248  126  246 1    
   249  126  247 1    
@<TRIPOS>SUBSTRUCTURE
     1 UNK         1 GROUP             0       ****    0 ROOT    
