@<TRIPOS>MOLECULE
3R540
247   249    1
SMALL
USER_CHARGES


@<TRIPOS>ATOM
      1 CA          5.2814  -14.9227  -53.2715 C.3       0 UNK        -0.1800 
      2 C           4.4072  -15.4469  -52.1410 C.2       0 UNK         0.5000 
      3 O           3.9590  -16.5922  -52.1952 O.2       0 UNK        -0.5000 
      4 N           4.1576  -14.6107  -51.1266 N.am      1 UNK        -0.5000 
      5 CA          3.3577  -14.9425  -49.9439 C.3       1 UNK         0.1400 
      6 C6          2.9583  -13.6826  -49.1299 C.3       23 UNK        -0.0398 
      7 S7          2.1534  -12.3756  -50.1213 S.3       23 UNK        -0.2404 
      8 C8          0.3816  -12.7483  -49.8924 C.3       23 UNK        -0.0205 
      9 C9          0.0066  -14.1270  -50.4184 C.ar      23 UNK        -0.0193 
     10 C10         0.3098  -14.4845  -51.7363 C.ar      23 UNK        -0.1150 
     11 C11         0.0352  -15.7694  -52.2095 C.ar      23 UNK        -0.0193 
     12 C12        -0.5696  -16.6955  -51.3535 C.ar      23 UNK        -0.1150 
     13 C13        -0.9342  -16.3330  -50.0545 C.ar      23 UNK        -0.0193 
     14 C14        -0.6343  -15.0502  -49.5870 C.ar      23 UNK        -0.1150 
     15 C15        -1.6970  -17.3138  -49.1813 C.3       23 UNK        -0.0205 
     16 S16        -0.7178  -17.8899  -47.7611 S.3       23 UNK        -0.2404 
     17 C17        -1.8546  -19.1489  -47.0950 C.3       23 UNK        -0.0398 
     18 CA         -1.1197  -20.4575  -46.7342 C.3       11 UNK         0.1400 
     19 N          -0.3566  -20.3431  -45.4882 N.am      11 UNK        -0.5000 
     20 C           0.5608  -21.2320  -45.0844 C.2       10 UNK         0.5000 
     21 O           0.9072  -22.2066  -45.7505 O.2       10 UNK        -0.5000 
     22 CA          1.1338  -21.0384  -43.6723 C.3       10 UNK         0.1400 
     23 CB          2.2884  -20.0302  -43.6714 C.3       10 UNK        -0.1800 
     24 N           0.0994  -20.6238  -42.7222 N.am      10 UNK        -0.5000 
     25 C          -0.8101  -21.4706  -42.2217 C.2       9 UNK         0.5000 
     26 O          -0.8750  -22.6572  -42.5405 O.2       9 UNK        -0.5000 
     27 CA         -1.8337  -20.9151  -41.2142 C.3       9 UNK         0.1400 
     28 CB         -1.2651  -20.9803  -39.7887 C.3       9 UNK        -0.1800 
     29 N          -2.3139  -19.5562  -41.4756 N.am      9 UNK        -0.5000 
     30 C          -2.8686  -19.1186  -42.6135 C.2       8 UNK         0.5000 
     31 O          -2.9050  -19.7801  -43.6530 O.2       8 UNK        -0.5000 
     32 CA         -3.5065  -17.7189  -42.5943 C.3       8 UNK         0.1400 
     33 CB         -3.1389  -16.8560  -41.3693 C.3       8 UNK        -0.1800 
     34 N          -3.1218  -17.0202  -43.8110 N.am      8 UNK        -0.5000 
     35 C          -3.9083  -16.2246  -44.5453 C.2       7 UNK         0.5000 
     36 O          -5.0870  -15.9922  -44.2719 O.2       7 UNK        -0.5000 
     37 CA         -3.2728  -15.5971  -45.8075 C.3       7 UNK         0.1400 
     38 CB         -3.8517  -14.2087  -46.1487 C.3       7 UNK        -0.1800 
     39 N          -1.8052  -15.5611  -45.7660 N.am      7 UNK        -0.5000 
     40 C          -1.0363  -14.8983  -44.8918 C.2       6 UNK         0.5000 
     41 O          -1.4598  -14.1265  -44.0287 O.2       6 UNK        -0.5000 
     42 CA          0.4718  -15.1734  -44.9900 C.3       6 UNK         0.1400 
     43 CB          1.2086  -13.9667  -45.5883 C.3       6 UNK        -0.1800 
     44 N           1.0454  -15.4959  -43.6859 N.am      6 UNK        -0.5000 
     45 C           0.7446  -16.5777  -42.9558 C.2       5 UNK         0.5000 
     46 O          -0.0630  -17.4474  -43.2995 O.2       5 UNK        -0.5000 
     47 CA          1.5567  -16.7329  -41.6622 C.3       5 UNK         0.1400 
     48 CB          1.0230  -17.8442  -40.7326 C.3       5 UNK        -0.1800 
     49 N           2.9507  -16.9671  -42.0361 N.am      5 UNK        -0.5000 
     50 C           4.0021  -16.9553  -41.2056 C.2       4 UNK         0.5000 
     51 O           3.9164  -16.7601  -39.9926 O.2       4 UNK        -0.5000 
     52 CA          5.3953  -17.1790  -41.8321 C.3       4 UNK         0.1400 
     53 CB          5.7502  -18.6738  -41.8379 C.3       4 UNK        -0.1800 
     54 N           5.5152  -16.6557  -43.1941 N.am      4 UNK        -0.5000 
     55 C           5.4118  -15.3634  -43.5300 C.2       3 UNK         0.5000 
     56 O           5.3049  -14.4560  -42.7040 O.2       3 UNK        -0.5000 
     57 CA          5.4122  -15.0052  -45.0313 C.3       3 UNK         0.1400 
     58 CB          6.7519  -14.3640  -45.4254 C.3       3 UNK        -0.1800 
     59 N           5.1185  -16.0820  -45.9866 N.am      3 UNK        -0.5000 
     60 C           4.0696  -16.9154  -45.9932 C.2       2 UNK         0.5000 
     61 O           3.2772  -17.0272  -45.0596 O.2       2 UNK        -0.5000 
     62 CA          3.8466  -17.7018  -47.3013 C.3       2 UNK         0.1400 
     63 CB          2.8583  -18.8696  -47.1353 C.3       2 UNK        -0.1800 
     64 N           3.3436  -16.7988  -48.3381 N.am      2 UNK        -0.5000 
     65 C           4.1005  -15.9367  -49.0301 C.2       1 UNK         0.5000 
     66 O           5.3284  -15.8696  -48.9185 O.2       1 UNK        -0.5000 
     67 C          -2.1078  -21.6405  -46.6933 C.2       11 UNK         0.5000 
     68 O          -2.3449  -22.2555  -47.7330 O.2       11 UNK        -0.5000 
     69 N          -2.6606  -21.9475  -45.5124 N.am      12 UNK        -0.5000 
     70 CA         -3.5008  -23.1203  -45.2766 C.3       12 UNK         0.1400 
     71 CB         -4.2123  -22.9900  -43.9224 C.3       12 UNK        -0.1800 
     72 C          -2.6959  -24.4291  -45.3641 C.2       12 UNK         0.5000 
     73 O          -3.1386  -25.3615  -46.0338 O.2       12 UNK        -0.5000 
     74 N          -1.5104  -24.4608  -44.7365 N.am      13 UNK        -0.5000 
     75 CA         -0.5734  -25.5883  -44.7742 C.3       13 UNK         0.1400 
     76 CB          0.5733  -25.3404  -43.7829 C.3       13 UNK        -0.1800 
     77 C          -0.0202  -25.8675  -46.1845 C.2       13 UNK         0.5000 
     78 O           0.1113  -27.0303  -46.5674 O.2       13 UNK        -0.5000 
     79 N           0.2538  -24.7984  -46.9447 N.am      14 UNK        -0.5000 
     80 CA          0.6576  -24.8510  -48.3523 C.3       14 UNK         0.1400 
     81 CB          1.2602  -23.4913  -48.7416 C.3       14 UNK        -0.1800 
     82 C          -0.4958  -25.2117  -49.3127 C.2       14 UNK         0.5000 
     83 O          -0.2339  -25.4906  -50.4828 O.2       14 UNK        -0.5000 
     84 N          -1.7414  -25.1614  -48.8157 N.am      15 UNK        -0.5000 
     85 CA         -3.0154  -25.3480  -49.5197 C.3       15 UNK         0.1400 
     86 CB         -3.1161  -26.7511  -50.1506 C.3       15 UNK        -0.1800 
     87 C          -3.3471  -24.2262  -50.5256 C.2       15 UNK         0.5000 
     88 O          -4.3139  -24.3531  -51.2764 O.2       15 UNK        -0.5000 
     89 N          -2.5888  -23.1228  -50.4917 N.am      16 UNK        -0.5000 
     90 CA         -2.7878  -21.9316  -51.3137 C.3       16 UNK         0.1400 
     91 CB         -1.5810  -20.9941  -51.1544 C.3       16 UNK        -0.1800 
     92 C          -4.0928  -21.2001  -50.9643 C.2       16 UNK         0.5000 
     93 O          -4.7954  -20.7518  -51.8706 O.2       16 UNK        -0.5000 
     94 N          -4.4118  -21.1343  -49.6628 N.am      17 UNK        -0.5000 
     95 CA         -5.6706  -20.5803  -49.1578 C.3       17 UNK         0.1400 
     96 CB         -5.5524  -20.2949  -47.6518 C.3       17 UNK        -0.1800 
     97 C          -6.8709  -21.5039  -49.4327 C.2       17 UNK         0.5000 
     98 O          -7.9697  -21.0095  -49.6828 O.2       17 UNK        -0.5000 
     99 N          -6.6368  -22.8232  -49.3889 N.am      18 UNK        -0.5000 
    100 CA        -7.6463  -23.8544  -49.6318 C.3       18 UNK         0.1400 
    101 CB        -7.1242  -25.2113  -49.1330 C.3       18 UNK        -0.1800 
    102 C         -8.0524  -23.9299  -51.1136 C.2       18 UNK         0.5000 
    103 O         -9.2435  -24.0029  -51.4176 O.2       18 UNK        -0.5000 
    104 N         -7.0548  -23.8871  -52.0065 N.am      19 UNK        -0.5000 
    105 CA        -7.2400  -23.8850  -53.4575 C.3       19 UNK         0.1400 
    106 CB        -5.9234  -24.3193  -54.1211 C.3       19 UNK        -0.1800 
    107 C         -7.6823  -22.5182  -54.0138 C.2       19 UNK         0.5000 
    108 O         -8.1965  -22.4712  -55.1318 O.2       19 UNK        -0.5000 
    109 N         -7.4435  -21.4416  -53.2467 N.am      20 UNK        -0.5000 
    110 CA        -7.5631  -20.0300  -53.6327 C.3       20 UNK         0.1400 
    111 CB        -9.0324  -19.6423  -53.8982 C.3       20 UNK        -0.1800 
    112 C         -6.6142  -19.7052  -54.8054 C.2       20 UNK         0.5000 
    113 O         -7.0356  -19.1742  -55.8347 O.2       20 UNK        -0.5000 
    114 N         -5.3467  -20.1024  -54.6325 N.am      21 UNK        -0.5000 
    115 CA        -4.3073  -20.0941  -55.6622 C.3       21 UNK         0.1400 
    116 CB        -3.1293  -20.9525  -55.1750 C.3       21 UNK        -0.1800 
    117 C         -3.8170  -18.6878  -56.0510 C.2       21 UNK         0.5000 
    118 O         -3.3324  -18.5092  -57.1697 O.2       21 UNK        -0.5000 
    119 N         -3.9381  -17.7306  -55.1262 N.am      22 UNK        -0.5000 
    120 CA        -3.4998  -16.3374  -55.2771 C.3       22 UNK         0.1400 
    121 C         -4.6948  -15.3774  -55.0478 C.2       22 UNK         0.5000 
    122 N         -4.7661  -14.2768  -55.7838 N.am      22 UNK        -0.7600 
    123 O         -5.5409  -15.6020  -54.1842 O.2       22 UNK        -0.5000 
    124 C124       -2.3406  -15.9967  -54.3060 C.3       23 UNK        -0.0398 
    125 S125       -0.8821  -17.0763  -54.5256 S.3       23 UNK        -0.2404 
    126 C126        0.4108  -16.1408  -53.6408 C.3       23 UNK        -0.0205 
    127 H127        5.5966  -13.8936  -53.0969 H         1 UNK         0.0600 
    128 H128        4.7347  -14.9554  -54.2140 H         1 UNK         0.0600 
    129 H129        6.1744  -15.5395  -53.3721 H         1 UNK         0.0600 
    130 H130        4.5608  -13.6852  -51.1329 H         1 UNK         0.3000 
    131 H131        2.4497  -15.4374  -50.2895 H         1 UNK         0.0600 
    132 H132        3.8391  -13.2373  -48.6630 H         1 UNK         0.0800 
    133 H133        2.2929  -13.9586  -48.3124 H         1 UNK         0.0800 
    134 H134       -0.2080  -11.9985  -50.4212 H         1 UNK         0.0800 
    135 H135        0.1302  -12.6494  -48.8354 H         1 UNK         0.0800 
    136 H136        0.7930  -13.7661  -52.3836 H         1 UNK         0.1150 
    137 H137       -0.7870  -17.6912  -51.7131 H         1 UNK         0.1150 
    138 H138       -0.9033  -14.7730  -48.5775 H         1 UNK         0.1150 
    139 H139       -2.0117  -18.1735  -49.7749 H         1 UNK         0.0800 
    140 H140       -2.6113  -16.8374  -48.8259 H         1 UNK         0.0800 
    141 H141       -2.3847  -18.7449  -46.2314 H         1 UNK         0.0800 
    142 H142       -2.6136  -19.3431  -47.8531 H         1 UNK         0.0800 
    143 H143       -0.4126  -20.6802  -47.5364 H         1 UNK         0.0600 
    144 H144       -0.6068  -19.5888  -44.8640 H         1 UNK         0.3000 
    145 H145        1.5392  -21.9979  -43.3436 H         1 UNK         0.0600 
    146 H146        3.1120  -20.3842  -44.2909 H         1 UNK         0.0600 
    147 H147        2.6859  -19.8837  -42.6679 H         1 UNK         0.0600 
    148 H148        1.9746  -19.0628  -44.0597 H         1 UNK         0.0600 
    149 H149        0.0497  -19.6417  -42.4852 H         1 UNK         0.3000 
    150 H150       -2.7064  -21.5693  -41.2544 H         1 UNK         0.0600 
    151 H151       -0.4154  -20.3087  -39.6624 H         1 UNK         0.0600 
    152 H152       -0.9241  -21.9885  -39.5491 H         1 UNK         0.0600 
    153 H153       -2.0193  -20.7112  -39.0490 H         1 UNK         0.0600 
    154 H154       -2.3165  -18.9311  -40.6834 H         1 UNK         0.3000 
    155 H155       -4.5859  -17.8822  -42.5898 H         1 UNK         0.0600 
    156 H156       -3.6317  -15.8849  -41.4193 H         1 UNK         0.0600 
    157 H157       -2.0659  -16.6728  -41.3121 H         1 UNK         0.0600 
    158 H158       -3.4569  -17.3229  -40.4366 H         1 UNK         0.0600 
    159 H159       -2.1613  -17.1650  -44.0963 H         1 UNK         0.3000 
    160 H160       -3.5337  -16.2664  -46.6278 H         1 UNK         0.0600 
    161 H161       -3.7056  -13.4964  -45.3364 H         1 UNK         0.0600 
    162 H162       -4.9237  -14.2679  -46.3400 H         1 UNK         0.0600 
    163 H163       -3.3863  -13.7975  -47.0445 H         1 UNK         0.0600 
    164 H164       -1.3466  -16.1831  -46.4206 H         1 UNK         0.3000 
    165 H165        0.6375  -16.0323  -45.6441 H         1 UNK         0.0600 
    166 H166        2.2568  -14.1990  -45.7737 H         1 UNK         0.0600 
    167 H167        0.7634  -13.6723  -46.5390 H         1 UNK         0.0600 
    168 H168        1.1660  -13.1006  -44.9269 H         1 UNK         0.0600 
    169 H169        1.7272  -14.8455  -43.3262 H         1 UNK         0.3000 
    170 H170        1.4920  -15.7829  -41.1280 H         1 UNK         0.0600 
    171 H171        1.4559  -17.7663  -39.7358 H         1 UNK         0.0600 
    172 H172        1.2579  -18.8361  -41.1103 H         1 UNK         0.0600 
    173 H173       -0.0576  -17.7772  -40.6103 H         1 UNK         0.0600 
    174 H174        3.1148  -17.0908  -43.0328 H         1 UNK         0.3000 
    175 H175        6.1238  -16.6577  -41.2076 H         1 UNK         0.0600 
    176 H176        5.6714  -19.0989  -40.8364 H         1 UNK         0.0600 
    177 H177        5.0867  -19.2427  -42.4899 H         1 UNK         0.0600 
    178 H178        6.7733  -18.8344  -42.1783 H         1 UNK         0.0600 
    179 H179        5.5770  -17.3329  -43.9396 H         1 UNK         0.3000 
    180 H180        4.6323  -14.2536  -45.1641 H         1 UNK         0.0600 
    181 H181        7.5716  -15.0806  -45.3610 H         1 UNK         0.0600 
    182 H182        6.9964  -13.5251  -44.7722 H         1 UNK         0.0600 
    183 H183        6.7211  -13.9792  -46.4451 H         1 UNK         0.0600 
    184 H184        5.6675  -16.0573  -46.8384 H         1 UNK         0.3000 
    185 H185        4.8045  -18.1185  -47.6199 H         1 UNK         0.0600 
    186 H186        3.2769  -19.6364  -46.4851 H         1 UNK         0.0600 
    187 H187        1.9134  -18.5484  -46.6976 H         1 UNK         0.0600 
    188 H188        2.6386  -19.3457  -48.0911 H         1 UNK         0.0600 
    189 H189        2.3417  -16.7913  -48.4667 H         1 UNK         0.3000 
    190 H190       -2.5028  -21.3270  -44.7234 H         1 UNK         0.3000 
    191 H191       -4.2665  -23.1508  -46.0544 H         1 UNK         0.0600 
    192 H192       -4.8016  -22.0740  -43.8739 H         1 UNK         0.0600 
    193 H193       -4.8937  -23.8258  -43.7595 H         1 UNK         0.0600 
    194 H194       -3.5063  -22.9777  -43.0931 H         1 UNK         0.0600 
    195 H195       -1.2404  -23.6717  -44.1563 H         1 UNK         0.3000 
    196 H196       -1.1143  -26.4797  -44.4501 H         1 UNK         0.0600 
    197 H197        1.2789  -26.1721  -43.7841 H         1 UNK         0.0600 
    198 H198        0.1979  -25.2349  -42.7649 H         1 UNK         0.0600 
    199 H199        1.1301  -24.4361  -44.0297 H         1 UNK         0.0600 
    200 H200        0.2046  -23.8752  -46.5231 H         1 UNK         0.3000 
    201 H201        1.4301  -25.6145  -48.4637 H         1 UNK         0.0600 
    202 H202        1.6138  -23.4976  -49.7734 H         1 UNK         0.0600 
    203 H203        2.1124  -23.2415  -48.1092 H         1 UNK         0.0600 
    204 H204        0.5289  -22.6876  -48.6502 H         1 UNK         0.0600 
    205 H205       -1.8370  -24.9223  -47.8370 H         1 UNK         0.3000 
    206 H206       -3.7844  -25.2848  -48.7490 H         1 UNK         0.0600 
    207 H207       -2.8875  -27.5281  -49.4212 H         1 UNK         0.0600 
    208 H208       -4.1242  -26.9415  -50.5206 H         1 UNK         0.0600 
    209 H209       -2.4354  -26.8689  -50.9938 H         1 UNK         0.0600 
    210 H210       -1.8867  -23.0637  -49.7671 H         1 UNK         0.3000 
    211 H211       -2.8482  -22.2469  -52.3571 H         1 UNK         0.0600 
    212 H212       -1.4503  -20.6737  -50.1200 H         1 UNK         0.0600 
    213 H213       -1.6988  -20.0982  -51.7656 H         1 UNK         0.0600 
    214 H214       -0.6595  -21.4831  -51.4707 H         1 UNK         0.0600 
    215 H215       -3.7764  -21.5496  -48.9897 H         1 UNK         0.3000 
    216 H216       -5.8619  -19.6332  -49.6673 H         1 UNK         0.0600 
    217 H217       -6.5073  -19.9643  -47.2408 H         1 UNK         0.0600 
    218 H218       -5.2473  -21.1797  -47.0937 H         1 UNK         0.0600 
    219 H219       -4.8350  -19.5015  -47.4519 H         1 UNK         0.0600 
    220 H220       -5.6981  -23.1388  -49.2027 H         1 UNK         0.3000 
    221 H221       -8.5373  -23.6024  -49.0525 H         1 UNK         0.0600 
    222 H222       -6.2393  -25.5338  -49.6817 H         1 UNK         0.0600 
    223 H223       -6.8672  -25.1715  -48.0743 H         1 UNK         0.0600 
    224 H224       -7.8822  -25.9862  -49.2539 H         1 UNK         0.0600 
    225 H225       -6.0924  -23.8947  -51.6765 H         1 UNK         0.3000 
    226 H226       -8.0104  -24.6148  -53.7150 H         1 UNK         0.0600 
    227 H227       -6.0265  -24.3671  -55.2059 H         1 UNK         0.0600 
    228 H228       -5.1141  -23.6227  -53.8979 H         1 UNK         0.0600 
    229 H229       -5.6165  -25.3080  -53.7792 H         1 UNK         0.0600 
    230 H230       -6.9866  -21.6040  -52.3600 H         1 UNK         0.3000 
    231 H231       -7.2167  -19.4445  -52.7796 H         1 UNK         0.0600 
    232 H232       -9.4399  -20.1505  -54.7724 H         1 UNK         0.0600 
    233 H233       -9.1237  -18.5699  -54.0737 H         1 UNK         0.0600 
    234 H234       -9.6631  -19.8871  -53.0436 H         1 UNK         0.0600 
    235 H235       -5.0912  -20.4859  -53.7261 H         1 UNK         0.3000 
    236 H236       -4.7203  -20.5584  -56.5602 H         1 UNK         0.0600 
    237 H237       -2.6793  -20.5377  -54.2721 H         1 UNK         0.0600 
    238 H238       -3.4456  -21.9726  -54.9570 H         1 UNK         0.0600 
    239 H239       -2.3475  -21.0101  -55.9334 H         1 UNK         0.0600 
    240 H240       -4.4064  -17.9504  -54.2592 H         1 UNK         0.3000 
    241 H241       -3.1407  -16.1732  -56.2949 H         1 UNK         0.0600 
    242 H242       -4.0807  -14.0666  -56.4935 H         1 UNK         0.3800 
    243 H243       -5.5324  -13.6383  -55.6350 H         1 UNK         0.3800 
    244 H244       -2.6766  -16.0797  -53.2709 H         1 UNK         0.0800 
    245 H245       -2.0247  -14.9612  -54.4449 H         1 UNK         0.0800 
    246 H246        1.3238  -16.7372  -53.6165 H         1 UNK         0.0800 
    247 H247        0.6429  -15.2458  -54.2201 H         1 UNK         0.0800 
@<TRIPOS>BOND
     1    1    2 1    
     2    1  127 1    
     3    1  128 1    
     4    1  129 1    
     5    2    3 2    
     6    2    4 am   BACKBONE|DICT|INTERRES
     7    4    5 1    
     8    4  130 1    
     9    5    6 1    
    10    5   65 1    
    11    5  131 1    
    12    6    7 1    
    13    6  132 1    
    14    6  133 1    
    15    7    8 1    
    16    8    9 1    
    17    8  134 1    
    18    8  135 1    
    19    9   10 ar   
    20    9   14 ar   
    21   10   11 ar   
    22   10  136 1    
    23   11   12 ar   
    24   11  126 1    
    25   12   13 ar   
    26   12  137 1    
    27   13   14 ar   
    28   13   15 1    
    29   14  138 1    
    30   15   16 1    
    31   15  139 1    
    32   15  140 1    
    33   16   17 1    
    34   17   18 1    
    35   17  141 1    
    36   17  142 1    
    37   18   19 1    
    38   18   67 1    
    39   18  143 1    
    40   19   20 am   BACKBONE|DICT|INTERRES
    41   19  144 1    
    42   20   21 2    
    43   20   22 1    
    44   22   23 1    
    45   22   24 1    
    46   22  145 1    
    47   23  146 1    
    48   23  147 1    
    49   23  148 1    
    50   24   25 am   BACKBONE|DICT|INTERRES
    51   24  149 1    
    52   25   26 2    
    53   25   27 1    
    54   27   28 1    
    55   27   29 1    
    56   27  150 1    
    57   28  151 1    
    58   28  152 1    
    59   28  153 1    
    60   29   30 am   BACKBONE|DICT|INTERRES
    61   29  154 1    
    62   30   31 2    
    63   30   32 1    
    64   32   33 1    
    65   32   34 1    
    66   32  155 1    
    67   33  156 1    
    68   33  157 1    
    69   33  158 1    
    70   34   35 am   BACKBONE|DICT|INTERRES
    71   34  159 1    
    72   35   36 2    
    73   35   37 1    
    74   37   38 1    
    75   37   39 1    
    76   37  160 1    
    77   38  161 1    
    78   38  162 1    
    79   38  163 1    
    80   39   40 am   BACKBONE|DICT|INTERRES
    81   39  164 1    
    82   40   41 2    
    83   40   42 1    
    84   42   43 1    
    85   42   44 1    
    86   42  165 1    
    87   43  166 1    
    88   43  167 1    
    89   43  168 1    
    90   44   45 am   BACKBONE|DICT|INTERRES
    91   44  169 1    
    92   45   46 2    
    93   45   47 1    
    94   47   48 1    
    95   47   49 1    
    96   47  170 1    
    97   48  171 1    
    98   48  172 1    
    99   48  173 1    
   100   49   50 am   BACKBONE|DICT|INTERRES
   101   49  174 1    
   102   50   51 2    
   103   50   52 1    
   104   52   53 1    
   105   52   54 1    
   106   52  175 1    
   107   53  176 1    
   108   53  177 1    
   109   53  178 1    
   110   54   55 am   BACKBONE|DICT|INTERRES
   111   54  179 1    
   112   55   56 2    
   113   55   57 1    
   114   57   58 1    
   115   57   59 1    
   116   57  180 1    
   117   58  181 1    
   118   58  182 1    
   119   58  183 1    
   120   59   60 am   BACKBONE|DICT|INTERRES
   121   59  184 1    
   122   60   61 2    
   123   60   62 1    
   124   62   63 1    
   125   62   64 1    
   126   62  185 1    
   127   63  186 1    
   128   63  187 1    
   129   63  188 1    
   130   64   65 am   BACKBONE|DICT|INTERRES
   131   64  189 1    
   132   65   66 2    
   133   67   68 2    
   134   67   69 am   BACKBONE|DICT|INTERRES
   135   69   70 1    
   136   69  190 1    
   137   70   71 1    
   138   70   72 1    
   139   70  191 1    
   140   71  192 1    
   141   71  193 1    
   142   71  194 1    
   143   72   73 2    
   144   72   74 am   BACKBONE|DICT|INTERRES
   145   74   75 1    
   146   74  195 1    
   147   75   76 1    
   148   75   77 1    
   149   75  196 1    
   150   76  197 1    
   151   76  198 1    
   152   76  199 1    
   153   77   78 2    
   154   77   79 am   BACKBONE|DICT|INTERRES
   155   79   80 1    
   156   79  200 1    
   157   80   81 1    
   158   80   82 1    
   159   80  201 1    
   160   81  202 1    
   161   81  203 1    
   162   81  204 1    
   163   82   83 2    
   164   82   84 am   BACKBONE|DICT|INTERRES
   165   84   85 1    
   166   84  205 1    
   167   85   86 1    
   168   85   87 1    
   169   85  206 1    
   170   86  207 1    
   171   86  208 1    
   172   86  209 1    
   173   87   88 2    
   174   87   89 am   BACKBONE|DICT|INTERRES
   175   89   90 1    
   176   89  210 1    
   177   90   91 1    
   178   90   92 1    
   179   90  211 1    
   180   91  212 1    
   181   91  213 1    
   182   91  214 1    
   183   92   93 2    
   184   92   94 am   BACKBONE|DICT|INTERRES
   185   94   95 1    
   186   94  215 1    
   187   95   96 1    
   188   95   97 1    
   189   95  216 1    
   190   96  217 1    
   191   96  218 1    
   192   96  219 1    
   193   97   98 2    
   194   97   99 am   BACKBONE|DICT|INTERRES
   195   99  100 1    
   196   99  220 1    
   197  100  101 1    
   198  100  102 1    
   199  100  221 1    
   200  101  222 1    
   201  101  223 1    
   202  101  224 1    
   203  102  103 2    
   204  102  104 am   BACKBONE|DICT|INTERRES
   205  104  105 1    
   206  104  225 1    
   207  105  106 1    
   208  105  107 1    
   209  105  226 1    
   210  106  227 1    
   211  106  228 1    
   212  106  229 1    
   213  107  108 2    
   214  107  109 am   BACKBONE|DICT|INTERRES
   215  109  110 1    
   216  109  230 1    
   217  110  111 1    
   218  110  112 1    
   219  110  231 1    
   220  111  232 1    
   221  111  233 1    
   222  111  234 1    
   223  112  113 2    
   224  112  114 am   BACKBONE|DICT|INTERRES
   225  114  115 1    
   226  114  235 1    
   227  115  116 1    
   228  115  117 1    
   229  115  236 1    
   230  116  237 1    
   231  116  238 1    
   232  116  239 1    
   233  117  118 2    
   234  117  119 am   BACKBONE|DICT|INTERRES
   235  119  120 1    
   236  119  240 1    
   237  120  121 1    
   238  120  124 1    
   239  120  241 1    
   240  121  122 am   BACKBONE|DICT|INTERRES
   241  121  123 2    
   242  122  242 1    
   243  122  243 1    
   244  124  125 1    
   245  124  244 1    
   246  124  245 1    
   247  125  126 1    
   248  126  246 1    
   249  126  247 1    
@<TRIPOS>SUBSTRUCTURE
     1 UNK         1 GROUP             0       ****    0 ROOT    
