@<TRIPOS>MOLECULE
3R540
247   249    1
SMALL
USER_CHARGES


@<TRIPOS>ATOM
      1 CA         -1.6243  -12.7633  -54.0288 C.3       0 UNK        -0.1800 
      2 C          -1.3097  -13.6476  -52.8304 C.2       0 UNK         0.5000 
      3 O          -2.1674  -13.8318  -51.9672 O.2       0 UNK        -0.5000 
      4 N          -0.0882  -14.1976  -52.7820 N.am      1 UNK        -0.5000 
      5 CA          0.4306  -15.0559  -51.7099 C.3       1 UNK         0.1400 
      6 C6         -0.3015  -16.4295  -51.6503 C.3       23 UNK        -0.0398 
      7 S7          0.7924  -17.7780  -51.0890 S.3       23 UNK        -0.2404 
      8 C8          1.2917  -18.4733  -52.7041 C.3       23 UNK        -0.0205 
      9 C9          2.3315  -19.5875  -52.6132 C.ar      23 UNK        -0.0193 
     10 C10         2.2285  -20.7009  -53.4543 C.ar      23 UNK        -0.1150 
     11 C11         3.1949  -21.7106  -53.4268 C.ar      23 UNK        -0.0193 
     12 C12         4.2655  -21.6117  -52.5332 C.ar      23 UNK        -0.1150 
     13 C13         4.3895  -20.5026  -51.6929 C.ar      23 UNK        -0.0193 
     14 C14         3.4276  -19.4887  -51.7492 C.ar      23 UNK        -0.1150 
     15 C15         5.5830  -20.3819  -50.7531 C.3       23 UNK        -0.0205 
     16 S16         5.4238  -21.4269  -49.2663 S.3       23 UNK        -0.2404 
     17 C17         3.9631  -20.6998  -48.4547 C.3       23 UNK        -0.0398 
     18 CA          2.8932  -21.7753  -48.1339 C.3       11 UNK         0.1400 
     19 N           3.1406  -22.4029  -46.8312 N.am      11 UNK        -0.5000 
     20 C           2.4209  -23.3954  -46.2886 C.2       10 UNK         0.5000 
     21 O           1.4789  -23.9514  -46.8492 O.2       10 UNK        -0.5000 
     22 CA          2.7866  -23.8046  -44.8507 C.3       10 UNK         0.1400 
     23 CB          3.9081  -24.8538  -44.8574 C.3       10 UNK        -0.1800 
     24 N           3.1815  -22.6759  -44.0039 N.am      10 UNK        -0.5000 
     25 C           2.3989  -21.6330  -43.6953 C.2       9 UNK         0.5000 
     26 O           1.2572  -21.4706  -44.1325 O.2       9 UNK        -0.5000 
     27 CA          3.0146  -20.5729  -42.7712 C.3       9 UNK         0.1400 
     28 CB          3.1879  -19.2392  -43.5141 C.3       9 UNK        -0.1800 
     29 N           2.1839  -20.3698  -41.5863 N.am      9 UNK        -0.5000 
     30 C           2.1847  -21.1829  -40.5222 C.2       8 UNK         0.5000 
     31 O           2.8718  -22.2035  -40.4556 O.2       8 UNK        -0.5000 
     32 CA          1.3108  -20.7990  -39.3161 C.3       8 UNK         0.1400 
     33 CB          2.0588  -19.8203  -38.3948 C.3       8 UNK        -0.1800 
     34 N           0.0125  -20.2273  -39.6832 N.am      8 UNK        -0.5000 
     35 C          -1.1213  -20.4542  -38.9995 C.2       7 UNK         0.5000 
     36 O          -1.1850  -21.2055  -38.0248 O.2       7 UNK        -0.5000 
     37 CA         -2.4063  -19.7190  -39.4411 C.3       7 UNK         0.1400 
     38 CB         -2.7098  -18.5527  -38.4876 C.3       7 UNK        -0.1800 
     39 N          -2.3518  -19.1982  -40.8036 N.am      7 UNK        -0.5000 
     40 C          -2.3356  -19.9449  -41.9143 C.2       6 UNK         0.5000 
     41 O          -2.4952  -21.1654  -41.9146 O.2       6 UNK        -0.5000 
     42 CA         -2.0699  -19.2149  -43.2460 C.3       6 UNK         0.1400 
     43 CB         -3.3510  -19.1574  -44.0911 C.3       6 UNK        -0.1800 
     44 N          -1.5241  -17.8556  -43.1182 N.am      6 UNK        -0.5000 
     45 C          -0.3708  -17.5227  -42.5142 C.2       5 UNK         0.5000 
     46 O           0.3486  -18.3365  -41.9368 O.2       5 UNK        -0.5000 
     47 CA          0.0494  -16.0403  -42.5191 C.3       5 UNK         0.1400 
     48 CB          1.1309  -15.7988  -43.5808 C.3       5 UNK        -0.1800 
     49 N          -1.0558  -15.1122  -42.7509 N.am      5 UNK        -0.5000 
     50 C          -2.0986  -14.9291  -41.9300 C.2       4 UNK         0.5000 
     51 O          -2.2248  -15.5037  -40.8479 O.2       4 UNK        -0.5000 
     52 CA         -3.1987  -13.9640  -42.4136 C.3       4 UNK         0.1400 
     53 CB         -3.0545  -12.5992  -41.7232 C.3       4 UNK        -0.1800 
     54 N          -3.2379  -13.7583  -43.8675 N.am      4 UNK        -0.5000 
     55 C          -3.4933  -14.7090  -44.7784 C.2       3 UNK         0.5000 
     56 O          -3.6072  -15.9036  -44.5060 O.2       3 UNK        -0.5000 
     57 CA         -3.6181  -14.2438  -46.2372 C.3       3 UNK         0.1400 
     58 CB         -4.5886  -13.0602  -46.3955 C.3       3 UNK        -0.1800 
     59 N          -2.3133  -13.8873  -46.7884 N.am      3 UNK        -0.5000 
     60 C          -1.5024  -14.7547  -47.4050 C.2       2 UNK         0.5000 
     61 O          -1.7474  -15.9554  -47.5369 O.2       2 UNK        -0.5000 
     62 CA         -0.2090  -14.1857  -47.9995 C.3       2 UNK         0.1400 
     63 CB          0.9938  -14.4089  -47.0704 C.3       2 UNK        -0.1800 
     64 N           0.0139  -14.8551  -49.2744 N.am      2 UNK        -0.5000 
     65 C           0.5006  -14.2729  -50.3741 C.2       1 UNK         0.5000 
     66 O           0.9866  -13.1386  -50.3750 O.2       1 UNK        -0.5000 
     67 C           1.4777  -21.1741  -48.2088 C.2       11 UNK         0.5000 
     68 O           0.7040  -21.5395  -49.0917 O.2       11 UNK        -0.5000 
     69 N           1.1592  -20.2914  -47.2537 N.am      12 UNK        -0.5000 
     70 CA         -0.1329  -19.6163  -47.1586 C.3       12 UNK         0.1400 
     71 CB         -0.0283  -18.4927  -46.1232 C.3       12 UNK        -0.1800 
     72 C          -1.2859  -20.5806  -46.8281 C.2       12 UNK         0.5000 
     73 O          -2.3856  -20.4096  -47.3537 O.2       12 UNK        -0.5000 
     74 N          -1.0104  -21.5932  -45.9932 N.am      13 UNK        -0.5000 
     75 CA         -1.9457  -22.6664  -45.6599 C.3       13 UNK         0.1400 
     76 CB         -1.3695  -23.5265  -44.5260 C.3       13 UNK        -0.1800 
     77 C          -2.3046  -23.5280  -46.8844 C.2       13 UNK         0.5000 
     78 O          -3.4891  -23.7381  -47.1469 O.2       13 UNK        -0.5000 
     79 N          -1.2859  -23.9676  -47.6394 N.am      14 UNK        -0.5000 
     80 CA         -1.4382  -24.7248  -48.8854 C.3       14 UNK         0.1400 
     81 CB         -0.0661  -25.2284  -49.3575 C.3       14 UNK        -0.1800 
     82 C          -2.1211  -23.9105  -49.9977 C.2       14 UNK         0.5000 
     83 O          -2.9120  -24.4646  -50.7605 O.2       14 UNK        -0.5000 
     84 N          -1.8324  -22.6039  -50.0456 N.am      15 UNK        -0.5000 
     85 CA         -2.4441  -21.6482  -50.9653 C.3       15 UNK         0.1400 
     86 CB         -1.5706  -20.3900  -51.0404 C.3       15 UNK        -0.1800 
     87 C          -3.8991  -21.2773  -50.6300 C.2       15 UNK         0.5000 
     88 O          -4.5381  -20.6104  -51.4457 O.2       15 UNK        -0.5000 
     89 N          -4.3855  -21.7049  -49.4553 N.am      16 UNK        -0.5000 
     90 CA         -5.7013  -21.4223  -48.8819 C.3       16 UNK         0.1400 
     91 CB         -6.8217  -22.0926  -49.7037 C.3       16 UNK        -0.1800 
     92 C          -5.9136  -19.9146  -48.6424 C.2       16 UNK         0.5000 
     93 O          -6.9632  -19.3654  -48.9848 O.2       16 UNK        -0.5000 
     94 N          -4.8928  -19.2785  -48.0496 N.am      17 UNK        -0.5000 
     95 CA         -4.8232  -17.8644  -47.6903 C.3       17 UNK         0.1400 
     96 CB         -5.8278  -17.5606  -46.5515 C.3       17 UNK        -0.1800 
     97 C          -4.9679  -16.9582  -48.9317 C.2       17 UNK         0.5000 
     98 O          -4.2071  -17.1081  -49.8903 O.2       17 UNK        -0.5000 
     99 N          -5.9524  -16.0501  -48.9010 N.am      18 UNK        -0.5000 
    100 CA        -6.2494  -15.0582  -49.9361 C.3       18 UNK         0.1400 
    101 CB        -7.3036  -14.0840  -49.3864 C.3       18 UNK        -0.1800 
    102 C         -6.7025  -15.6415  -51.2917 C.2       18 UNK         0.5000 
    103 O         -6.7596  -14.8933  -52.2685 O.2       18 UNK        -0.5000 
    104 N         -7.0083  -16.9476  -51.3477 N.am      19 UNK        -0.5000 
    105 CA        -7.3030  -17.6745  -52.5858 C.3       19 UNK         0.1400 
    106 CB        -7.8209  -19.0770  -52.2421 C.3       19 UNK        -0.1800 
    107 C         -6.0910  -17.7647  -53.5364 C.2       19 UNK         0.5000 
    108 O         -6.2883  -17.8312  -54.7503 O.2       19 UNK        -0.5000 
    109 N         -4.8739  -17.7301  -52.9689 N.am      20 UNK        -0.5000 
    110 CA        -3.5789  -17.6529  -53.6510 C.3       20 UNK         0.1400 
    111 CB        -3.4162  -16.2726  -54.3192 C.3       20 UNK        -0.1800 
    112 C         -3.3081  -18.8224  -54.6223 C.2       20 UNK         0.5000 
    113 O         -2.7534  -18.6126  -55.7035 O.2       20 UNK        -0.5000 
    114 N         -3.7086  -20.0341  -54.2188 N.am      21 UNK        -0.5000 
    115 CA        -3.4596  -21.2823  -54.9399 C.3       21 UNK         0.1400 
    116 CB        -4.6247  -22.2475  -54.6407 C.3       21 UNK        -0.1800 
    117 C         -2.0752  -21.8606  -54.5652 C.2       21 UNK         0.5000 
    118 O         -1.1577  -21.1069  -54.2388 O.2       21 UNK        -0.5000 
    119 N         -1.9559  -23.1908  -54.5641 N.am      22 UNK        -0.5000 
    120 CA        -0.8450  -23.9662  -53.9985 C.3       22 UNK         0.1400 
    121 C         -1.2931  -25.4406  -53.7763 C.2       22 UNK         0.5000 
    122 N         -0.4616  -26.2688  -53.1611 N.am      22 UNK        -0.7600 
    123 O         -2.3866  -25.8489  -54.1659 O.2       22 UNK        -0.5000 
    124 C124        0.4694  -23.8414  -54.8210 C.3       23 UNK        -0.0398 
    125 S125        1.9665  -24.1733  -53.8218 S.3       23 UNK        -0.2404 
    126 C126        3.1164  -22.8837  -54.3930 C.3       23 UNK        -0.0205 
    127 H127       -1.8660  -11.7538  -53.6965 H         1 UNK         0.0600 
    128 H128       -2.4826  -13.1594  -54.5715 H         1 UNK         0.0600 
    129 H129       -0.7837  -12.7022  -54.7205 H         1 UNK         0.0600 
    130 H130        0.5767  -13.9720  -53.5086 H         1 UNK         0.3000 
    131 H131        1.4687  -15.2423  -51.9898 H         1 UNK         0.0600 
    132 H132       -0.6597  -16.6933  -52.6457 H         1 UNK         0.0800 
    133 H133       -1.2021  -16.3957  -51.0344 H         1 UNK         0.0800 
    134 H134        1.6987  -17.6759  -53.3271 H         1 UNK         0.0800 
    135 H135        0.3967  -18.8409  -53.2098 H         1 UNK         0.0800 
    136 H136        1.4038  -20.7743  -54.1483 H         1 UNK         0.1150 
    137 H137        5.0162  -22.3891  -52.5034 H         1 UNK         0.1150 
    138 H138        3.5335  -18.6168  -51.1197 H         1 UNK         0.1150 
    139 H139        6.4903  -20.6684  -51.2868 H         1 UNK         0.0800 
    140 H140        5.7285  -19.3443  -50.4482 H         1 UNK         0.0800 
    141 H141        3.5607  -19.9144  -49.0937 H         1 UNK         0.0800 
    142 H142        4.2866  -20.1837  -47.5494 H         1 UNK         0.0800 
    143 H143        2.9335  -22.5601  -48.8928 H         1 UNK         0.0600 
    144 H144        3.9044  -22.0264  -46.2905 H         1 UNK         0.3000 
    145 H145        1.9015  -24.2585  -44.4013 H         1 UNK         0.0600 
    146 H146        4.1123  -25.2197  -43.8510 H         1 UNK         0.0600 
    147 H147        3.6314  -25.7166  -45.4650 H         1 UNK         0.0600 
    148 H148        4.8364  -24.4503  -45.2638 H         1 UNK         0.0600 
    149 H149        4.1028  -22.7285  -43.5939 H         1 UNK         0.3000 
    150 H150        4.0052  -20.9042  -42.4520 H         1 UNK         0.0600 
    151 H151        3.8394  -19.3557  -44.3808 H         1 UNK         0.0600 
    152 H152        3.6366  -18.4845  -42.8682 H         1 UNK         0.0600 
    153 H153        2.2356  -18.8489  -43.8703 H         1 UNK         0.0600 
    154 H154        1.5549  -19.5704  -41.6206 H         1 UNK         0.3000 
    155 H155        1.1532  -21.7264  -38.7612 H         1 UNK         0.0600 
    156 H156        2.2186  -18.8570  -38.8807 H         1 UNK         0.0600 
    157 H157        3.0362  -20.2144  -38.1134 H         1 UNK         0.0600 
    158 H158        1.5035  -19.6429  -37.4736 H         1 UNK         0.0600 
    159 H159       -0.0071  -19.6039  -40.4840 H         1 UNK         0.3000 
    160 H160       -3.2296  -20.4339  -39.3821 H         1 UNK         0.0600 
    161 H161       -1.9264  -17.7941  -38.5199 H         1 UNK         0.0600 
    162 H162       -2.7905  -18.8991  -37.4564 H         1 UNK         0.0600 
    163 H163       -3.6537  -18.0701  -38.7419 H         1 UNK         0.0600 
    164 H164       -2.2201  -18.2007  -40.9004 H         1 UNK         0.3000 
    165 H165       -1.3327  -19.8168  -43.7782 H         1 UNK         0.0600 
    166 H166       -3.1584  -18.7264  -45.0730 H         1 UNK         0.0600 
    167 H167       -3.7650  -20.1532  -44.2518 H         1 UNK         0.0600 
    168 H168       -4.1207  -18.5548  -43.6076 H         1 UNK         0.0600 
    169 H169       -2.0756  -17.1188  -43.5437 H         1 UNK         0.3000 
    170 H170        0.4743  -15.8178  -41.5382 H         1 UNK         0.0600 
    171 H171        2.0072  -16.4205  -43.3955 H         1 UNK         0.0600 
    172 H172        0.7659  -16.0341  -44.5800 H         1 UNK         0.0600 
    173 H173        1.4662  -14.7616  -43.5782 H         1 UNK         0.0600 
    174 H174       -1.0449  -14.5992  -43.6194 H         1 UNK         0.3000 
    175 H175       -4.1561  -14.3972  -42.1167 H         1 UNK         0.0600 
    176 H176       -2.1258  -12.1019  -42.0059 H         1 UNK         0.0600 
    177 H177       -3.8825  -11.9375  -41.9786 H         1 UNK         0.0600 
    178 H178       -3.0515  -12.7076  -40.6376 H         1 UNK         0.0600 
    179 H179       -3.1383  -12.8045  -44.1819 H         1 UNK         0.3000 
    180 H180       -4.0334  -15.0729  -46.8096 H         1 UNK         0.0600 
    181 H181       -4.2180  -12.1520  -45.9194 H         1 UNK         0.0600 
    182 H182       -5.5610  -13.2907  -45.9581 H         1 UNK         0.0600 
    183 H183       -4.7545  -12.8346  -47.4491 H         1 UNK         0.0600 
    184 H184       -2.0358  -12.9193  -46.7116 H         1 UNK         0.3000 
    185 H185       -0.3456  -13.1138  -48.1597 H         1 UNK         0.0600 
    186 H186        1.1901  -15.4695  -46.9159 H         1 UNK         0.0600 
    187 H187        1.8971  -13.9619  -47.4856 H         1 UNK         0.0600 
    188 H188        0.8248  -13.9533  -46.0943 H         1 UNK         0.0600 
    189 H189       -0.3926  -15.7808  -49.3286 H         1 UNK         0.3000 
    190 H190        1.8289  -20.0910  -46.5268 H         1 UNK         0.3000 
    191 H191       -0.3511  -19.1600  -48.1263 H         1 UNK         0.0600 
    192 H192       -0.9863  -17.9903  -45.9887 H         1 UNK         0.0600 
    193 H193        0.6924  -17.7396  -46.4385 H         1 UNK         0.0600 
    194 H194        0.2889  -18.8738  -45.1543 H         1 UNK         0.0600 
    195 H195       -0.0954  -21.6334  -45.5538 H         1 UNK         0.3000 
    196 H196       -2.8653  -22.2043  -45.2960 H         1 UNK         0.0600 
    197 H197       -2.0786  -24.2978  -44.2235 H         1 UNK         0.0600 
    198 H198       -1.1502  -22.9225  -43.6453 H         1 UNK         0.0600 
    199 H199       -0.4490  -24.0260  -44.8258 H         1 UNK         0.0600 
    200 H200       -0.3305  -23.7721  -47.3491 H         1 UNK         0.3000 
    201 H201       -2.0665  -25.5926  -48.6751 H         1 UNK         0.0600 
    202 H202        0.3983  -25.8688  -48.6076 H         1 UNK         0.0600 
    203 H203        0.6166  -24.4024  -49.5621 H         1 UNK         0.0600 
    204 H204       -0.1585  -25.8141  -50.2726 H         1 UNK         0.0600 
    205 H205       -1.1057  -22.2396  -49.4358 H         1 UNK         0.3000 
    206 H206       -2.4664  -22.1167  -51.9441 H         1 UNK         0.0600 
    207 H207       -0.5548  -20.6353  -51.3514 H         1 UNK         0.0600 
    208 H208       -1.9625  -19.6791  -51.7667 H         1 UNK         0.0600 
    209 H209       -1.5181  -19.8798  -50.0791 H         1 UNK         0.0600 
    210 H210       -3.7620  -22.2328  -48.8578 H         1 UNK         0.3000 
    211 H211       -5.7052  -21.8839  -47.8935 H         1 UNK         0.0600 
    212 H212       -6.8708  -21.7108  -50.7222 H         1 UNK         0.0600 
    213 H213       -7.7968  -21.9278  -49.2443 H         1 UNK         0.0600 
    214 H214       -6.6695  -23.1703  -49.7621 H         1 UNK         0.0600 
    215 H215       -4.0418  -19.8058  -47.8600 H         1 UNK         0.3000 
    216 H216       -3.8180  -17.6949  -47.3025 H         1 UNK         0.0600 
    217 H217       -5.7412  -16.5344  -46.1967 H         1 UNK         0.0600 
    218 H218       -5.6432  -18.2049  -45.6924 H         1 UNK         0.0600 
    219 H219       -6.8625  -17.7177  -46.8573 H         1 UNK         0.0600 
    220 H220       -6.5583  -16.0400  -48.0937 H         1 UNK         0.3000 
    221 H221       -5.3312  -14.4977  -50.1243 H         1 UNK         0.0600 
    222 H222       -8.2435  -14.5923  -49.1678 H         1 UNK         0.0600 
    223 H223       -6.9608  -13.6026  -48.4706 H         1 UNK         0.0600 
    224 H224       -7.5187  -13.2918  -50.1049 H         1 UNK         0.0600 
    225 H225       -6.9427  -17.5004  -50.5023 H         1 UNK         0.3000 
    226 H226       -8.0963  -17.1375  -53.1098 H         1 UNK         0.0600 
    227 H227       -7.0564  -19.6624  -51.7339 H         1 UNK         0.0600 
    228 H228       -8.6965  -19.0317  -51.5944 H         1 UNK         0.0600 
    229 H229       -8.1058  -19.6215  -53.1431 H         1 UNK         0.0600 
    230 H230       -4.8286  -17.6983  -51.9564 H         1 UNK         0.3000 
    231 H231       -2.8277  -17.7287  -52.8651 H         1 UNK         0.0600 
    232 H232       -2.3943  -16.1237  -54.6696 H         1 UNK         0.0600 
    233 H233       -3.6427  -15.4696  -53.6184 H         1 UNK         0.0600 
    234 H234       -4.0787  -16.1591  -55.1779 H         1 UNK         0.0600 
    235 H235       -4.1291  -20.1222  -53.2976 H         1 UNK         0.3000 
    236 H236       -3.4513  -21.0863  -56.0138 H         1 UNK         0.0600 
    237 H237       -5.5859  -21.7734  -54.8417 H         1 UNK         0.0600 
    238 H238       -4.5773  -23.1400  -55.2654 H         1 UNK         0.0600 
    239 H239       -4.6275  -22.5675  -53.5976 H         1 UNK         0.0600 
    240 H240       -2.7507  -23.7644  -54.8180 H         1 UNK         0.3000 
    241 H241       -0.6723  -23.5541  -53.0021 H         1 UNK         0.0600 
    242 H242       -0.7375  -27.2272  -53.0162 H         1 UNK         0.3800 
    243 H243        0.4593  -25.9635  -52.8830 H         1 UNK         0.3800 
    244 H244        0.4564  -24.5116  -55.6819 H         1 UNK         0.0800 
    245 H245        0.5563  -22.8377  -55.2355 H         1 UNK         0.0800 
    246 H246        4.1033  -23.3351  -54.5061 H         1 UNK         0.0800 
    247 H247        2.8403  -22.5324  -55.3881 H         1 UNK         0.0800 
@<TRIPOS>BOND
     1    1    2 1    
     2    1  127 1    
     3    1  128 1    
     4    1  129 1    
     5    2    3 2    
     6    2    4 am   BACKBONE|DICT|INTERRES
     7    4    5 1    
     8    4  130 1    
     9    5    6 1    
    10    5   65 1    
    11    5  131 1    
    12    6    7 1    
    13    6  132 1    
    14    6  133 1    
    15    7    8 1    
    16    8    9 1    
    17    8  134 1    
    18    8  135 1    
    19    9   10 ar   
    20    9   14 ar   
    21   10   11 ar   
    22   10  136 1    
    23   11   12 ar   
    24   11  126 1    
    25   12   13 ar   
    26   12  137 1    
    27   13   14 ar   
    28   13   15 1    
    29   14  138 1    
    30   15   16 1    
    31   15  139 1    
    32   15  140 1    
    33   16   17 1    
    34   17   18 1    
    35   17  141 1    
    36   17  142 1    
    37   18   19 1    
    38   18   67 1    
    39   18  143 1    
    40   19   20 am   BACKBONE|DICT|INTERRES
    41   19  144 1    
    42   20   21 2    
    43   20   22 1    
    44   22   23 1    
    45   22   24 1    
    46   22  145 1    
    47   23  146 1    
    48   23  147 1    
    49   23  148 1    
    50   24   25 am   BACKBONE|DICT|INTERRES
    51   24  149 1    
    52   25   26 2    
    53   25   27 1    
    54   27   28 1    
    55   27   29 1    
    56   27  150 1    
    57   28  151 1    
    58   28  152 1    
    59   28  153 1    
    60   29   30 am   BACKBONE|DICT|INTERRES
    61   29  154 1    
    62   30   31 2    
    63   30   32 1    
    64   32   33 1    
    65   32   34 1    
    66   32  155 1    
    67   33  156 1    
    68   33  157 1    
    69   33  158 1    
    70   34   35 am   BACKBONE|DICT|INTERRES
    71   34  159 1    
    72   35   36 2    
    73   35   37 1    
    74   37   38 1    
    75   37   39 1    
    76   37  160 1    
    77   38  161 1    
    78   38  162 1    
    79   38  163 1    
    80   39   40 am   BACKBONE|DICT|INTERRES
    81   39  164 1    
    82   40   41 2    
    83   40   42 1    
    84   42   43 1    
    85   42   44 1    
    86   42  165 1    
    87   43  166 1    
    88   43  167 1    
    89   43  168 1    
    90   44   45 am   BACKBONE|DICT|INTERRES
    91   44  169 1    
    92   45   46 2    
    93   45   47 1    
    94   47   48 1    
    95   47   49 1    
    96   47  170 1    
    97   48  171 1    
    98   48  172 1    
    99   48  173 1    
   100   49   50 am   BACKBONE|DICT|INTERRES
   101   49  174 1    
   102   50   51 2    
   103   50   52 1    
   104   52   53 1    
   105   52   54 1    
   106   52  175 1    
   107   53  176 1    
   108   53  177 1    
   109   53  178 1    
   110   54   55 am   BACKBONE|DICT|INTERRES
   111   54  179 1    
   112   55   56 2    
   113   55   57 1    
   114   57   58 1    
   115   57   59 1    
   116   57  180 1    
   117   58  181 1    
   118   58  182 1    
   119   58  183 1    
   120   59   60 am   BACKBONE|DICT|INTERRES
   121   59  184 1    
   122   60   61 2    
   123   60   62 1    
   124   62   63 1    
   125   62   64 1    
   126   62  185 1    
   127   63  186 1    
   128   63  187 1    
   129   63  188 1    
   130   64   65 am   BACKBONE|DICT|INTERRES
   131   64  189 1    
   132   65   66 2    
   133   67   68 2    
   134   67   69 am   BACKBONE|DICT|INTERRES
   135   69   70 1    
   136   69  190 1    
   137   70   71 1    
   138   70   72 1    
   139   70  191 1    
   140   71  192 1    
   141   71  193 1    
   142   71  194 1    
   143   72   73 2    
   144   72   74 am   BACKBONE|DICT|INTERRES
   145   74   75 1    
   146   74  195 1    
   147   75   76 1    
   148   75   77 1    
   149   75  196 1    
   150   76  197 1    
   151   76  198 1    
   152   76  199 1    
   153   77   78 2    
   154   77   79 am   BACKBONE|DICT|INTERRES
   155   79   80 1    
   156   79  200 1    
   157   80   81 1    
   158   80   82 1    
   159   80  201 1    
   160   81  202 1    
   161   81  203 1    
   162   81  204 1    
   163   82   83 2    
   164   82   84 am   BACKBONE|DICT|INTERRES
   165   84   85 1    
   166   84  205 1    
   167   85   86 1    
   168   85   87 1    
   169   85  206 1    
   170   86  207 1    
   171   86  208 1    
   172   86  209 1    
   173   87   88 2    
   174   87   89 am   BACKBONE|DICT|INTERRES
   175   89   90 1    
   176   89  210 1    
   177   90   91 1    
   178   90   92 1    
   179   90  211 1    
   180   91  212 1    
   181   91  213 1    
   182   91  214 1    
   183   92   93 2    
   184   92   94 am   BACKBONE|DICT|INTERRES
   185   94   95 1    
   186   94  215 1    
   187   95   96 1    
   188   95   97 1    
   189   95  216 1    
   190   96  217 1    
   191   96  218 1    
   192   96  219 1    
   193   97   98 2    
   194   97   99 am   BACKBONE|DICT|INTERRES
   195   99  100 1    
   196   99  220 1    
   197  100  101 1    
   198  100  102 1    
   199  100  221 1    
   200  101  222 1    
   201  101  223 1    
   202  101  224 1    
   203  102  103 2    
   204  102  104 am   BACKBONE|DICT|INTERRES
   205  104  105 1    
   206  104  225 1    
   207  105  106 1    
   208  105  107 1    
   209  105  226 1    
   210  106  227 1    
   211  106  228 1    
   212  106  229 1    
   213  107  108 2    
   214  107  109 am   BACKBONE|DICT|INTERRES
   215  109  110 1    
   216  109  230 1    
   217  110  111 1    
   218  110  112 1    
   219  110  231 1    
   220  111  232 1    
   221  111  233 1    
   222  111  234 1    
   223  112  113 2    
   224  112  114 am   BACKBONE|DICT|INTERRES
   225  114  115 1    
   226  114  235 1    
   227  115  116 1    
   228  115  117 1    
   229  115  236 1    
   230  116  237 1    
   231  116  238 1    
   232  116  239 1    
   233  117  118 2    
   234  117  119 am   BACKBONE|DICT|INTERRES
   235  119  120 1    
   236  119  240 1    
   237  120  121 1    
   238  120  124 1    
   239  120  241 1    
   240  121  122 am   BACKBONE|DICT|INTERRES
   241  121  123 2    
   242  122  242 1    
   243  122  243 1    
   244  124  125 1    
   245  124  244 1    
   246  124  245 1    
   247  125  126 1    
   248  126  246 1    
   249  126  247 1    
@<TRIPOS>SUBSTRUCTURE
     1 UNK         1 GROUP             0       ****    0 ROOT    
