@<TRIPOS>MOLECULE
3R540
247   249    1
SMALL
USER_CHARGES


@<TRIPOS>ATOM
      1 CA          1.7837   -8.4757  -46.4999 C.3       0 UNK        -0.1800 
      2 C           1.8648   -9.9948  -46.4825 C.2       0 UNK         0.5000 
      3 O           2.9354  -10.5497  -46.2354 O.2       0 UNK        -0.5000 
      4 N           0.7346  -10.6737  -46.7228 N.am      1 UNK        -0.5000 
      5 CA          0.6217  -12.1386  -46.8078 C.3       1 UNK         0.1400 
      6 C6         -0.7694  -12.5962  -47.3038 C.3       23 UNK        -0.0398 
      7 S7         -1.1894  -11.9146  -48.9424 S.3       23 UNK        -0.2404 
      8 C8         -0.4524  -13.1578  -50.0586 C.3       23 UNK        -0.0205 
      9 C9         -1.0572  -14.5518  -49.9219 C.ar      23 UNK        -0.0193 
     10 C10        -2.4426  -14.7314  -49.8636 C.ar      23 UNK        -0.1150 
     11 C11        -2.9978  -16.0105  -49.7674 C.ar      23 UNK        -0.0193 
     12 C12        -2.1491  -17.1211  -49.7142 C.ar      23 UNK        -0.1150 
     13 C13        -0.7620  -16.9601  -49.7982 C.ar      23 UNK        -0.0193 
     14 C14        -0.2235  -15.6736  -49.8955 C.ar      23 UNK        -0.1150 
     15 C15         0.1505  -18.1783  -49.8453 C.3       23 UNK        -0.0205 
     16 S16         1.2965  -18.2898  -48.4314 S.3       23 UNK        -0.2404 
     17 C17         0.1762  -18.4026  -46.9987 C.3       23 UNK        -0.0398 
     18 CA         -0.2061  -19.8639  -46.6541 C.3       11 UNK         0.1400 
     19 N          -0.4477  -20.0481  -45.2228 N.am      11 UNK        -0.5000 
     20 C          -0.6762  -21.2247  -44.6231 C.2       10 UNK         0.5000 
     21 O          -0.6252  -22.3101  -45.1991 O.2       10 UNK        -0.5000 
     22 CA         -1.0916  -21.1718  -43.1435 C.3       10 UNK         0.1400 
     23 CB          0.1385  -21.1159  -42.2259 C.3       10 UNK        -0.1800 
     24 N          -1.9713  -20.0335  -42.8723 N.am      10 UNK        -0.5000 
     25 C          -3.2341  -19.9400  -43.3140 C.2       9 UNK         0.5000 
     26 O          -3.8037  -20.8321  -43.9419 O.2       9 UNK        -0.5000 
     27 CA         -3.9678  -18.6129  -43.0468 C.3       9 UNK         0.1400 
     28 CB         -4.5834  -18.6092  -41.6398 C.3       9 UNK        -0.1800 
     29 N          -3.0966  -17.4464  -43.1976 N.am      9 UNK        -0.5000 
     30 C          -2.5692  -17.0353  -44.3601 C.2       8 UNK         0.5000 
     31 O          -2.7944  -17.5766  -45.4416 O.2       8 UNK        -0.5000 
     32 CA         -1.5788  -15.8558  -44.2893 C.3       8 UNK         0.1400 
     33 CB         -2.3328  -14.5194  -44.3600 C.3       8 UNK        -0.1800 
     34 N          -0.7371  -15.8784  -43.0871 N.am      8 UNK        -0.5000 
     35 C           0.1069  -16.8720  -42.7778 C.2       7 UNK         0.5000 
     36 O           0.2263  -17.8959  -43.4571 O.2       7 UNK        -0.5000 
     37 CA          0.8858  -16.7425  -41.4598 C.3       7 UNK         0.1400 
     38 CB         -0.0688  -16.9392  -40.2634 C.3       7 UNK        -0.1800 
     39 N           1.9235  -17.7673  -41.4690 N.am      7 UNK        -0.5000 
     40 C           2.8752  -17.9981  -40.5575 C.2       6 UNK         0.5000 
     41 O           3.0360  -17.3211  -39.5416 O.2       6 UNK        -0.5000 
     42 CA          3.8043  -19.2021  -40.8207 C.3       6 UNK         0.1400 
     43 CB          3.3240  -20.4332  -40.0362 C.3       6 UNK        -0.1800 
     44 N           3.8818  -19.5431  -42.2442 N.am      6 UNK        -0.5000 
     45 C           4.6635  -18.9011  -43.1219 C.2       5 UNK         0.5000 
     46 O           5.5158  -18.0748  -42.7864 O.2       5 UNK        -0.5000 
     47 CA          4.4740  -19.2301  -44.6226 C.3       5 UNK         0.1400 
     48 CB          3.1289  -19.9189  -44.9502 C.3       5 UNK        -0.1800 
     49 N           4.6591  -18.0419  -45.4662 N.am      5 UNK        -0.5000 
     50 C           3.9812  -16.8880  -45.3743 C.2       4 UNK         0.5000 
     51 O           3.0259  -16.7059  -44.6172 O.2       4 UNK        -0.5000 
     52 CA          4.4598  -15.7430  -46.2815 C.3       4 UNK         0.1400 
     53 CB          3.5990  -15.6391  -47.5497 C.3       4 UNK        -0.1800 
     54 N           4.3873  -14.4827  -45.5478 N.am      4 UNK        -0.5000 
     55 C           5.3813  -13.9865  -44.7976 C.2       3 UNK         0.5000 
     56 O           6.4985  -14.5010  -44.7268 O.2       3 UNK        -0.5000 
     57 CA          5.1059  -12.6959  -43.9992 C.3       3 UNK         0.1400 
     58 CB          5.8042  -11.4962  -44.6587 C.3       3 UNK        -0.1800 
     59 N           3.6794  -12.4010  -43.8645 N.am      3 UNK        -0.5000 
     60 C           2.8691  -12.9848  -42.9688 C.2       2 UNK         0.5000 
     61 O           3.2617  -13.7687  -42.1051 O.2       2 UNK        -0.5000 
     62 CA          1.3644  -12.6508  -43.0481 C.3       2 UNK         0.1400 
     63 CB          0.9798  -11.6196  -41.9771 C.3       2 UNK        -0.1800 
     64 N           0.9343  -12.1586  -44.3580 N.am      2 UNK        -0.5000 
     65 C           0.9773  -12.8670  -45.4954 C.2       1 UNK         0.5000 
     66 O           1.3154  -14.0468  -45.5404 O.2       1 UNK        -0.5000 
     67 C          -1.4086  -20.3492  -47.4878 C.2       11 UNK         0.5000 
     68 O          -1.2268  -21.1366  -48.4149 O.2       11 UNK        -0.5000 
     69 N          -2.6196  -19.9154  -47.1103 N.am      12 UNK        -0.5000 
     70 CA         -3.8799  -20.3292  -47.7268 C.3       12 UNK         0.1400 
     71 CB         -5.0360  -19.5176  -47.1249 C.3       12 UNK        -0.1800 
     72 C          -4.1457  -21.8417  -47.6084 C.2       12 UNK         0.5000 
     73 O          -4.6032  -22.4513  -48.5741 O.2       12 UNK        -0.5000 
     74 N          -3.8178  -22.4268  -46.4472 N.am      13 UNK        -0.5000 
     75 CA         -3.8944  -23.8664  -46.1962 C.3       13 UNK         0.1400 
     76 CB         -3.7034  -24.1431  -44.6978 C.3       13 UNK        -0.1800 
     77 C          -2.8884  -24.6753  -47.0368 C.2       13 UNK         0.5000 
     78 O          -3.2478  -25.7328  -47.5520 O.2       13 UNK        -0.5000 
     79 N          -1.6594  -24.1626  -47.1889 N.am      14 UNK        -0.5000 
     80 CA         -0.6177  -24.7517  -48.0344 C.3       14 UNK         0.1400 
     81 CB          0.7283  -24.0732  -47.7366 C.3       14 UNK        -0.1800 
     82 C          -0.9543  -24.6656  -49.5360 C.2       14 UNK         0.5000 
     83 O          -0.6762  -25.6054  -50.2808 O.2       14 UNK        -0.5000 
     84 N          -1.5685  -23.5488  -49.9443 N.am      15 UNK        -0.5000 
     85 CA         -2.0232  -23.2764  -51.3068 C.3       15 UNK         0.1400 
     86 CB         -2.1940  -21.7553  -51.4670 C.3       15 UNK        -0.1800 
     87 C          -3.3264  -24.0031  -51.6934 C.2       15 UNK         0.5000 
     88 O          -3.7394  -23.8927  -52.8493 O.2       15 UNK        -0.5000 
     89 N          -3.9930  -24.6760  -50.7435 N.am      16 UNK        -0.5000 
     90 CA         -5.2834  -25.3434  -50.9330 C.3       16 UNK         0.1400 
     91 CB         -5.7469  -25.9690  -49.6108 C.3       16 UNK        -0.1800 
     92 C          -5.2323  -26.3944  -52.0554 C.2       16 UNK         0.5000 
     93 O          -4.3954  -27.2983  -52.0065 O.2       16 UNK        -0.5000 
     94 N          -6.0896  -26.2103  -53.0692 N.am      17 UNK        -0.5000 
     95 CA         -6.1941  -26.9466  -54.3379 C.3       17 UNK         0.1400 
     96 CB         -6.5056  -28.4374  -54.1061 C.3       17 UNK        -0.1800 
     97 C          -4.9866  -26.7688  -55.2834 C.2       17 UNK         0.5000 
     98 O          -5.1879  -26.5872  -56.4843 O.2       17 UNK        -0.5000 
     99 N          -3.7659  -26.8039  -54.7355 N.am      18 UNK        -0.5000 
    100 CA        -2.4923  -26.6762  -55.4459 C.3       18 UNK         0.1400 
    101 CB        -1.3474  -26.9532  -54.4593 C.3       18 UNK        -0.1800 
    102 C         -2.2912  -25.3093  -56.1265 C.2       18 UNK         0.5000 
    103 O         -1.7031  -25.2509  -57.2073 O.2       18 UNK        -0.5000 
    104 N         -2.7853  -24.2436  -55.4884 N.am      19 UNK        -0.5000 
    105 CA        -2.7114  -22.8634  -55.9571 C.3       19 UNK         0.1400 
    106 CB        -1.4202  -22.2042  -55.4365 C.3       19 UNK        -0.1800 
    107 C         -3.9899  -22.1079  -55.5570 C.2       19 UNK         0.5000 
    108 O         -3.9217  -20.9601  -55.1153 O.2       19 UNK        -0.5000 
    109 N         -5.1433  -22.7812  -55.6870 N.am      20 UNK        -0.5000 
    110 CA        -6.5037  -22.2559  -55.4958 C.3       20 UNK         0.1400 
    111 CB        -6.8572  -21.3002  -56.6542 C.3       20 UNK        -0.1800 
    112 C         -6.7773  -21.6161  -54.1134 C.2       20 UNK         0.5000 
    113 O         -7.6717  -20.7771  -53.9981 O.2       20 UNK        -0.5000 
    114 N         -6.0018  -22.0160  -53.0947 N.am      21 UNK        -0.5000 
    115 CA        -6.0314  -21.5338  -51.7096 C.3       21 UNK         0.1400 
    116 CB        -7.3940  -21.8233  -51.0445 C.3       21 UNK        -0.1800 
    117 C         -5.5844  -20.0688  -51.5172 C.2       21 UNK         0.5000 
    118 O         -5.7837  -19.5384  -50.4249 O.2       21 UNK        -0.5000 
    119 N         -4.9774  -19.4323  -52.5319 N.am      22 UNK        -0.5000 
    120 CA        -4.4938  -18.0404  -52.4420 C.3       22 UNK         0.1400 
    121 C         -3.4673  -17.6103  -53.5320 C.2       22 UNK         0.5000 
    122 N         -3.0547  -18.4575  -54.4643 N.am      22 UNK        -0.7600 
    123 O         -3.0065  -16.4732  -53.5324 O.2       22 UNK        -0.5000 
    124 C124       -5.6557  -17.0110  -52.2750 C.3       23 UNK        -0.0398 
    125 S125       -5.3134  -15.5374  -51.2417 S.3       23 UNK        -0.2404 
    126 C126       -4.5132  -16.1746  -49.7251 C.3       23 UNK        -0.0205 
    127 H127        2.0798   -8.0735  -45.5311 H         1 UNK         0.0600 
    128 H128        2.4567   -8.0739  -47.2573 H         1 UNK         0.0600 
    129 H129        0.7750   -8.1260  -46.7207 H         1 UNK         0.0600 
    130 H130       -0.1127  -10.1628  -46.9279 H         1 UNK         0.3000 
    131 H131        1.3600  -12.4688  -47.5417 H         1 UNK         0.0600 
    132 H132       -0.8296  -13.6855  -47.3450 H         1 UNK         0.0800 
    133 H133       -1.5441  -12.2812  -46.6027 H         1 UNK         0.0800 
    134 H134        0.6243  -13.1869  -49.8843 H         1 UNK         0.0800 
    135 H135       -0.5876  -12.8242  -51.0881 H         1 UNK         0.0800 
    136 H136       -3.0967  -13.8720  -49.9073 H         1 UNK         0.1150 
    137 H137       -2.5681  -18.1139  -49.6354 H         1 UNK         0.1150 
    138 H138        0.8486  -15.5516  -49.9642 H         1 UNK         0.1150 
    139 H139       -0.4300  -19.0974  -49.9207 H         1 UNK         0.0800 
    140 H140        0.7420  -18.1300  -50.7605 H         1 UNK         0.0800 
    141 H141       -0.6975  -17.7656  -47.1421 H         1 UNK         0.0800 
    142 H142        0.7210  -17.9565  -46.1648 H         1 UNK         0.0800 
    143 H143        0.6400  -20.5097  -46.8988 H         1 UNK         0.0600 
    144 H144       -0.4447  -19.2095  -44.6487 H         1 UNK         0.3000 
    145 H145       -1.6400  -22.0881  -42.9155 H         1 UNK         0.0600 
    146 H146       -0.1532  -21.0914  -41.1759 H         1 UNK         0.0600 
    147 H147        0.7679  -21.9952  -42.3684 H         1 UNK         0.0600 
    148 H148        0.7538  -20.2401  -42.4239 H         1 UNK         0.0600 
    149 H149       -1.5550  -19.2360  -42.4159 H         1 UNK         0.3000 
    150 H150       -4.7778  -18.5281  -43.7743 H         1 UNK         0.0600 
    151 H151       -5.2519  -19.4606  -41.5046 H         1 UNK         0.0600 
    152 H152       -5.1705  -17.7067  -41.4689 H         1 UNK         0.0600 
    153 H153       -3.8191  -18.6652  -40.8636 H         1 UNK         0.0600 
    154 H154       -2.8584  -16.9423  -42.3567 H         1 UNK         0.3000 
    155 H155       -0.9178  -15.9234  -45.1562 H         1 UNK         0.0600 
    156 H156       -3.0279  -14.4038  -43.5276 H         1 UNK         0.0600 
    157 H157       -1.6471  -13.6736  -44.3395 H         1 UNK         0.0600 
    158 H158       -2.9099  -14.4476  -45.2830 H         1 UNK         0.0600 
    159 H159       -0.8188  -15.0881  -42.4655 H         1 UNK         0.3000 
    160 H160        1.3563  -15.7589  -41.4173 H         1 UNK         0.0600 
    161 H161       -0.5152  -17.9345  -40.2668 H         1 UNK         0.0600 
    162 H162       -0.8827  -16.2137  -40.2806 H         1 UNK         0.0600 
    163 H163        0.4455  -16.8089  -39.3117 H         1 UNK         0.0600 
    164 H164        1.9002  -18.3282  -42.3114 H         1 UNK         0.3000 
    165 H165        4.8001  -18.9399  -40.4567 H         1 UNK         0.0600 
    166 H166        3.9949  -21.2801  -40.1813 H         1 UNK         0.0600 
    167 H167        3.2927  -20.2244  -38.9660 H         1 UNK         0.0600 
    168 H168        2.3231  -20.7413  -40.3377 H         1 UNK         0.0600 
    169 H169        3.2341  -20.2379  -42.5840 H         1 UNK         0.3000 
    170 H170        5.2748  -19.9219  -44.8865 H         1 UNK         0.0600 
    171 H171        3.0507  -20.8969  -44.4747 H         1 UNK         0.0600 
    172 H172        2.2780  -19.3201  -44.6256 H         1 UNK         0.0600 
    173 H173        3.0252  -20.0800  -46.0232 H         1 UNK         0.0600 
    174 H174        5.4435  -18.0849  -46.1010 H         1 UNK         0.3000 
    175 H175        5.4911  -15.9299  -46.5882 H         1 UNK         0.0600 
    176 H176        2.5363  -15.5668  -47.3163 H         1 UNK         0.0600 
    177 H177        3.8720  -14.7684  -48.1458 H         1 UNK         0.0600 
    178 H178        3.7355  -16.5187  -48.1791 H         1 UNK         0.0600 
    179 H179        3.4621  -14.0783  -45.4700 H         1 UNK         0.3000 
    180 H180        5.5346  -12.8275  -43.0035 H         1 UNK         0.0600 
    181 H181        5.4573  -11.3407  -45.6808 H         1 UNK         0.0600 
    182 H182        6.8835  -11.6477  -44.7000 H         1 UNK         0.0600 
    183 H183        5.6262  -10.5775  -44.0996 H         1 UNK         0.0600 
    184 H184        3.2861  -11.7676  -44.5526 H         1 UNK         0.3000 
    185 H185        0.8202  -13.5732  -42.8443 H         1 UNK         0.0600 
    186 H186        1.2580  -11.9674  -40.9813 H         1 UNK         0.0600 
    187 H187        1.4790  -10.6640  -42.1425 H         1 UNK         0.0600 
    188 H188       -0.0956  -11.4410  -41.9686 H         1 UNK         0.0600 
    189 H189        0.6557  -11.1896  -44.4104 H         1 UNK         0.3000 
    190 H190       -2.6848  -19.2269  -46.3647 H         1 UNK         0.3000 
    191 H191       -3.8116  -20.0906  -48.7886 H         1 UNK         0.0600 
    192 H192       -5.1410  -19.6960  -46.0549 H         1 UNK         0.0600 
    193 H193       -5.9829  -19.7809  -47.5979 H         1 UNK         0.0600 
    194 H194       -4.8850  -18.4483  -47.2735 H         1 UNK         0.0600 
    195 H195       -3.5083  -21.8441  -45.6765 H         1 UNK         0.3000 
    196 H196       -4.8973  -24.1981  -46.4734 H         1 UNK         0.0600 
    197 H197       -3.8000  -25.2080  -44.4829 H         1 UNK         0.0600 
    198 H198       -4.4523  -23.6215  -44.1016 H         1 UNK         0.0600 
    199 H199       -2.7199  -23.8270  -44.3508 H         1 UNK         0.0600 
    200 H200       -1.4121  -23.3175  -46.6821 H         1 UNK         0.3000 
    201 H201       -0.5285  -25.8085  -47.7743 H         1 UNK         0.0600 
    202 H202        1.0055  -24.1918  -46.6890 H         1 UNK         0.0600 
    203 H203        0.6996  -23.0053  -47.9545 H         1 UNK         0.0600 
    204 H204        1.5274  -24.5099  -48.3368 H         1 UNK         0.0600 
    205 H205       -1.6884  -22.7948  -49.2727 H         1 UNK         0.3000 
    206 H206       -1.2539  -23.6089  -52.0065 H         1 UNK         0.0600 
    207 H207       -2.5781  -21.4913  -52.4528 H         1 UNK         0.0600 
    208 H208       -2.8882  -21.3526  -50.7296 H         1 UNK         0.0600 
    209 H209       -1.2424  -21.2386  -51.3418 H         1 UNK         0.0600 
    210 H210       -3.5995  -24.7115  -49.8136 H         1 UNK         0.3000 
    211 H211       -6.0054  -24.5730  -51.2061 H         1 UNK         0.0600 
    212 H212       -5.0637  -26.7503  -49.2760 H         1 UNK         0.0600 
    213 H213       -6.7340  -26.4202  -49.7174 H         1 UNK         0.0600 
    214 H214       -5.8146  -25.2189  -48.8224 H         1 UNK         0.0600 
    215 H215       -6.7137  -25.4190  -53.0029 H         1 UNK         0.3000 
    216 H216       -7.0537  -26.5146  -54.8530 H         1 UNK         0.0600 
    217 H217       -6.6993  -28.9439  -55.0524 H         1 UNK         0.0600 
    218 H218       -7.3912  -28.5628  -53.4833 H         1 UNK         0.0600 
    219 H219       -5.6791  -28.9596  -53.6238 H         1 UNK         0.0600 
    220 H220       -3.7182  -26.9696  -53.7338 H         1 UNK         0.3000 
    221 H221       -2.4681  -27.4405  -56.2252 H         1 UNK         0.0600 
    222 H222       -1.3484  -26.2410  -53.6326 H         1 UNK         0.0600 
    223 H223       -1.4247  -27.9552  -54.0369 H         1 UNK         0.0600 
    224 H224       -0.3776  -26.8829  -54.9538 H         1 UNK         0.0600 
    225 H225       -3.2355  -24.3677  -54.5839 H         1 UNK         0.3000 
    226 H226       -2.6863  -22.8487  -57.0484 H         1 UNK         0.0600 
    227 H227       -0.5372  -22.7256  -55.8059 H         1 UNK         0.0600 
    228 H228       -1.3438  -21.1674  -55.7662 H         1 UNK         0.0600 
    229 H229       -1.3780  -22.2107  -54.3481 H         1 UNK         0.0600 
    230 H230       -5.0866  -23.7309  -56.0283 H         1 UNK         0.3000 
    231 H231       -7.1717  -23.1157  -55.5618 H         1 UNK         0.0600 
    232 H232       -7.9077  -21.0090  -56.6211 H         1 UNK         0.0600 
    233 H233       -6.6864  -21.7728  -57.6215 H         1 UNK         0.0600 
    234 H234       -6.2622  -20.3870  -56.6176 H         1 UNK         0.0600 
    235 H235       -5.2608  -22.6798  -53.2983 H         1 UNK         0.3000 
    236 H236       -5.2935  -22.1226  -51.1708 H         1 UNK         0.0600 
    237 H237       -7.7100  -22.8526  -51.2105 H         1 UNK         0.0600 
    238 H238       -7.3373  -21.6745  -49.9654 H         1 UNK         0.0600 
    239 H239       -8.1779  -21.1664  -51.4216 H         1 UNK         0.0600 
    240 H240       -4.8277  -19.9165  -53.4080 H         1 UNK         0.3000 
    241 H241       -3.8955  -18.0353  -51.5370 H         1 UNK         0.0600 
    242 H242       -2.3829  -18.1239  -55.1360 H         1 UNK         0.3800 
    243 H243       -3.4061  -19.4082  -54.5666 H         1 UNK         0.3800 
    244 H244       -5.9983  -16.6700  -53.2532 H         1 UNK         0.0800 
    245 H245       -6.5331  -17.4795  -51.8299 H         1 UNK         0.0800 
    246 H246       -4.8939  -15.6113  -48.8722 H         1 UNK         0.0800 
    247 H247       -4.8014  -17.2115  -49.5494 H         1 UNK         0.0800 
@<TRIPOS>BOND
     1    1    2 1    
     2    1  127 1    
     3    1  128 1    
     4    1  129 1    
     5    2    3 2    
     6    2    4 am   BACKBONE|DICT|INTERRES
     7    4    5 1    
     8    4  130 1    
     9    5    6 1    
    10    5   65 1    
    11    5  131 1    
    12    6    7 1    
    13    6  132 1    
    14    6  133 1    
    15    7    8 1    
    16    8    9 1    
    17    8  134 1    
    18    8  135 1    
    19    9   10 ar   
    20    9   14 ar   
    21   10   11 ar   
    22   10  136 1    
    23   11   12 ar   
    24   11  126 1    
    25   12   13 ar   
    26   12  137 1    
    27   13   14 ar   
    28   13   15 1    
    29   14  138 1    
    30   15   16 1    
    31   15  139 1    
    32   15  140 1    
    33   16   17 1    
    34   17   18 1    
    35   17  141 1    
    36   17  142 1    
    37   18   19 1    
    38   18   67 1    
    39   18  143 1    
    40   19   20 am   BACKBONE|DICT|INTERRES
    41   19  144 1    
    42   20   21 2    
    43   20   22 1    
    44   22   23 1    
    45   22   24 1    
    46   22  145 1    
    47   23  146 1    
    48   23  147 1    
    49   23  148 1    
    50   24   25 am   BACKBONE|DICT|INTERRES
    51   24  149 1    
    52   25   26 2    
    53   25   27 1    
    54   27   28 1    
    55   27   29 1    
    56   27  150 1    
    57   28  151 1    
    58   28  152 1    
    59   28  153 1    
    60   29   30 am   BACKBONE|DICT|INTERRES
    61   29  154 1    
    62   30   31 2    
    63   30   32 1    
    64   32   33 1    
    65   32   34 1    
    66   32  155 1    
    67   33  156 1    
    68   33  157 1    
    69   33  158 1    
    70   34   35 am   BACKBONE|DICT|INTERRES
    71   34  159 1    
    72   35   36 2    
    73   35   37 1    
    74   37   38 1    
    75   37   39 1    
    76   37  160 1    
    77   38  161 1    
    78   38  162 1    
    79   38  163 1    
    80   39   40 am   BACKBONE|DICT|INTERRES
    81   39  164 1    
    82   40   41 2    
    83   40   42 1    
    84   42   43 1    
    85   42   44 1    
    86   42  165 1    
    87   43  166 1    
    88   43  167 1    
    89   43  168 1    
    90   44   45 am   BACKBONE|DICT|INTERRES
    91   44  169 1    
    92   45   46 2    
    93   45   47 1    
    94   47   48 1    
    95   47   49 1    
    96   47  170 1    
    97   48  171 1    
    98   48  172 1    
    99   48  173 1    
   100   49   50 am   BACKBONE|DICT|INTERRES
   101   49  174 1    
   102   50   51 2    
   103   50   52 1    
   104   52   53 1    
   105   52   54 1    
   106   52  175 1    
   107   53  176 1    
   108   53  177 1    
   109   53  178 1    
   110   54   55 am   BACKBONE|DICT|INTERRES
   111   54  179 1    
   112   55   56 2    
   113   55   57 1    
   114   57   58 1    
   115   57   59 1    
   116   57  180 1    
   117   58  181 1    
   118   58  182 1    
   119   58  183 1    
   120   59   60 am   BACKBONE|DICT|INTERRES
   121   59  184 1    
   122   60   61 2    
   123   60   62 1    
   124   62   63 1    
   125   62   64 1    
   126   62  185 1    
   127   63  186 1    
   128   63  187 1    
   129   63  188 1    
   130   64   65 am   BACKBONE|DICT|INTERRES
   131   64  189 1    
   132   65   66 2    
   133   67   68 2    
   134   67   69 am   BACKBONE|DICT|INTERRES
   135   69   70 1    
   136   69  190 1    
   137   70   71 1    
   138   70   72 1    
   139   70  191 1    
   140   71  192 1    
   141   71  193 1    
   142   71  194 1    
   143   72   73 2    
   144   72   74 am   BACKBONE|DICT|INTERRES
   145   74   75 1    
   146   74  195 1    
   147   75   76 1    
   148   75   77 1    
   149   75  196 1    
   150   76  197 1    
   151   76  198 1    
   152   76  199 1    
   153   77   78 2    
   154   77   79 am   BACKBONE|DICT|INTERRES
   155   79   80 1    
   156   79  200 1    
   157   80   81 1    
   158   80   82 1    
   159   80  201 1    
   160   81  202 1    
   161   81  203 1    
   162   81  204 1    
   163   82   83 2    
   164   82   84 am   BACKBONE|DICT|INTERRES
   165   84   85 1    
   166   84  205 1    
   167   85   86 1    
   168   85   87 1    
   169   85  206 1    
   170   86  207 1    
   171   86  208 1    
   172   86  209 1    
   173   87   88 2    
   174   87   89 am   BACKBONE|DICT|INTERRES
   175   89   90 1    
   176   89  210 1    
   177   90   91 1    
   178   90   92 1    
   179   90  211 1    
   180   91  212 1    
   181   91  213 1    
   182   91  214 1    
   183   92   93 2    
   184   92   94 am   BACKBONE|DICT|INTERRES
   185   94   95 1    
   186   94  215 1    
   187   95   96 1    
   188   95   97 1    
   189   95  216 1    
   190   96  217 1    
   191   96  218 1    
   192   96  219 1    
   193   97   98 2    
   194   97   99 am   BACKBONE|DICT|INTERRES
   195   99  100 1    
   196   99  220 1    
   197  100  101 1    
   198  100  102 1    
   199  100  221 1    
   200  101  222 1    
   201  101  223 1    
   202  101  224 1    
   203  102  103 2    
   204  102  104 am   BACKBONE|DICT|INTERRES
   205  104  105 1    
   206  104  225 1    
   207  105  106 1    
   208  105  107 1    
   209  105  226 1    
   210  106  227 1    
   211  106  228 1    
   212  106  229 1    
   213  107  108 2    
   214  107  109 am   BACKBONE|DICT|INTERRES
   215  109  110 1    
   216  109  230 1    
   217  110  111 1    
   218  110  112 1    
   219  110  231 1    
   220  111  232 1    
   221  111  233 1    
   222  111  234 1    
   223  112  113 2    
   224  112  114 am   BACKBONE|DICT|INTERRES
   225  114  115 1    
   226  114  235 1    
   227  115  116 1    
   228  115  117 1    
   229  115  236 1    
   230  116  237 1    
   231  116  238 1    
   232  116  239 1    
   233  117  118 2    
   234  117  119 am   BACKBONE|DICT|INTERRES
   235  119  120 1    
   236  119  240 1    
   237  120  121 1    
   238  120  124 1    
   239  120  241 1    
   240  121  122 am   BACKBONE|DICT|INTERRES
   241  121  123 2    
   242  122  242 1    
   243  122  243 1    
   244  124  125 1    
   245  124  244 1    
   246  124  245 1    
   247  125  126 1    
   248  126  246 1    
   249  126  247 1    
@<TRIPOS>SUBSTRUCTURE
     1 UNK         1 GROUP             0       ****    0 ROOT    
