@<TRIPOS>MOLECULE
3R540
247   249    1
SMALL
USER_CHARGES


@<TRIPOS>ATOM
      1 CA         -3.9472  -12.2042  -45.0703 C.3       0 UNK        -0.1800 
      2 C          -3.0023  -13.3731  -44.8394 C.2       0 UNK         0.5000 
      3 O          -2.3725  -13.4550  -43.7851 O.2       0 UNK        -0.5000 
      4 N          -2.9157  -14.2989  -45.8033 N.am      1 UNK        -0.5000 
      5 CA         -1.9833  -15.4398  -45.8279 C.3       1 UNK         0.1400 
      6 C6         -1.8747  -16.0751  -47.2374 C.3       23 UNK        -0.0398 
      7 S7         -1.4036  -14.8543  -48.5134 S.3       23 UNK        -0.2404 
      8 C8          0.2177  -15.4656  -49.0791 C.3       23 UNK        -0.0205 
      9 C9          0.1026  -16.7568  -49.8752 C.ar      23 UNK        -0.0193 
     10 C10        -0.5898  -16.7700  -51.0886 C.ar      23 UNK        -0.1150 
     11 C11        -0.7242  -17.9532  -51.8170 C.ar      23 UNK        -0.0193 
     12 C12        -0.1552  -19.1302  -51.3209 C.ar      23 UNK        -0.1150 
     13 C13         0.5731  -19.1292  -50.1278 C.ar      23 UNK        -0.0193 
     14 C14         0.6968  -17.9334  -49.4090 C.ar      23 UNK        -0.1150 
     15 C15         1.2334  -20.4275  -49.6615 C.3       23 UNK        -0.0205 
     16 S16         1.2940  -20.6560  -47.8511 S.3       23 UNK        -0.2404 
     17 C17        -0.4680  -20.5479  -47.4021 C.3       23 UNK        -0.0398 
     18 CA         -0.9676  -21.8063  -46.6594 C.3       11 UNK         0.1400 
     19 N          -0.3291  -21.9758  -45.3494 N.am      11 UNK        -0.5000 
     20 C          -0.5336  -23.0176  -44.5280 C.2       10 UNK         0.5000 
     21 O          -1.2519  -23.9730  -44.8182 O.2       10 UNK        -0.5000 
     22 CA          0.1238  -22.9892  -43.1344 C.3       10 UNK         0.1400 
     23 CB          1.3474  -23.9166  -43.1053 C.3       10 UNK        -0.1800 
     24 N           0.5300  -21.6597  -42.6826 N.am      10 UNK        -0.5000 
     25 C          -0.2659  -20.5931  -42.5168 C.2       9 UNK         0.5000 
     26 O          -1.4867  -20.6167  -42.6835 O.2       9 UNK        -0.5000 
     27 CA          0.4393  -19.2721  -42.1410 C.3       9 UNK         0.1400 
     28 CB          0.3427  -19.0304  -40.6275 C.3       9 UNK        -0.1800 
     29 N           1.8552  -19.2151  -42.5324 N.am      9 UNK        -0.5000 
     30 C           2.3196  -19.3193  -43.7848 C.2       8 UNK         0.5000 
     31 O           1.5995  -19.4793  -44.7718 O.2       8 UNK        -0.5000 
     32 CA          3.8443  -19.2905  -43.9505 C.3       8 UNK         0.1400 
     33 CB          4.4509  -20.6663  -43.6184 C.3       8 UNK        -0.1800 
     34 N           4.1707  -18.9249  -45.3251 N.am      8 UNK        -0.5000 
     35 C           5.3225  -18.3730  -45.7260 C.2       7 UNK         0.5000 
     36 O           6.2561  -18.1232  -44.9624 O.2       7 UNK        -0.5000 
     37 CA          5.4591  -18.0262  -47.2215 C.3       7 UNK         0.1400 
     38 CB          4.5939  -18.9095  -48.1404 C.3       7 UNK        -0.1800 
     39 N           5.0926  -16.6300  -47.4333 N.am      7 UNK        -0.5000 
     40 C           5.9049  -15.5725  -47.2939 C.2       6 UNK         0.5000 
     41 O           7.1139  -15.6534  -47.0750 O.2       6 UNK        -0.5000 
     42 CA          5.2424  -14.1837  -47.4153 C.3       6 UNK         0.1400 
     43 CB          5.3250  -13.6699  -48.8609 C.3       6 UNK        -0.1800 
     44 N           3.8385  -14.2093  -46.9940 N.am      6 UNK        -0.5000 
     45 C           3.4448  -14.2949  -45.7169 C.2       5 UNK         0.5000 
     46 O           4.2083  -14.2050  -44.7526 O.2       5 UNK        -0.5000 
     47 CA          1.9624  -14.6366  -45.4905 C.3       5 UNK         0.1400 
     48 CB          1.8143  -16.1632  -45.4185 C.3       5 UNK        -0.1800 
     49 N           1.4404  -14.0560  -44.2556 N.am      5 UNK        -0.5000 
     50 C           1.2230  -12.7491  -44.0641 C.2       4 UNK         0.5000 
     51 O           1.3802  -11.9015  -44.9451 O.2       4 UNK        -0.5000 
     52 CA          0.7382  -12.3315  -42.6629 C.3       4 UNK         0.1400 
     53 CB          0.0339  -10.9620  -42.6709 C.3       4 UNK        -0.1800 
     54 N          -0.1853  -13.3229  -42.1081 N.am      4 UNK        -0.5000 
     55 C           0.0410  -14.0779  -41.0269 C.2       3 UNK         0.5000 
     56 O           1.1143  -14.0949  -40.4239 O.2       3 UNK        -0.5000 
     57 CA         -1.1125  -14.9577  -40.5174 C.3       3 UNK         0.1400 
     58 CB         -1.9747  -14.1811  -39.5060 C.3       3 UNK        -0.1800 
     59 N          -1.9592  -15.4901  -41.5896 N.am      3 UNK        -0.5000 
     60 C          -2.6458  -16.6395  -41.4910 C.2       2 UNK         0.5000 
     61 O          -2.6267  -17.3516  -40.4872 O.2       2 UNK        -0.5000 
     62 CA         -3.5183  -17.0798  -42.6844 C.3       2 UNK         0.1400 
     63 CB         -5.0104  -16.9641  -42.3338 C.3       2 UNK        -0.1800 
     64 N          -3.2647  -16.3076  -43.8981 N.am      2 UNK        -0.5000 
     65 C          -2.2488  -16.5156  -44.7441 C.2       1 UNK         0.5000 
     66 O          -1.5141  -17.4993  -44.6763 O.2       1 UNK        -0.5000 
     67 C          -2.5074  -21.7778  -46.5774 C.2       11 UNK         0.5000 
     68 O          -3.1611  -22.2661  -47.4994 O.2       11 UNK        -0.5000 
     69 N          -3.0649  -21.2276  -45.4898 N.am      12 UNK        -0.5000 
     70 CA         -4.5081  -21.2125  -45.2501 C.3       12 UNK         0.1400 
     71 CB         -4.8462  -20.1267  -44.2224 C.3       12 UNK        -0.1800 
     72 C          -5.0393  -22.5843  -44.7991 C.2       12 UNK         0.5000 
     73 O          -6.1352  -22.9701  -45.2046 O.2       12 UNK        -0.5000 
     74 N          -4.2457  -23.3067  -43.9957 N.am      13 UNK        -0.5000 
     75 CA         -4.5631  -24.6484  -43.5005 C.3       13 UNK         0.1400 
     76 CB         -3.6197  -25.0021  -42.3402 C.3       13 UNK        -0.1800 
     77 C          -4.4907  -25.7125  -44.6107 C.2       13 UNK         0.5000 
     78 O          -5.3586  -26.5829  -44.6824 O.2       13 UNK        -0.5000 
     79 N          -3.4722  -25.6008  -45.4734 N.am      14 UNK        -0.5000 
     80 CA         -3.2633  -26.4489  -46.6483 C.3       14 UNK         0.1400 
     81 CB         -1.7998  -26.3046  -47.0968 C.3       14 UNK        -0.1800 
     82 C          -4.2089  -26.1153  -47.8197 C.2       14 UNK         0.5000 
     83 O          -4.3006  -26.9058  -48.7591 O.2       14 UNK        -0.5000 
     84 N          -4.8574  -24.9420  -47.7593 N.am      15 UNK        -0.5000 
     85 CA         -5.7107  -24.3268  -48.7832 C.3       15 UNK         0.1400 
     86 CB         -6.9451  -25.1974  -49.0937 C.3       15 UNK        -0.1800 
     87 C          -4.9405  -23.9046  -50.0533 C.2       15 UNK         0.5000 
     88 O          -5.5537  -23.6540  -51.0910 O.2       15 UNK        -0.5000 
     89 N          -3.6125  -23.7708  -49.9380 N.am      16 UNK        -0.5000 
     90 CA         -2.7241  -23.2352  -50.9678 C.3       16 UNK         0.1400 
     91 CB         -1.2661  -23.5034  -50.5688 C.3       16 UNK        -0.1800 
     92 C          -2.9545  -21.7326  -51.2014 C.2       16 UNK         0.5000 
     93 O          -2.7995  -21.2690  -52.3281 O.2       16 UNK        -0.5000 
     94 N          -3.3736  -21.0125  -50.1494 N.am      17 UNK        -0.5000 
     95 CA         -3.7592  -19.5998  -50.1970 C.3       17 UNK         0.1400 
     96 CB         -3.9983  -19.0923  -48.7662 C.3       17 UNK        -0.1800 
     97 C          -4.9955  -19.3230  -51.0763 C.2       17 UNK         0.5000 
     98 O          -5.1402  -18.2095  -51.5806 O.2       17 UNK        -0.5000 
     99 N          -5.8632  -20.3316  -51.2398 N.am      18 UNK        -0.5000 
    100 CA        -7.0712  -20.2597  -52.0606 C.3       18 UNK         0.1400 
    101 CB        -8.1105  -21.2459  -51.5035 C.3       18 UNK        -0.1800 
    102 C         -6.8026  -20.5396  -53.5521 C.2       18 UNK         0.5000 
    103 O         -7.6517  -20.2092  -54.3814 O.2       18 UNK        -0.5000 
    104 N         -5.6521  -21.1454  -53.8791 N.am      19 UNK        -0.5000 
    105 CA        -5.2393  -21.4292  -55.2508 C.3       19 UNK         0.1400 
    106 CB        -4.2031  -22.5651  -55.2485 C.3       19 UNK        -0.1800 
    107 C         -4.6534  -20.1654  -55.8976 C.2       19 UNK         0.5000 
    108 O         -3.7849  -19.5277  -55.3015 O.2       19 UNK        -0.5000 
    109 N         -5.0961  -19.8481  -57.1211 N.am      20 UNK        -0.5000 
    110 CA        -4.6308  -18.6895  -57.8935 C.3       20 UNK         0.1400 
    111 CB        -5.5329  -18.5092  -59.1240 C.3       20 UNK        -0.1800 
    112 C         -3.1514  -18.7895  -58.3170 C.2       20 UNK         0.5000 
    113 O         -2.4838  -17.7636  -58.4502 O.2       20 UNK        -0.5000 
    114 N         -2.6675  -20.0250  -58.5018 N.am      21 UNK        -0.5000 
    115 CA        -1.2697  -20.3428  -58.7965 C.3       21 UNK         0.1400 
    116 CB        -1.2250  -21.6794  -59.5550 C.3       21 UNK        -0.1800 
    117 C         -0.3864  -20.4116  -57.5330 C.2       21 UNK         0.5000 
    118 O          0.8365  -20.4717  -57.6648 O.2       21 UNK        -0.5000 
    119 N         -1.0083  -20.4274  -56.3446 N.am      22 UNK        -0.5000 
    120 CA        -0.3720  -20.5292  -55.0188 C.3       22 UNK         0.1400 
    121 C          0.3620  -21.8750  -54.7292 C.2       22 UNK         0.5000 
    122 N          0.1319  -22.9342  -55.4958 N.am      22 UNK        -0.7600 
    123 O          1.1243  -21.9787  -53.7723 O.2       22 UNK        -0.5000 
    124 C124        0.4868  -19.2810  -54.6607 C.3       23 UNK        -0.0398 
    125 S125       -0.4797  -17.7308  -54.5952 S.3       23 UNK        -0.2404 
    126 C126       -1.5216  -17.9631  -53.1140 C.3       23 UNK        -0.0205 
    127 H127       -3.3946  -11.2655  -45.0313 H         1 UNK         0.0600 
    128 H128       -4.7131  -12.1828  -44.2952 H         1 UNK         0.0600 
    129 H129       -4.4424  -12.2687  -46.0393 H         1 UNK         0.0600 
    130 H130       -3.4660  -14.1809  -46.6425 H         1 UNK         0.3000 
    131 H131       -1.0034  -15.0264  -45.5875 H         1 UNK         0.0600 
    132 H132       -1.1486  -16.8901  -47.2398 H         1 UNK         0.0800 
    133 H133       -2.8280  -16.5181  -47.5273 H         1 UNK         0.0800 
    134 H134        0.6799  -14.7043  -49.7089 H         1 UNK         0.0800 
    135 H135        0.8750  -15.5964  -48.2210 H         1 UNK         0.0800 
    136 H136       -1.0400  -15.8584  -51.4563 H         1 UNK         0.1150 
    137 H137       -0.2727  -20.0515  -51.8741 H         1 UNK         0.1150 
    138 H138        1.2516  -17.9176  -48.4826 H         1 UNK         0.1150 
    139 H139        0.7243  -21.2872  -50.0980 H         1 UNK         0.0800 
    140 H140        2.2538  -20.4490  -50.0457 H         1 UNK         0.0800 
    141 H141       -1.0466  -20.3914  -48.3137 H         1 UNK         0.0800 
    142 H142       -0.6124  -19.6546  -46.7907 H         1 UNK         0.0800 
    143 H143       -0.7043  -22.6819  -47.2557 H         1 UNK         0.0600 
    144 H144        0.2864  -21.2258  -45.0547 H         1 UNK         0.3000 
    145 H145       -0.6125  -23.3668  -42.4224 H         1 UNK         0.0600 
    146 H146        1.7705  -23.9822  -42.1027 H         1 UNK         0.0600 
    147 H147        1.0783  -24.9294  -43.4090 H         1 UNK         0.0600 
    148 H148        2.1310  -23.5688  -43.7799 H         1 UNK         0.0600 
    149 H149        1.5172  -21.5289  -42.5226 H         1 UNK         0.3000 
    150 H150       -0.0856  -18.4653  -42.6549 H         1 UNK         0.0600 
    151 H151        0.9396  -19.7501  -40.0660 H         1 UNK         0.0600 
    152 H152       -0.6860  -19.1232  -40.2785 H         1 UNK         0.0600 
    153 H153        0.6851  -18.0293  -40.3653 H         1 UNK         0.0600 
    154 H154        2.5164  -19.0949  -41.7784 H         1 UNK         0.3000 
    155 H155        4.2463  -18.5358  -43.2710 H         1 UNK         0.0600 
    156 H156        4.0694  -21.4424  -44.2834 H         1 UNK         0.0600 
    157 H157        4.2187  -20.9649  -42.5955 H         1 UNK         0.0600 
    158 H158        5.5370  -20.6533  -43.7100 H         1 UNK         0.0600 
    159 H159        3.4185  -19.0858  -45.9841 H         1 UNK         0.3000 
    160 H160        6.5042  -18.1789  -47.4992 H         1 UNK         0.0600 
    161 H161        3.5299  -18.7164  -48.0085 H         1 UNK         0.0600 
    162 H162        4.7683  -19.9695  -47.9509 H         1 UNK         0.0600 
    163 H163        4.8300  -18.7270  -49.1889 H         1 UNK         0.0600 
    164 H164        4.1177  -16.4498  -47.6111 H         1 UNK         0.3000 
    165 H165        5.7921  -13.4913  -46.7738 H         1 UNK         0.0600 
    166 H166        4.9057  -12.6673  -48.9476 H         1 UNK         0.0600 
    167 H167        6.3615  -13.6175  -49.1969 H         1 UNK         0.0600 
    168 H168        4.7884  -14.3203  -49.5529 H         1 UNK         0.0600 
    169 H169        3.1505  -14.2524  -47.7311 H         1 UNK         0.3000 
    170 H170        1.3715  -14.2538  -46.3247 H         1 UNK         0.0600 
    171 H171        2.1451  -16.6434  -46.3395 H         1 UNK         0.0600 
    172 H172        2.4131  -16.5715  -44.6049 H         1 UNK         0.0600 
    173 H173        0.7851  -16.4685  -45.2517 H         1 UNK         0.0600 
    174 H174        1.3267  -14.6780  -43.4697 H         1 UNK         0.3000 
    175 H175        1.6304  -12.2436  -42.0400 H         1 UNK         0.0600 
    176 H176        0.7032  -10.1751  -43.0208 H         1 UNK         0.0600 
    177 H177       -0.8418  -10.9660  -43.3212 H         1 UNK         0.0600 
    178 H178       -0.2948  -10.6836  -41.6695 H         1 UNK         0.0600 
    179 H179       -1.0810  -13.3752  -42.5901 H         1 UNK         0.3000 
    180 H180       -0.6433  -15.7936  -39.9936 H         1 UNK         0.0600 
    181 H181       -2.5056  -13.3571  -39.9841 H         1 UNK         0.0600 
    182 H182       -1.3613  -13.7598  -38.7085 H         1 UNK         0.0600 
    183 H183       -2.7150  -14.8284  -39.0356 H         1 UNK         0.0600 
    184 H184       -2.0421  -14.9361  -42.4343 H         1 UNK         0.3000 
    185 H185       -3.2850  -18.1290  -42.8720 H         1 UNK         0.0600 
    186 H186       -5.2560  -17.5733  -41.4629 H         1 UNK         0.0600 
    187 H187       -5.2908  -15.9352  -42.1051 H         1 UNK         0.0600 
    188 H188       -5.6385  -17.3081  -43.1555 H         1 UNK         0.0600 
    189 H189       -3.8145  -15.4700  -44.0230 H         1 UNK         0.3000 
    190 H190       -2.4705  -20.8538  -44.7593 H         1 UNK         0.3000 
    191 H191       -5.0158  -20.9554  -46.1820 H         1 UNK         0.0600 
    192 H192       -4.5638  -19.1434  -44.5977 H         1 UNK         0.0600 
    193 H193       -5.9169  -20.0997  -44.0163 H         1 UNK         0.0600 
    194 H194       -4.3316  -20.2932  -43.2753 H         1 UNK         0.0600 
    195 H195       -3.3458  -22.9284  -43.7396 H         1 UNK         0.3000 
    196 H196       -5.5847  -24.6365  -43.1145 H         1 UNK         0.0600 
    197 H197       -3.8686  -25.9779  -41.9214 H         1 UNK         0.0600 
    198 H198       -3.6959  -24.2733  -41.5331 H         1 UNK         0.0600 
    199 H199       -2.5783  -25.0408  -42.6607 H         1 UNK         0.0600 
    200 H200       -2.7589  -24.8963  -45.2943 H         1 UNK         0.3000 
    201 H201       -3.4382  -27.4889  -46.3656 H         1 UNK         0.0600 
    202 H202       -1.5835  -26.9498  -47.9492 H         1 UNK         0.0600 
    203 H203       -1.1133  -26.5826  -46.2968 H         1 UNK         0.0600 
    204 H204       -1.5694  -25.2801  -47.3926 H         1 UNK         0.0600 
    205 H205       -4.6934  -24.3712  -46.9417 H         1 UNK         0.3000 
    206 H206       -6.0732  -23.3986  -48.3391 H         1 UNK         0.0600 
    207 H207       -7.4671  -25.4809  -48.1798 H         1 UNK         0.0600 
    208 H208       -7.6568  -24.6559  -49.7180 H         1 UNK         0.0600 
    209 H209       -6.6768  -26.1102  -49.6259 H         1 UNK         0.0600 
    210 H210       -3.2123  -23.9075  -49.0201 H         1 UNK         0.3000 
    211 H211       -2.9292  -23.7564  -51.9053 H         1 UNK         0.0600 
    212 H212       -1.0078  -23.0084  -49.6329 H         1 UNK         0.0600 
    213 H213       -0.5801  -23.1397  -51.3354 H         1 UNK         0.0600 
    214 H214       -1.0806  -24.5706  -50.4463 H         1 UNK         0.0600 
    215 H215       -3.4601  -21.4812  -49.2527 H         1 UNK         0.3000 
    216 H216       -2.9293  -19.0364  -50.6208 H         1 UNK         0.0600 
    217 H217       -4.3211  -18.0505  -48.7711 H         1 UNK         0.0600 
    218 H218       -3.0900  -19.1433  -48.1675 H         1 UNK         0.0600 
    219 H219       -4.7708  -19.6714  -48.2598 H         1 UNK         0.0600 
    220 H220       -5.6564  -21.2271  -50.8207 H         1 UNK         0.3000 
    221 H221       -7.4922  -19.2547  -51.9870 H         1 UNK         0.0600 
    222 H222       -7.7742  -22.2794  -51.5877 H         1 UNK         0.0600 
    223 H223       -8.3236  -21.0456  -50.4533 H         1 UNK         0.0600 
    224 H224       -9.0531  -21.1655  -52.0464 H         1 UNK         0.0600 
    225 H225       -4.9610  -21.3099  -53.1595 H         1 UNK         0.3000 
    226 H226       -6.1077  -21.7628  -55.8232 H         1 UNK         0.0600 
    227 H227       -3.9283  -22.8438  -56.2664 H         1 UNK         0.0600 
    228 H228       -3.2869  -22.2798  -54.7307 H         1 UNK         0.0600 
    229 H229       -4.5970  -23.4574  -54.7615 H         1 UNK         0.0600 
    230 H230       -5.8125  -20.4168  -57.5497 H         1 UNK         0.3000 
    231 H231       -4.7314  -17.8030  -57.2636 H         1 UNK         0.0600 
    232 H232       -5.4931  -19.3770  -59.7836 H         1 UNK         0.0600 
    233 H233       -5.2281  -17.6393  -59.7074 H         1 UNK         0.0600 
    234 H234       -6.5720  -18.3550  -58.8326 H         1 UNK         0.0600 
    235 H235       -3.2963  -20.8062  -58.3884 H         1 UNK         0.3000 
    236 H236       -0.8541  -19.5691  -59.4456 H         1 UNK         0.0600 
    237 H237       -1.7996  -21.6267  -60.4800 H         1 UNK         0.0600 
    238 H238       -0.2016  -21.9427  -59.8259 H         1 UNK         0.0600 
    239 H239       -1.6268  -22.4973  -58.9558 H         1 UNK         0.0600 
    240 H240       -2.0118  -20.3033  -56.3227 H         1 UNK         0.3000 
    241 H241       -1.2059  -20.5615  -54.3216 H         1 UNK         0.0600 
    242 H242       -0.4942  -22.8748  -56.2814 H         1 UNK         0.3800 
    243 H243        0.6030  -23.8017  -55.2932 H         1 UNK         0.3800 
    244 H244        1.0015  -19.4026  -53.7091 H         1 UNK         0.0800 
    245 H245        1.2832  -19.1510  -55.3938 H         1 UNK         0.0800 
    246 H246       -2.2633  -17.1633  -53.0920 H         1 UNK         0.0800 
    247 H247       -2.1006  -18.8817  -53.1945 H         1 UNK         0.0800 
@<TRIPOS>BOND
     1    1    2 1    
     2    1  127 1    
     3    1  128 1    
     4    1  129 1    
     5    2    3 2    
     6    2    4 am   BACKBONE|DICT|INTERRES
     7    4    5 1    
     8    4  130 1    
     9    5    6 1    
    10    5   65 1    
    11    5  131 1    
    12    6    7 1    
    13    6  132 1    
    14    6  133 1    
    15    7    8 1    
    16    8    9 1    
    17    8  134 1    
    18    8  135 1    
    19    9   10 ar   
    20    9   14 ar   
    21   10   11 ar   
    22   10  136 1    
    23   11   12 ar   
    24   11  126 1    
    25   12   13 ar   
    26   12  137 1    
    27   13   14 ar   
    28   13   15 1    
    29   14  138 1    
    30   15   16 1    
    31   15  139 1    
    32   15  140 1    
    33   16   17 1    
    34   17   18 1    
    35   17  141 1    
    36   17  142 1    
    37   18   19 1    
    38   18   67 1    
    39   18  143 1    
    40   19   20 am   BACKBONE|DICT|INTERRES
    41   19  144 1    
    42   20   21 2    
    43   20   22 1    
    44   22   23 1    
    45   22   24 1    
    46   22  145 1    
    47   23  146 1    
    48   23  147 1    
    49   23  148 1    
    50   24   25 am   BACKBONE|DICT|INTERRES
    51   24  149 1    
    52   25   26 2    
    53   25   27 1    
    54   27   28 1    
    55   27   29 1    
    56   27  150 1    
    57   28  151 1    
    58   28  152 1    
    59   28  153 1    
    60   29   30 am   BACKBONE|DICT|INTERRES
    61   29  154 1    
    62   30   31 2    
    63   30   32 1    
    64   32   33 1    
    65   32   34 1    
    66   32  155 1    
    67   33  156 1    
    68   33  157 1    
    69   33  158 1    
    70   34   35 am   BACKBONE|DICT|INTERRES
    71   34  159 1    
    72   35   36 2    
    73   35   37 1    
    74   37   38 1    
    75   37   39 1    
    76   37  160 1    
    77   38  161 1    
    78   38  162 1    
    79   38  163 1    
    80   39   40 am   BACKBONE|DICT|INTERRES
    81   39  164 1    
    82   40   41 2    
    83   40   42 1    
    84   42   43 1    
    85   42   44 1    
    86   42  165 1    
    87   43  166 1    
    88   43  167 1    
    89   43  168 1    
    90   44   45 am   BACKBONE|DICT|INTERRES
    91   44  169 1    
    92   45   46 2    
    93   45   47 1    
    94   47   48 1    
    95   47   49 1    
    96   47  170 1    
    97   48  171 1    
    98   48  172 1    
    99   48  173 1    
   100   49   50 am   BACKBONE|DICT|INTERRES
   101   49  174 1    
   102   50   51 2    
   103   50   52 1    
   104   52   53 1    
   105   52   54 1    
   106   52  175 1    
   107   53  176 1    
   108   53  177 1    
   109   53  178 1    
   110   54   55 am   BACKBONE|DICT|INTERRES
   111   54  179 1    
   112   55   56 2    
   113   55   57 1    
   114   57   58 1    
   115   57   59 1    
   116   57  180 1    
   117   58  181 1    
   118   58  182 1    
   119   58  183 1    
   120   59   60 am   BACKBONE|DICT|INTERRES
   121   59  184 1    
   122   60   61 2    
   123   60   62 1    
   124   62   63 1    
   125   62   64 1    
   126   62  185 1    
   127   63  186 1    
   128   63  187 1    
   129   63  188 1    
   130   64   65 am   BACKBONE|DICT|INTERRES
   131   64  189 1    
   132   65   66 2    
   133   67   68 2    
   134   67   69 am   BACKBONE|DICT|INTERRES
   135   69   70 1    
   136   69  190 1    
   137   70   71 1    
   138   70   72 1    
   139   70  191 1    
   140   71  192 1    
   141   71  193 1    
   142   71  194 1    
   143   72   73 2    
   144   72   74 am   BACKBONE|DICT|INTERRES
   145   74   75 1    
   146   74  195 1    
   147   75   76 1    
   148   75   77 1    
   149   75  196 1    
   150   76  197 1    
   151   76  198 1    
   152   76  199 1    
   153   77   78 2    
   154   77   79 am   BACKBONE|DICT|INTERRES
   155   79   80 1    
   156   79  200 1    
   157   80   81 1    
   158   80   82 1    
   159   80  201 1    
   160   81  202 1    
   161   81  203 1    
   162   81  204 1    
   163   82   83 2    
   164   82   84 am   BACKBONE|DICT|INTERRES
   165   84   85 1    
   166   84  205 1    
   167   85   86 1    
   168   85   87 1    
   169   85  206 1    
   170   86  207 1    
   171   86  208 1    
   172   86  209 1    
   173   87   88 2    
   174   87   89 am   BACKBONE|DICT|INTERRES
   175   89   90 1    
   176   89  210 1    
   177   90   91 1    
   178   90   92 1    
   179   90  211 1    
   180   91  212 1    
   181   91  213 1    
   182   91  214 1    
   183   92   93 2    
   184   92   94 am   BACKBONE|DICT|INTERRES
   185   94   95 1    
   186   94  215 1    
   187   95   96 1    
   188   95   97 1    
   189   95  216 1    
   190   96  217 1    
   191   96  218 1    
   192   96  219 1    
   193   97   98 2    
   194   97   99 am   BACKBONE|DICT|INTERRES
   195   99  100 1    
   196   99  220 1    
   197  100  101 1    
   198  100  102 1    
   199  100  221 1    
   200  101  222 1    
   201  101  223 1    
   202  101  224 1    
   203  102  103 2    
   204  102  104 am   BACKBONE|DICT|INTERRES
   205  104  105 1    
   206  104  225 1    
   207  105  106 1    
   208  105  107 1    
   209  105  226 1    
   210  106  227 1    
   211  106  228 1    
   212  106  229 1    
   213  107  108 2    
   214  107  109 am   BACKBONE|DICT|INTERRES
   215  109  110 1    
   216  109  230 1    
   217  110  111 1    
   218  110  112 1    
   219  110  231 1    
   220  111  232 1    
   221  111  233 1    
   222  111  234 1    
   223  112  113 2    
   224  112  114 am   BACKBONE|DICT|INTERRES
   225  114  115 1    
   226  114  235 1    
   227  115  116 1    
   228  115  117 1    
   229  115  236 1    
   230  116  237 1    
   231  116  238 1    
   232  116  239 1    
   233  117  118 2    
   234  117  119 am   BACKBONE|DICT|INTERRES
   235  119  120 1    
   236  119  240 1    
   237  120  121 1    
   238  120  124 1    
   239  120  241 1    
   240  121  122 am   BACKBONE|DICT|INTERRES
   241  121  123 2    
   242  122  242 1    
   243  122  243 1    
   244  124  125 1    
   245  124  244 1    
   246  124  245 1    
   247  125  126 1    
   248  126  246 1    
   249  126  247 1    
@<TRIPOS>SUBSTRUCTURE
     1 UNK         1 GROUP             0       ****    0 ROOT    
