@<TRIPOS>MOLECULE
3R540
247   249    1
SMALL
USER_CHARGES


@<TRIPOS>ATOM
      1 CA          0.5768  -19.1124  -42.7051 C.3       0 UNK        -0.1800 
      2 C          -0.6488  -19.1265  -43.6080 C.2       0 UNK         0.5000 
      3 O          -1.7231  -19.5292  -43.1635 O.2       0 UNK        -0.5000 
      4 N          -0.4887  -18.7072  -44.8699 N.am      1 UNK        -0.5000 
      5 CA         -1.5492  -18.6597  -45.8824 C.3       1 UNK         0.1400 
      6 C6         -0.9981  -18.3630  -47.3008 C.3       23 UNK        -0.0398 
      7 S7          0.1050  -16.9068  -47.3769 S.3       23 UNK        -0.2404 
      8 C8          0.4429  -16.7646  -49.1650 C.3       23 UNK        -0.0205 
      9 C9          1.1917  -17.9344  -49.8091 C.ar      23 UNK        -0.0193 
     10 C10         1.1911  -18.0326  -51.2028 C.ar      23 UNK        -0.1150 
     11 C11         1.8729  -19.0667  -51.8477 C.ar      23 UNK        -0.0193 
     12 C12         2.5174  -20.0438  -51.0856 C.ar      23 UNK        -0.1150 
     13 C13         2.5360  -19.9696  -49.6889 C.ar      23 UNK        -0.0193 
     14 C14         1.8994  -18.8882  -49.0649 C.ar      23 UNK        -0.1150 
     15 C15         3.2404  -21.0899  -48.9156 C.3       23 UNK        -0.0205 
     16 S16         3.7093  -20.7331  -47.1843 S.3       23 UNK        -0.2404 
     17 C17         2.1339  -20.9729  -46.2917 C.3       23 UNK        -0.0398 
     18 CA          1.8083  -22.4433  -45.9330 C.3       11 UNK         0.1400 
     19 N           2.9041  -23.1122  -45.2298 N.am      11 UNK        -0.5000 
     20 C           3.1766  -24.4220  -45.3119 C.2       10 UNK         0.5000 
     21 O           2.5075  -25.2136  -45.9765 O.2       10 UNK        -0.5000 
     22 CA          4.3905  -24.9453  -44.5161 C.3       10 UNK         0.1400 
     23 CB          5.6103  -25.0867  -45.4393 C.3       10 UNK        -0.1800 
     24 N           4.7557  -24.0957  -43.3819 N.am      10 UNK        -0.5000 
     25 C           4.0012  -23.9022  -42.2916 C.2       9 UNK         0.5000 
     26 O           2.9362  -24.4842  -42.0894 O.2       9 UNK        -0.5000 
     27 CA          4.4925  -22.8395  -41.2883 C.3       9 UNK         0.1400 
     28 CB          5.2997  -23.4982  -40.1597 C.3       9 UNK        -0.1800 
     29 N           5.2968  -21.7720  -41.8973 N.am      9 UNK        -0.5000 
     30 C           4.8616  -20.9325  -42.8465 C.2       8 UNK         0.5000 
     31 O           3.7384  -20.9987  -43.3515 O.2       8 UNK        -0.5000 
     32 CA          5.8715  -19.8852  -43.3539 C.3       8 UNK         0.1400 
     33 CB          6.7436  -20.4858  -44.4674 C.3       8 UNK        -0.1800 
     34 N           5.2035  -18.6889  -43.8690 N.am      8 UNK        -0.5000 
     35 C           4.4999  -17.8355  -43.1151 C.2       7 UNK         0.5000 
     36 O           4.4350  -17.9143  -41.8838 O.2       7 UNK        -0.5000 
     37 CA          3.7300  -16.7155  -43.8404 C.3       7 UNK         0.1400 
     38 CB          3.1459  -17.1635  -45.2015 C.3       7 UNK        -0.1800 
     39 N           2.6870  -16.2600  -42.9243 N.am      7 UNK        -0.5000 
     40 C           1.8786  -15.2084  -43.0657 C.2       6 UNK         0.5000 
     41 O           1.8748  -14.4607  -44.0450 O.2       6 UNK        -0.5000 
     42 CA          0.9190  -14.9303  -41.9022 C.3       6 UNK         0.1400 
     43 CB          1.4636  -13.8120  -40.9949 C.3       6 UNK        -0.1800 
     44 N          -0.3689  -14.5542  -42.4678 N.am      6 UNK        -0.5000 
     45 C          -1.5454  -14.5358  -41.8324 C.2       5 UNK         0.5000 
     46 O          -1.6720  -14.8078  -40.6376 O.2       5 UNK        -0.5000 
     47 CA         -2.8014  -14.2022  -42.6667 C.3       5 UNK         0.1400 
     48 CB         -3.6693  -13.1052  -42.0172 C.3       5 UNK        -0.1800 
     49 N          -2.5204  -13.9174  -44.0791 N.am      5 UNK        -0.5000 
     50 C          -1.9568  -12.8301  -44.6264 C.2       4 UNK         0.5000 
     51 O          -1.6315  -11.8259  -43.9938 O.2       4 UNK        -0.5000 
     52 CA         -1.6783  -12.8875  -46.1389 C.3       4 UNK         0.1400 
     53 CB         -0.2293  -13.3249  -46.3945 C.3       4 UNK        -0.1800 
     54 N          -2.5768  -13.8100  -46.8356 N.am      4 UNK        -0.5000 
     55 C          -3.7317  -13.4448  -47.4075 C.2       3 UNK         0.5000 
     56 O          -4.1625  -12.2910  -47.4136 O.2       3 UNK        -0.5000 
     57 CA         -4.5417  -14.5605  -48.0939 C.3       3 UNK         0.1400 
     58 CB         -3.9569  -14.8623  -49.4827 C.3       3 UNK        -0.1800 
     59 N          -4.5986  -15.7923  -47.3032 N.am      3 UNK        -0.5000 
     60 C          -5.2340  -15.9089  -46.1272 C.2       2 UNK         0.5000 
     61 O          -5.8997  -15.0063  -45.6199 O.2       2 UNK        -0.5000 
     62 CA         -5.1002  -17.2508  -45.3780 C.3       2 UNK         0.1400 
     63 CB         -6.3579  -18.1057  -45.5780 C.3       2 UNK        -0.1800 
     64 N          -3.9189  -18.0383  -45.7464 N.am      2 UNK        -0.5000 
     65 C          -2.6583  -17.6602  -45.5016 C.2       1 UNK         0.5000 
     66 O          -2.3572  -16.5614  -45.0304 O.2       1 UNK        -0.5000 
     67 C           0.4832  -22.4980  -45.1445 C.2       11 UNK         0.5000 
     68 O          -0.5296  -22.0442  -45.6723 O.2       11 UNK        -0.5000 
     69 N           0.4854  -23.0309  -43.9119 N.am      12 UNK        -0.5000 
     70 CA         -0.6626  -23.0494  -42.9942 C.3       12 UNK         0.1400 
     71 CB         -0.2286  -23.6755  -41.6611 C.3       12 UNK        -0.1800 
     72 C          -1.9280  -23.7495  -43.5337 C.2       12 UNK         0.5000 
     73 O          -3.0308  -23.4434  -43.0794 O.2       12 UNK        -0.5000 
     74 N          -1.7513  -24.6662  -44.4928 N.am      13 UNK        -0.5000 
     75 CA         -2.8311  -25.3701  -45.1814 C.3       13 UNK         0.1400 
     76 CB         -2.2815  -26.7096  -45.6982 C.3       13 UNK        -0.1800 
     77 C          -3.4552  -24.5647  -46.3410 C.2       13 UNK         0.5000 
     78 O          -4.5127  -24.9626  -46.8325 O.2       13 UNK        -0.5000 
     79 N          -2.7996  -23.4857  -46.7952 N.am      14 UNK        -0.5000 
     80 CA         -3.2238  -22.7075  -47.9562 C.3       14 UNK         0.1400 
     81 CB         -2.0228  -21.9668  -48.5668 C.3       14 UNK        -0.1800 
     82 C          -4.3564  -21.7294  -47.6042 C.2       14 UNK         0.5000 
     83 O          -4.1325  -20.7386  -46.9023 O.2       14 UNK        -0.5000 
     84 N          -5.5453  -22.0041  -48.1517 N.am      15 UNK        -0.5000 
     85 CA         -6.6586  -21.0614  -48.2413 C.3       15 UNK         0.1400 
     86 CB         -7.9034  -21.8260  -48.7193 C.3       15 UNK        -0.1800 
     87 C          -6.3311  -19.9109  -49.2146 C.2       15 UNK         0.5000 
     88 O          -5.3760  -20.0090  -49.9893 O.2       15 UNK        -0.5000 
     89 N          -7.1538  -18.8546  -49.2094 N.am      16 UNK        -0.5000 
     90 CA         -6.9887  -17.6977  -50.0962 C.3       16 UNK         0.1400 
     91 CB         -7.9974  -16.6053  -49.7161 C.3       16 UNK        -0.1800 
     92 C          -7.0903  -18.0590  -51.5921 C.2       16 UNK         0.5000 
     93 O          -6.3547  -17.5014  -52.4057 O.2       16 UNK        -0.5000 
     94 N          -7.9488  -19.0372  -51.9131 N.am      17 UNK        -0.5000 
     95 CA         -8.0812  -19.6204  -53.2481 C.3       17 UNK         0.1400 
     96 CB         -9.3468  -20.4891  -53.2958 C.3       17 UNK        -0.1800 
     97 C          -6.8475  -20.4418  -53.6703 C.2       17 UNK         0.5000 
     98 O          -6.4959  -20.4348  -54.8485 O.2       17 UNK        -0.5000 
     99 N          -6.1994  -21.1151  -52.7083 N.am      18 UNK        -0.5000 
    100 CA        -4.9738  -21.8861  -52.9268 C.3       18 UNK         0.1400 
    101 CB        -4.7522  -22.8629  -51.7619 C.3       18 UNK        -0.1800 
    102 C         -3.7551  -20.9676  -53.1155 C.2       18 UNK         0.5000 
    103 O         -2.9313  -21.2279  -53.9902 O.2       18 UNK        -0.5000 
    104 N         -3.6938  -19.8833  -52.3303 N.am      19 UNK        -0.5000 
    105 CA        -2.6950  -18.8203  -52.4503 C.3       19 UNK         0.1400 
    106 CB        -2.8350  -17.8630  -51.2600 C.3       19 UNK        -0.1800 
    107 C         -2.7963  -18.0556  -53.7854 C.2       19 UNK         0.5000 
    108 O         -1.7715  -17.6942  -54.3624 O.2       19 UNK        -0.5000 
    109 N         -4.0265  -17.8540  -54.2775 N.am      20 UNK        -0.5000 
    110 CA        -4.3032  -17.2754  -55.5940 C.3       20 UNK         0.1400 
    111 CB        -5.7849  -16.8771  -55.6682 C.3       20 UNK        -0.1800 
    112 C         -3.9373  -18.2162  -56.7612 C.2       20 UNK         0.5000 
    113 O         -3.6525  -17.7336  -57.8575 O.2       20 UNK        -0.5000 
    114 N         -3.9499  -19.5327  -56.5122 N.am      21 UNK        -0.5000 
    115 CA        -3.6487  -20.5801  -57.4895 C.3       21 UNK         0.1400 
    116 CB        -4.4216  -21.8558  -57.1142 C.3       21 UNK        -0.1800 
    117 C         -2.1425  -20.8738  -57.6474 C.2       21 UNK         0.5000 
    118 O         -1.7903  -21.6908  -58.5005 O.2       21 UNK        -0.5000 
    119 N         -1.2813  -20.2289  -56.8460 N.am      22 UNK        -0.5000 
    120 CA         0.1866  -20.3039  -56.9476 C.3       22 UNK         0.1400 
    121 C          0.7214  -19.8872  -58.3498 C.2       22 UNK         0.5000 
    122 N          1.6986  -20.6048  -58.8876 N.am      22 UNK        -0.7600 
    123 O          0.2922  -18.8919  -58.9297 O.2       22 UNK        -0.5000 
    124 C124        0.8811  -19.4425  -55.8648 C.3       23 UNK        -0.0398 
    125 S125        0.6432  -20.0400  -54.1580 S.3       23 UNK        -0.2404 
    126 C126        1.9708  -19.0831  -53.3648 C.3       23 UNK        -0.0205 
    127 H127        0.6485  -20.0501  -42.1539 H         1 UNK         0.0600 
    128 H128        0.5040  -18.2979  -41.9852 H         1 UNK         0.0600 
    129 H129        1.4994  -18.9950  -43.2705 H         1 UNK         0.0600 
    130 H130        0.3918  -18.3116  -45.1620 H         1 UNK         0.3000 
    131 H131       -1.9947  -19.6555  -45.9041 H         1 UNK         0.0600 
    132 H132       -0.4414  -19.2299  -47.6509 H         1 UNK         0.0800 
    133 H133       -1.8119  -18.2362  -48.0164 H         1 UNK         0.0800 
    134 H134       -0.5067  -16.6104  -49.6769 H         1 UNK         0.0800 
    135 H135        1.0275  -15.8579  -49.3252 H         1 UNK         0.0800 
    136 H136        0.6794  -17.2844  -51.7925 H         1 UNK         0.1150 
    137 H137        3.0264  -20.8559  -51.5862 H         1 UNK         0.1150 
    138 H138        1.9464  -18.7856  -47.9942 H         1 UNK         0.1150 
    139 H139        2.6126  -21.9812  -48.9399 H         1 UNK         0.0800 
    140 H140        4.1576  -21.3524  -49.4448 H         1 UNK         0.0800 
    141 H141        1.3227  -20.5607  -46.8892 H         1 UNK         0.0800 
    142 H142        2.1795  -20.3663  -45.3870 H         1 UNK         0.0800 
    143 H143        1.6266  -22.9701  -46.8720 H         1 UNK         0.0600 
    144 H144        3.4654  -22.5157  -44.6309 H         1 UNK         0.3000 
    145 H145        4.1316  -25.9339  -44.1313 H         1 UNK         0.0600 
    146 H146        6.4584  -25.5218  -44.9101 H         1 UNK         0.0600 
    147 H147        5.3874  -25.7390  -46.2847 H         1 UNK         0.0600 
    148 H148        5.9230  -24.1224  -45.8424 H         1 UNK         0.0600 
    149 H149        5.6156  -23.5742  -43.4646 H         1 UNK         0.3000 
    150 H150        3.6065  -22.3754  -40.8499 H         1 UNK         0.0600 
    151 H151        6.2167  -23.9548  -40.5342 H         1 UNK         0.0600 
    152 H152        4.7192  -24.2812  -39.6699 H         1 UNK         0.0600 
    153 H153        5.5731  -22.7721  -39.3939 H         1 UNK         0.0600 
    154 H154        6.2366  -21.6646  -41.5432 H         1 UNK         0.3000 
    155 H155        6.5153  -19.5877  -42.5235 H         1 UNK         0.0600 
    156 H156        6.1441  -20.8095  -45.3189 H         1 UNK         0.0600 
    157 H157        7.2973  -21.3541  -44.1083 H         1 UNK         0.0600 
    158 H158        7.4759  -19.7633  -44.8284 H         1 UNK         0.0600 
    159 H159        5.1777  -18.5886  -44.8727 H         1 UNK         0.3000 
    160 H160        4.4260  -15.8910  -44.0043 H         1 UNK         0.0600 
    161 H161        2.5883  -16.3618  -45.6837 H         1 UNK         0.0600 
    162 H162        2.4772  -18.0150  -45.0977 H         1 UNK         0.0600 
    163 H163        3.9324  -17.4484  -45.9006 H         1 UNK         0.0600 
    164 H164        2.6826  -16.7835  -42.0564 H         1 UNK         0.3000 
    165 H165        0.7923  -15.8431  -41.3166 H         1 UNK         0.0600 
    166 H166        2.4471  -14.0729  -40.6022 H         1 UNK         0.0600 
    167 H167        1.5642  -12.8709  -41.5371 H         1 UNK         0.0600 
    168 H168        0.8107  -13.6370  -40.1399 H         1 UNK         0.0600 
    169 H169       -0.3419  -14.3337  -43.4545 H         1 UNK         0.3000 
    170 H170       -3.3955  -15.1172  -42.6762 H         1 UNK         0.0600 
    171 H171       -4.0266  -13.4230  -41.0371 H         1 UNK         0.0600 
    172 H172       -3.1152  -12.1779  -41.8719 H         1 UNK         0.0600 
    173 H173       -4.5464  -12.8840  -42.6255 H         1 UNK         0.0600 
    174 H174       -2.6537  -14.7243  -44.6826 H         1 UNK         0.3000 
    175 H175       -1.7982  -11.8781  -46.5384 H         1 UNK         0.0600 
    176 H176       -0.0047  -13.3532  -47.4609 H         1 UNK         0.0600 
    177 H177        0.4763  -12.6347  -45.9303 H         1 UNK         0.0600 
    178 H178       -0.0329  -14.3154  -45.9843 H         1 UNK         0.0600 
    179 H179       -2.3044  -14.7825  -46.8549 H         1 UNK         0.3000 
    180 H180       -5.5619  -14.1943  -48.2279 H         1 UNK         0.0600 
    181 H181       -2.9849  -15.3525  -49.4165 H         1 UNK         0.0600 
    182 H182       -3.8218  -13.9455  -50.0584 H         1 UNK         0.0600 
    183 H183       -4.6219  -15.5001  -50.0610 H         1 UNK         0.0600 
    184 H184       -4.0839  -16.5875  -47.6487 H         1 UNK         0.3000 
    185 H185       -5.0179  -17.0175  -44.3143 H         1 UNK         0.0600 
    186 H186       -6.2921  -19.0460  -45.0300 H         1 UNK         0.0600 
    187 H187       -7.2473  -17.5827  -45.2240 H         1 UNK         0.0600 
    188 H188       -6.5114  -18.3364  -46.6293 H         1 UNK         0.0600 
    189 H189       -4.0858  -18.9640  -46.1360 H         1 UNK         0.3000 
    190 H190        1.3546  -23.3990  -43.5485 H         1 UNK         0.3000 
    191 H191       -0.9382  -22.0134  -42.7999 H         1 UNK         0.0600 
    192 H192        0.1025  -24.7065  -41.7918 H         1 UNK         0.0600 
    193 H193       -1.0500  -23.6818  -40.9435 H         1 UNK         0.0600 
    194 H194        0.5899  -23.1141  -41.2101 H         1 UNK         0.0600 
    195 H195       -0.8105  -24.8554  -44.8064 H         1 UNK         0.3000 
    196 H196       -3.6289  -25.5858  -44.4675 H         1 UNK         0.0600 
    197 H197       -3.0623  -27.2907  -46.1906 H         1 UNK         0.0600 
    198 H198       -1.8933  -27.3182  -44.8813 H         1 UNK         0.0600 
    199 H199       -1.4769  -26.5627  -46.4200 H         1 UNK         0.0600 
    200 H200       -1.9789  -23.1451  -46.3029 H         1 UNK         0.3000 
    201 H201       -3.5828  -23.4011  -48.7199 H         1 UNK         0.0600 
    202 H202       -2.3165  -21.4271  -49.4685 H         1 UNK         0.0600 
    203 H203       -1.6057  -21.2379  -47.8752 H         1 UNK         0.0600 
    204 H204       -1.2278  -22.6591  -48.8436 H         1 UNK         0.0600 
    205 H205       -5.6398  -22.8525  -48.6897 H         1 UNK         0.3000 
    206 H206       -6.8494  -20.6464  -47.2503 H         1 UNK         0.0600 
    207 H207       -8.1418  -22.6488  -48.0448 H         1 UNK         0.0600 
    208 H208       -8.7793  -21.1771  -48.7539 H         1 UNK         0.0600 
    209 H209       -7.7635  -22.2431  -49.7177 H         1 UNK         0.0600 
    210 H210       -7.9386  -18.8338  -48.5742 H         1 UNK         0.3000 
    211 H211       -5.9862  -17.3046  -49.9265 H         1 UNK         0.0600 
    212 H212       -9.0262  -16.9509  -49.8233 H         1 UNK         0.0600 
    213 H213       -7.8771  -15.7262  -50.3507 H         1 UNK         0.0600 
    214 H214       -7.8554  -16.2809  -48.6848 H         1 UNK         0.0600 
    215 H215       -8.5169  -19.4374  -51.1815 H         1 UNK         0.3000 
    216 H216       -8.1991  -18.8056  -53.9657 H         1 UNK         0.0600 
    217 H217       -9.4851  -20.9226  -54.2873 H         1 UNK         0.0600 
    218 H218      -10.2374  -19.9012  -53.0727 H         1 UNK         0.0600 
    219 H219       -9.2990  -21.3120  -52.5814 H         1 UNK         0.0600 
    220 H220       -6.5031  -21.0109  -51.7517 H         1 UNK         0.3000 
    221 H221       -5.0971  -22.4752  -53.8381 H         1 UNK         0.0600 
    222 H222       -4.5549  -22.3399  -50.8279 H         1 UNK         0.0600 
    223 H223       -5.6191  -23.5068  -51.6134 H         1 UNK         0.0600 
    224 H224       -3.8956  -23.5089  -51.9576 H         1 UNK         0.0600 
    225 H225       -4.3854  -19.7824  -51.5920 H         1 UNK         0.3000 
    226 H226       -1.7058  -19.2796  -52.4028 H         1 UNK         0.0600 
    227 H227       -2.1235  -17.0408  -51.3360 H         1 UNK         0.0600 
    228 H228       -3.8337  -17.4308  -51.2153 H         1 UNK         0.0600 
    229 H229       -2.6490  -18.3778  -50.3177 H         1 UNK         0.0600 
    230 H230       -4.8288  -18.0993  -53.7082 H         1 UNK         0.3000 
    231 H231       -3.7034  -16.3692  -55.7012 H         1 UNK         0.0600 
    232 H232       -6.4396  -17.7412  -55.5536 H         1 UNK         0.0600 
    233 H233       -6.0179  -16.4132  -56.6274 H         1 UNK         0.0600 
    234 H234       -6.0396  -16.1582  -54.8893 H         1 UNK         0.0600 
    235 H235       -4.2031  -19.8472  -55.5853 H         1 UNK         0.3000 
    236 H236       -4.0093  -20.2558  -58.4678 H         1 UNK         0.0600 
    237 H237       -4.2707  -22.6397  -57.8573 H         1 UNK         0.0600 
    238 H238       -4.1020  -22.2538  -56.1518 H         1 UNK         0.0600 
    239 H239       -5.4936  -21.6666  -57.0618 H         1 UNK         0.0600 
    240 H240       -1.6496  -19.5937  -56.1522 H         1 UNK         0.3000 
    241 H241        0.4611  -21.3472  -56.7806 H         1 UNK         0.0600 
    242 H242        2.0713  -21.4214  -58.4276 H         1 UNK         0.3800 
    243 H243        2.0651  -20.3361  -59.7879 H         1 UNK         0.3800 
    244 H244        0.5339  -18.4089  -55.9218 H         1 UNK         0.0800 
    245 H245        1.9572  -19.4108  -56.0482 H         1 UNK         0.0800 
    246 H246        1.9449  -18.0571  -53.7365 H         1 UNK         0.0800 
    247 H247        2.9361  -19.4904  -53.6694 H         1 UNK         0.0800 
@<TRIPOS>BOND
     1    1    2 1    
     2    1  127 1    
     3    1  128 1    
     4    1  129 1    
     5    2    3 2    
     6    2    4 am   BACKBONE|DICT|INTERRES
     7    4    5 1    
     8    4  130 1    
     9    5    6 1    
    10    5   65 1    
    11    5  131 1    
    12    6    7 1    
    13    6  132 1    
    14    6  133 1    
    15    7    8 1    
    16    8    9 1    
    17    8  134 1    
    18    8  135 1    
    19    9   10 ar   
    20    9   14 ar   
    21   10   11 ar   
    22   10  136 1    
    23   11   12 ar   
    24   11  126 1    
    25   12   13 ar   
    26   12  137 1    
    27   13   14 ar   
    28   13   15 1    
    29   14  138 1    
    30   15   16 1    
    31   15  139 1    
    32   15  140 1    
    33   16   17 1    
    34   17   18 1    
    35   17  141 1    
    36   17  142 1    
    37   18   19 1    
    38   18   67 1    
    39   18  143 1    
    40   19   20 am   BACKBONE|DICT|INTERRES
    41   19  144 1    
    42   20   21 2    
    43   20   22 1    
    44   22   23 1    
    45   22   24 1    
    46   22  145 1    
    47   23  146 1    
    48   23  147 1    
    49   23  148 1    
    50   24   25 am   BACKBONE|DICT|INTERRES
    51   24  149 1    
    52   25   26 2    
    53   25   27 1    
    54   27   28 1    
    55   27   29 1    
    56   27  150 1    
    57   28  151 1    
    58   28  152 1    
    59   28  153 1    
    60   29   30 am   BACKBONE|DICT|INTERRES
    61   29  154 1    
    62   30   31 2    
    63   30   32 1    
    64   32   33 1    
    65   32   34 1    
    66   32  155 1    
    67   33  156 1    
    68   33  157 1    
    69   33  158 1    
    70   34   35 am   BACKBONE|DICT|INTERRES
    71   34  159 1    
    72   35   36 2    
    73   35   37 1    
    74   37   38 1    
    75   37   39 1    
    76   37  160 1    
    77   38  161 1    
    78   38  162 1    
    79   38  163 1    
    80   39   40 am   BACKBONE|DICT|INTERRES
    81   39  164 1    
    82   40   41 2    
    83   40   42 1    
    84   42   43 1    
    85   42   44 1    
    86   42  165 1    
    87   43  166 1    
    88   43  167 1    
    89   43  168 1    
    90   44   45 am   BACKBONE|DICT|INTERRES
    91   44  169 1    
    92   45   46 2    
    93   45   47 1    
    94   47   48 1    
    95   47   49 1    
    96   47  170 1    
    97   48  171 1    
    98   48  172 1    
    99   48  173 1    
   100   49   50 am   BACKBONE|DICT|INTERRES
   101   49  174 1    
   102   50   51 2    
   103   50   52 1    
   104   52   53 1    
   105   52   54 1    
   106   52  175 1    
   107   53  176 1    
   108   53  177 1    
   109   53  178 1    
   110   54   55 am   BACKBONE|DICT|INTERRES
   111   54  179 1    
   112   55   56 2    
   113   55   57 1    
   114   57   58 1    
   115   57   59 1    
   116   57  180 1    
   117   58  181 1    
   118   58  182 1    
   119   58  183 1    
   120   59   60 am   BACKBONE|DICT|INTERRES
   121   59  184 1    
   122   60   61 2    
   123   60   62 1    
   124   62   63 1    
   125   62   64 1    
   126   62  185 1    
   127   63  186 1    
   128   63  187 1    
   129   63  188 1    
   130   64   65 am   BACKBONE|DICT|INTERRES
   131   64  189 1    
   132   65   66 2    
   133   67   68 2    
   134   67   69 am   BACKBONE|DICT|INTERRES
   135   69   70 1    
   136   69  190 1    
   137   70   71 1    
   138   70   72 1    
   139   70  191 1    
   140   71  192 1    
   141   71  193 1    
   142   71  194 1    
   143   72   73 2    
   144   72   74 am   BACKBONE|DICT|INTERRES
   145   74   75 1    
   146   74  195 1    
   147   75   76 1    
   148   75   77 1    
   149   75  196 1    
   150   76  197 1    
   151   76  198 1    
   152   76  199 1    
   153   77   78 2    
   154   77   79 am   BACKBONE|DICT|INTERRES
   155   79   80 1    
   156   79  200 1    
   157   80   81 1    
   158   80   82 1    
   159   80  201 1    
   160   81  202 1    
   161   81  203 1    
   162   81  204 1    
   163   82   83 2    
   164   82   84 am   BACKBONE|DICT|INTERRES
   165   84   85 1    
   166   84  205 1    
   167   85   86 1    
   168   85   87 1    
   169   85  206 1    
   170   86  207 1    
   171   86  208 1    
   172   86  209 1    
   173   87   88 2    
   174   87   89 am   BACKBONE|DICT|INTERRES
   175   89   90 1    
   176   89  210 1    
   177   90   91 1    
   178   90   92 1    
   179   90  211 1    
   180   91  212 1    
   181   91  213 1    
   182   91  214 1    
   183   92   93 2    
   184   92   94 am   BACKBONE|DICT|INTERRES
   185   94   95 1    
   186   94  215 1    
   187   95   96 1    
   188   95   97 1    
   189   95  216 1    
   190   96  217 1    
   191   96  218 1    
   192   96  219 1    
   193   97   98 2    
   194   97   99 am   BACKBONE|DICT|INTERRES
   195   99  100 1    
   196   99  220 1    
   197  100  101 1    
   198  100  102 1    
   199  100  221 1    
   200  101  222 1    
   201  101  223 1    
   202  101  224 1    
   203  102  103 2    
   204  102  104 am   BACKBONE|DICT|INTERRES
   205  104  105 1    
   206  104  225 1    
   207  105  106 1    
   208  105  107 1    
   209  105  226 1    
   210  106  227 1    
   211  106  228 1    
   212  106  229 1    
   213  107  108 2    
   214  107  109 am   BACKBONE|DICT|INTERRES
   215  109  110 1    
   216  109  230 1    
   217  110  111 1    
   218  110  112 1    
   219  110  231 1    
   220  111  232 1    
   221  111  233 1    
   222  111  234 1    
   223  112  113 2    
   224  112  114 am   BACKBONE|DICT|INTERRES
   225  114  115 1    
   226  114  235 1    
   227  115  116 1    
   228  115  117 1    
   229  115  236 1    
   230  116  237 1    
   231  116  238 1    
   232  116  239 1    
   233  117  118 2    
   234  117  119 am   BACKBONE|DICT|INTERRES
   235  119  120 1    
   236  119  240 1    
   237  120  121 1    
   238  120  124 1    
   239  120  241 1    
   240  121  122 am   BACKBONE|DICT|INTERRES
   241  121  123 2    
   242  122  242 1    
   243  122  243 1    
   244  124  125 1    
   245  124  244 1    
   246  124  245 1    
   247  125  126 1    
   248  126  246 1    
   249  126  247 1    
@<TRIPOS>SUBSTRUCTURE
     1 UNK         1 GROUP             0       ****    0 ROOT    
