@<TRIPOS>MOLECULE
3R540
247   249    1
SMALL
USER_CHARGES


@<TRIPOS>ATOM
      1 CA          4.2885  -11.7836  -44.8970 C.3       0 UNK        -0.1800 
      2 C           2.9837  -12.4889  -45.2319 C.2       0 UNK         0.5000 
      3 O           2.4947  -13.2810  -44.4278 O.2       0 UNK        -0.5000 
      4 N           2.4176  -12.2144  -46.4138 N.am      1 UNK        -0.5000 
      5 CA          1.1536  -12.7930  -46.8975 C.3       1 UNK         0.1400 
      6 C6          1.2185  -13.1389  -48.4114 C.3       23 UNK        -0.0398 
      7 S7          0.4374  -14.7500  -48.7688 S.3       23 UNK        -0.2404 
      8 C8          1.6000  -15.4590  -49.9747 C.3       23 UNK        -0.0205 
      9 C9          1.2275  -16.8905  -50.3288 C.ar      23 UNK        -0.0193 
     10 C10         0.0812  -17.1532  -51.0831 C.ar      23 UNK        -0.1150 
     11 C11        -0.2647  -18.4658  -51.4192 C.ar      23 UNK        -0.0193 
     12 C12         0.5476  -19.5167  -50.9828 C.ar      23 UNK        -0.1150 
     13 C13         1.6954  -19.2760  -50.2168 C.ar      23 UNK        -0.0193 
     14 C14         2.0279  -17.9544  -49.9045 C.ar      23 UNK        -0.1150 
     15 C15         2.6005  -20.3918  -49.6851 C.3       23 UNK        -0.0205 
     16 S16         2.2678  -22.0822  -50.3002 S.3       23 UNK        -0.2404 
     17 C17         0.8292  -22.5744  -49.2864 C.3       23 UNK        -0.0398 
     18 CA          1.2184  -23.5158  -48.1183 C.3       11 UNK         0.1400 
     19 N           2.1113  -22.8364  -47.1837 N.am      11 UNK        -0.5000 
     20 C           3.3345  -23.2296  -46.8137 C.2       10 UNK         0.5000 
     21 O           3.8908  -24.2387  -47.2492 O.2       10 UNK        -0.5000 
     22 CA          4.0717  -22.3450  -45.7843 C.3       10 UNK         0.1400 
     23 CB          5.1690  -21.5205  -46.4748 C.3       10 UNK        -0.1800 
     24 N           3.1724  -21.4377  -45.0662 N.am      10 UNK        -0.5000 
     25 C           2.3109  -21.8303  -44.1158 C.2       9 UNK         0.5000 
     26 O           2.2991  -22.9696  -43.6477 O.2       9 UNK        -0.5000 
     27 CA          1.2783  -20.8030  -43.6040 C.3       9 UNK         0.1400 
     28 CB          1.6289  -20.3568  -42.1757 C.3       9 UNK        -0.1800 
     29 N           1.1128  -19.6118  -44.4415 N.am      9 UNK        -0.5000 
     30 C           0.6931  -19.5922  -45.7147 C.2       8 UNK         0.5000 
     31 O           0.4102  -20.5991  -46.3602 O.2       8 UNK        -0.5000 
     32 CA          0.6371  -18.2180  -46.4024 C.3       8 UNK         0.1400 
     33 CB         -0.7013  -17.5215  -46.1183 C.3       8 UNK        -0.1800 
     34 N           1.7433  -17.3395  -46.0160 N.am      8 UNK        -0.5000 
     35 C           3.0398  -17.5928  -46.2490 C.2       7 UNK         0.5000 
     36 O           3.4526  -18.6171  -46.7904 O.2       7 UNK        -0.5000 
     37 CA          4.0445  -16.5285  -45.7819 C.3       7 UNK         0.1400 
     38 CB          4.1803  -15.4218  -46.8369 C.3       7 UNK        -0.1800 
     39 N           3.6599  -15.9506  -44.4934 N.am      7 UNK        -0.5000 
     40 C           3.8413  -16.5728  -43.3208 C.2       6 UNK         0.5000 
     41 O           4.4048  -17.6612  -43.2007 O.2       6 UNK        -0.5000 
     42 CA          3.2726  -15.8733  -42.0745 C.3       6 UNK         0.1400 
     43 CB          4.2218  -14.7681  -41.5863 C.3       6 UNK        -0.1800 
     44 N           1.9409  -15.3051  -42.2842 N.am      6 UNK        -0.5000 
     45 C           0.8355  -16.0031  -42.5756 C.2       5 UNK         0.5000 
     46 O           0.8417  -17.2148  -42.7933 O.2       5 UNK        -0.5000 
     47 CA         -0.4936  -15.2198  -42.6548 C.3       5 UNK         0.1400 
     48 CB         -1.7103  -16.0858  -42.2667 C.3       5 UNK        -0.1800 
     49 N          -0.5072  -13.9604  -41.8999 N.am      5 UNK        -0.5000 
     50 C          -0.3271  -13.7866  -40.5793 C.2       4 UNK         0.5000 
     51 O          -0.0722  -14.6984  -39.7921 O.2       4 UNK        -0.5000 
     52 CA         -0.4450  -12.3447  -40.0408 C.3       4 UNK         0.1400 
     53 CB          0.9459  -11.6961  -39.9591 C.3       4 UNK        -0.1800 
     54 N          -1.3173  -11.4907  -40.8494 N.am      4 UNK        -0.5000 
     55 C          -2.6429  -11.6457  -40.9800 C.2       3 UNK         0.5000 
     56 O          -3.3008  -12.4554  -40.3255 O.2       3 UNK        -0.5000 
     57 CA         -3.3559  -10.7703  -42.0352 C.3       3 UNK         0.1400 
     58 CB         -4.0933   -9.6067  -41.3543 C.3       3 UNK        -0.1800 
     59 N          -2.4887  -10.2266  -43.0906 N.am      3 UNK        -0.5000 
     60 C          -1.7242  -10.9420  -43.9281 C.2       2 UNK         0.5000 
     61 O          -1.6316  -12.1700  -43.8665 O.2       2 UNK        -0.5000 
     62 CA         -0.9060  -10.1480  -44.9718 C.3       2 UNK         0.1400 
     63 CB         -0.2193   -8.9149  -44.3539 C.3       2 UNK        -0.1800 
     64 N           0.1271  -10.9790  -45.5883 N.am      2 UNK        -0.5000 
     65 C          -0.0666  -11.9122  -46.5304 C.2       1 UNK         0.5000 
     66 O          -1.1473  -12.0850  -47.0963 O.2       1 UNK        -0.5000 
     67 C          -0.0233  -24.0045  -47.3389 C.2       11 UNK         0.5000 
     68 O          -0.1906  -23.6824  -46.1584 O.2       11 UNK        -0.5000 
     69 N          -0.8890  -24.7857  -47.9984 N.am      12 UNK        -0.5000 
     70 CA         -2.1082  -25.3629  -47.4216 C.3       12 UNK         0.1400 
     71 CB         -2.4985  -26.6033  -48.2431 C.3       12 UNK        -0.1800 
     72 C          -3.2516  -24.3294  -47.3325 C.2       12 UNK         0.5000 
     73 O          -4.2974  -24.5097  -47.9560 O.2       12 UNK        -0.5000 
     74 N          -3.0185  -23.2522  -46.5702 N.am      13 UNK        -0.5000 
     75 CA         -3.8296  -22.0317  -46.4538 C.3       13 UNK         0.1400 
     76 CB         -3.1634  -21.1036  -45.4261 C.3       13 UNK        -0.1800 
     77 C          -5.3252  -22.2118  -46.1167 C.2       13 UNK         0.5000 
     78 O          -6.1047  -21.2879  -46.3510 O.2       13 UNK        -0.5000 
     79 N          -5.7064  -23.3765  -45.5773 N.am      14 UNK        -0.5000 
     80 CA         -7.0955  -23.7566  -45.3172 C.3       14 UNK         0.1400 
     81 CB         -7.1075  -24.9917  -44.4032 C.3       14 UNK        -0.1800 
     82 C          -7.9092  -24.0294  -46.6007 C.2       14 UNK         0.5000 
     83 O          -9.1329  -23.8877  -46.5758 O.2       14 UNK        -0.5000 
     84 N          -7.2319  -24.4250  -47.6866 N.am      15 UNK        -0.5000 
     85 CA         -7.8310  -24.6939  -48.9924 C.3       15 UNK         0.1400 
     86 CB         -7.0326  -25.8195  -49.6657 C.3       15 UNK        -0.1800 
     87 C          -7.8446  -23.4321  -49.8745 C.2       15 UNK         0.5000 
     88 O          -7.1043  -22.4799  -49.6134 O.2       15 UNK        -0.5000 
     89 N          -8.6719  -23.4619  -50.9290 N.am      16 UNK        -0.5000 
     90 CA         -8.8204  -22.3980  -51.9264 C.3       16 UNK         0.1400 
     91 CB         -9.9055  -22.8000  -52.9365 C.3       16 UNK        -0.1800 
     92 C          -7.4937  -22.0966  -52.6469 C.2       16 UNK         0.5000 
     93 O          -6.8672  -23.0189  -53.1766 O.2       16 UNK        -0.5000 
     94 N          -7.0659  -20.8254  -52.5987 N.am      17 UNK        -0.5000 
     95 CA         -5.7772  -20.3129  -53.0904 C.3       17 UNK         0.1400 
     96 CB         -5.7704  -20.2716  -54.6307 C.3       17 UNK        -0.1800 
     97 C          -4.5630  -21.0619  -52.4938 C.2       17 UNK         0.5000 
     98 O          -3.5621  -21.2777  -53.1787 O.2       17 UNK        -0.5000 
     99 N          -4.7157  -21.4934  -51.2330 N.am      18 UNK        -0.5000 
    100 CA        -3.8147  -22.3468  -50.4599 C.3       18 UNK         0.1400 
    101 CB        -2.5571  -21.5696  -50.0360 C.3       18 UNK        -0.1800 
    102 C         -3.5116  -23.6949  -51.1522 C.2       18 UNK         0.5000 
    103 O         -2.3651  -24.1449  -51.1507 O.2       18 UNK        -0.5000 
    104 N         -4.5626  -24.2897  -51.7382 N.am      19 UNK        -0.5000 
    105 CA        -4.5786  -25.4923  -52.5778 C.3       19 UNK         0.1400 
    106 CB        -3.9835  -26.7226  -51.8593 C.3       19 UNK        -0.1800 
    107 C         -3.9517  -25.2256  -53.9590 C.2       19 UNK         0.5000 
    108 O         -3.1305  -26.0139  -54.4314 O.2       19 UNK        -0.5000 
    109 N         -4.3640  -24.1067  -54.5762 N.am      20 UNK        -0.5000 
    110 CA        -3.9178  -23.5973  -55.8803 C.3       20 UNK         0.1400 
    111 CB        -4.4433  -24.4964  -57.0183 C.3       20 UNK        -0.1800 
    112 C         -2.3941  -23.3550  -55.9546 C.2       20 UNK         0.5000 
    113 O         -1.7707  -23.6134  -56.9861 O.2       20 UNK        -0.5000 
    114 N         -1.8219  -22.8671  -54.8481 N.am      21 UNK        -0.5000 
    115 CA        -0.3943  -22.5915  -54.6964 C.3       21 UNK         0.1400 
    116 CB        -0.0053  -22.8206  -53.2304 C.3       21 UNK        -0.1800 
    117 C         -0.0100  -21.1719  -55.1533 C.2       21 UNK         0.5000 
    118 O          1.1795  -20.8935  -55.3111 O.2       21 UNK        -0.5000 
    119 N         -1.0044  -20.3050  -55.3692 N.am      22 UNK        -0.5000 
    120 CA        -0.8443  -18.9348  -55.8657 C.3       22 UNK         0.1400 
    121 C         -2.0299  -18.5127  -56.7787 C.2       22 UNK         0.5000 
    122 N         -1.9640  -17.3390  -57.3930 N.am      22 UNK        -0.7600 
    123 O         -3.0057  -19.2408  -56.9522 O.2       22 UNK        -0.5000 
    124 C124       -0.5252  -17.9318  -54.7216 C.3       23 UNK        -0.0398 
    125 S125       -1.9057  -17.6210  -53.5631 S.3       23 UNK        -0.2404 
    126 C126       -1.5331  -18.7817  -52.2073 C.3       23 UNK        -0.0205 
    127 H127        4.1720  -11.1927  -43.9886 H         1 UNK         0.0600 
    128 H128        4.6081  -11.1187  -45.6995 H         1 UNK         0.0600 
    129 H129        5.0760  -12.5181  -44.7283 H         1 UNK         0.0600 
    130 H130        2.8544  -11.5408  -47.0280 H         1 UNK         0.3000 
    131 H131        0.9926  -13.7260  -46.3530 H         1 UNK         0.0600 
    132 H132        2.2576  -13.1904  -48.7393 H         1 UNK         0.0800 
    133 H133        0.7589  -12.3680  -49.0326 H         1 UNK         0.0800 
    134 H134        1.6008  -14.8493  -50.8793 H         1 UNK         0.0800 
    135 H135        2.6125  -15.4198  -49.5707 H         1 UNK         0.0800 
    136 H136       -0.5455  -16.3310  -51.3984 H         1 UNK         0.1150 
    137 H137        0.2688  -20.5259  -51.2366 H         1 UNK         0.1150 
    138 H138        2.9121  -17.7553  -49.3157 H         1 UNK         0.1150 
    139 H139        3.6332  -20.1474  -49.9372 H         1 UNK         0.0800 
    140 H140        2.5469  -20.3961  -48.5960 H         1 UNK         0.0800 
    141 H141        0.3265  -21.6814  -48.9108 H         1 UNK         0.0800 
    142 H142        0.1248  -23.0662  -49.9590 H         1 UNK         0.0800 
    143 H143        1.7061  -24.4013  -48.5308 H         1 UNK         0.0600 
    144 H144        1.6897  -22.0380  -46.7182 H         1 UNK         0.3000 
    145 H145        4.5496  -23.0067  -45.0589 H         1 UNK         0.0600 
    146 H146        5.6901  -20.8781  -45.7647 H         1 UNK         0.0600 
    147 H147        4.7606  -20.8887  -47.2639 H         1 UNK         0.0600 
    148 H148        5.9140  -22.1718  -46.9332 H         1 UNK         0.0600 
    149 H149        3.1254  -20.4850  -45.4051 H         1 UNK         0.3000 
    150 H150        0.3143  -21.3149  -43.5752 H         1 UNK         0.0600 
    151 H151        2.5491  -19.7712  -42.1548 H         1 UNK         0.0600 
    152 H152        0.8335  -19.7466  -41.7476 H         1 UNK         0.0600 
    153 H153        1.7674  -21.2139  -41.5154 H         1 UNK         0.0600 
    154 H154        1.2721  -18.7218  -43.9777 H         1 UNK         0.3000 
    155 H155        0.7055  -18.3871  -47.4779 H         1 UNK         0.0600 
    156 H156       -1.5384  -18.1451  -46.4349 H         1 UNK         0.0600 
    157 H157       -0.7796  -16.5771  -46.6562 H         1 UNK         0.0600 
    158 H158       -0.8296  -17.3155  -45.0566 H         1 UNK         0.0600 
    159 H159        1.5009  -16.4878  -45.5350 H         1 UNK         0.3000 
    160 H160        5.0193  -17.0096  -45.6748 H         1 UNK         0.0600 
    161 H161        3.2261  -14.9340  -47.0308 H         1 UNK         0.0600 
    162 H162        4.5346  -15.8308  -47.7839 H         1 UNK         0.0600 
    163 H163        4.8948  -14.6605  -46.5243 H         1 UNK         0.0600 
    164 H164        3.1928  -15.0475  -44.4952 H         1 UNK         0.3000 
    165 H165        3.1887  -16.6235  -41.2854 H         1 UNK         0.0600 
    166 H166        3.8681  -14.3290  -40.6532 H         1 UNK         0.0600 
    167 H167        5.2208  -15.1648  -41.4007 H         1 UNK         0.0600 
    168 H168        4.3175  -13.9658  -42.3190 H         1 UNK         0.0600 
    169 H169        1.8600  -14.3018  -42.2059 H         1 UNK         0.3000 
    170 H170       -0.6098  -14.9400  -43.7028 H         1 UNK         0.0600 
    171 H171       -1.7971  -16.9632  -42.9076 H         1 UNK         0.0600 
    172 H172       -1.6400  -16.4415  -41.2384 H         1 UNK         0.0600 
    173 H173       -2.6389  -15.5230  -42.3637 H         1 UNK         0.0600 
    174 H174       -0.7517  -13.1474  -42.4588 H         1 UNK         0.3000 
    175 H175       -0.8607  -12.3995  -39.0325 H         1 UNK         0.0600 
    176 H176        1.4034  -11.5977  -40.9446 H         1 UNK         0.0600 
    177 H177        0.8932  -10.7034  -39.5118 H         1 UNK         0.0600 
    178 H178        1.6200  -12.2931  -39.3432 H         1 UNK         0.0600 
    179 H179       -0.8657  -10.7887  -41.4159 H         1 UNK         0.3000 
    180 H180       -4.0984  -11.4052  -42.5228 H         1 UNK         0.0600 
    181 H181       -3.3977   -8.9152  -40.8773 H         1 UNK         0.0600 
    182 H182       -4.7742   -9.9710  -40.5837 H         1 UNK         0.0600 
    183 H183       -4.6906   -9.0431  -42.0713 H         1 UNK         0.0600 
    184 H184       -2.5007   -9.2222  -43.1938 H         1 UNK         0.3000 
    185 H185       -1.5964   -9.8106  -45.7475 H         1 UNK         0.0600 
    186 H186        0.4188   -9.1880  -43.5123 H         1 UNK         0.0600 
    187 H187        0.4023   -8.4030  -45.0891 H         1 UNK         0.0600 
    188 H188       -0.9464   -8.1852  -43.9966 H         1 UNK         0.0600 
    189 H189        1.0431  -10.9348  -45.1681 H         1 UNK         0.3000 
    190 H190       -0.7319  -24.9861  -48.9764 H         1 UNK         0.3000 
    191 H191       -1.8966  -25.6974  -46.4038 H         1 UNK         0.0600 
    192 H192       -3.4008  -27.0717  -47.8476 H         1 UNK         0.0600 
    193 H193       -1.7085  -27.3541  -48.2249 H         1 UNK         0.0600 
    194 H194       -2.6903  -26.3444  -49.2837 H         1 UNK         0.0600 
    195 H195       -2.1057  -23.2141  -46.1251 H         1 UNK         0.3000 
    196 H196       -3.7929  -21.5335  -47.4227 H         1 UNK         0.0600 
    197 H197       -3.1212  -21.5640  -44.4384 H         1 UNK         0.0600 
    198 H198       -2.1457  -20.8556  -45.7235 H         1 UNK         0.0600 
    199 H199       -3.7077  -20.1632  -45.3293 H         1 UNK         0.0600 
    200 H200       -5.0026  -24.0832  -45.4244 H         1 UNK         0.3000 
    201 H201       -7.5820  -22.9353  -44.7869 H         1 UNK         0.0600 
    202 H202       -8.1289  -25.2898  -44.1627 H         1 UNK         0.0600 
    203 H203       -6.5986  -24.7904  -43.4603 H         1 UNK         0.0600 
    204 H204       -6.6187  -25.8453  -44.8746 H         1 UNK         0.0600 
    205 H205       -6.2164  -24.4480  -47.6531 H         1 UNK         0.3000 
    206 H206       -8.8611  -25.0329  -48.8644 H         1 UNK         0.0600 
    207 H207       -7.0925  -26.7421  -49.0884 H         1 UNK         0.0600 
    208 H208       -7.4073  -26.0370  -50.6665 H         1 UNK         0.0600 
    209 H209       -5.9804  -25.5552  -49.7552 H         1 UNK         0.0600 
    210 H210       -9.2218  -24.2933  -51.0889 H         1 UNK         0.3000 
    211 H211       -9.1546  -21.4995  -51.4039 H         1 UNK         0.0600 
    212 H212       -9.6421  -23.7160  -53.4671 H         1 UNK         0.0600 
    213 H213      -10.0516  -22.0189  -53.6837 H         1 UNK         0.0600 
    214 H214      -10.8647  -22.9606  -52.4438 H         1 UNK         0.0600 
    215 H215       -7.6451  -20.1466  -52.1238 H         1 UNK         0.3000 
    216 H216       -5.6911  -19.2851  -52.7352 H         1 UNK         0.0600 
    217 H217       -6.5582  -19.6186  -55.0057 H         1 UNK         0.0600 
    218 H218       -5.9288  -21.2583  -55.0625 H         1 UNK         0.0600 
    219 H219       -4.8251  -19.8861  -55.0137 H         1 UNK         0.0600 
    220 H220       -5.6060  -21.3157  -50.7825 H         1 UNK         0.3000 
    221 H221       -4.3697  -22.5843  -49.5552 H         1 UNK         0.0600 
    222 H222       -2.0016  -22.1284  -49.2847 H         1 UNK         0.0600 
    223 H223       -1.8953  -21.3910  -50.8795 H         1 UNK         0.0600 
    224 H224       -2.8114  -20.6048  -49.5976 H         1 UNK         0.0600 
    225 H225       -5.4381  -23.7819  -51.7274 H         1 UNK         0.3000 
    226 H226       -5.6315  -25.7091  -52.7634 H         1 UNK         0.0600 
    227 H227       -4.4439  -26.8811  -50.8855 H         1 UNK         0.0600 
    228 H228       -4.1509  -27.6276  -52.4439 H         1 UNK         0.0600 
    229 H229       -2.9073  -26.6303  -51.7138 H         1 UNK         0.0600 
    230 H230       -5.0629  -23.5449  -54.1018 H         1 UNK         0.3000 
    231 H231       -4.3751  -22.6166  -56.0041 H         1 UNK         0.0600 
    232 H232       -4.2283  -24.0592  -57.9940 H         1 UNK         0.0600 
    233 H233       -5.5240  -24.6229  -56.9526 H         1 UNK         0.0600 
    234 H234       -3.9872  -25.4865  -56.9954 H         1 UNK         0.0600 
    235 H235       -2.4200  -22.6059  -54.0692 H         1 UNK         0.3000 
    236 H236        0.1779  -23.2936  -55.3064 H         1 UNK         0.0600 
    237 H237       -0.1689  -23.8579  -52.9375 H         1 UNK         0.0600 
    238 H238        1.0483  -22.5963  -53.0614 H         1 UNK         0.0600 
    239 H239       -0.5915  -22.1925  -52.5631 H         1 UNK         0.0600 
    240 H240       -1.9615  -20.6074  -55.2444 H         1 UNK         0.3000 
    241 H241        0.0161  -18.9413  -56.5377 H         1 UNK         0.0600 
    242 H242       -1.1750  -16.7217  -57.2815 H         1 UNK         0.3800 
    243 H243       -2.7272  -17.0598  -57.9898 H         1 UNK         0.3800 
    244 H244       -0.2301  -16.9708  -55.1441 H         1 UNK         0.0800 
    245 H245        0.3467  -18.2739  -54.1628 H         1 UNK         0.0800 
    246 H246       -1.4722  -19.7840  -52.6301 H         1 UNK         0.0800 
    247 H247       -2.3756  -18.7890  -51.5154 H         1 UNK         0.0800 
@<TRIPOS>BOND
     1    1    2 1    
     2    1  127 1    
     3    1  128 1    
     4    1  129 1    
     5    2    3 2    
     6    2    4 am   BACKBONE|DICT|INTERRES
     7    4    5 1    
     8    4  130 1    
     9    5    6 1    
    10    5   65 1    
    11    5  131 1    
    12    6    7 1    
    13    6  132 1    
    14    6  133 1    
    15    7    8 1    
    16    8    9 1    
    17    8  134 1    
    18    8  135 1    
    19    9   10 ar   
    20    9   14 ar   
    21   10   11 ar   
    22   10  136 1    
    23   11   12 ar   
    24   11  126 1    
    25   12   13 ar   
    26   12  137 1    
    27   13   14 ar   
    28   13   15 1    
    29   14  138 1    
    30   15   16 1    
    31   15  139 1    
    32   15  140 1    
    33   16   17 1    
    34   17   18 1    
    35   17  141 1    
    36   17  142 1    
    37   18   19 1    
    38   18   67 1    
    39   18  143 1    
    40   19   20 am   BACKBONE|DICT|INTERRES
    41   19  144 1    
    42   20   21 2    
    43   20   22 1    
    44   22   23 1    
    45   22   24 1    
    46   22  145 1    
    47   23  146 1    
    48   23  147 1    
    49   23  148 1    
    50   24   25 am   BACKBONE|DICT|INTERRES
    51   24  149 1    
    52   25   26 2    
    53   25   27 1    
    54   27   28 1    
    55   27   29 1    
    56   27  150 1    
    57   28  151 1    
    58   28  152 1    
    59   28  153 1    
    60   29   30 am   BACKBONE|DICT|INTERRES
    61   29  154 1    
    62   30   31 2    
    63   30   32 1    
    64   32   33 1    
    65   32   34 1    
    66   32  155 1    
    67   33  156 1    
    68   33  157 1    
    69   33  158 1    
    70   34   35 am   BACKBONE|DICT|INTERRES
    71   34  159 1    
    72   35   36 2    
    73   35   37 1    
    74   37   38 1    
    75   37   39 1    
    76   37  160 1    
    77   38  161 1    
    78   38  162 1    
    79   38  163 1    
    80   39   40 am   BACKBONE|DICT|INTERRES
    81   39  164 1    
    82   40   41 2    
    83   40   42 1    
    84   42   43 1    
    85   42   44 1    
    86   42  165 1    
    87   43  166 1    
    88   43  167 1    
    89   43  168 1    
    90   44   45 am   BACKBONE|DICT|INTERRES
    91   44  169 1    
    92   45   46 2    
    93   45   47 1    
    94   47   48 1    
    95   47   49 1    
    96   47  170 1    
    97   48  171 1    
    98   48  172 1    
    99   48  173 1    
   100   49   50 am   BACKBONE|DICT|INTERRES
   101   49  174 1    
   102   50   51 2    
   103   50   52 1    
   104   52   53 1    
   105   52   54 1    
   106   52  175 1    
   107   53  176 1    
   108   53  177 1    
   109   53  178 1    
   110   54   55 am   BACKBONE|DICT|INTERRES
   111   54  179 1    
   112   55   56 2    
   113   55   57 1    
   114   57   58 1    
   115   57   59 1    
   116   57  180 1    
   117   58  181 1    
   118   58  182 1    
   119   58  183 1    
   120   59   60 am   BACKBONE|DICT|INTERRES
   121   59  184 1    
   122   60   61 2    
   123   60   62 1    
   124   62   63 1    
   125   62   64 1    
   126   62  185 1    
   127   63  186 1    
   128   63  187 1    
   129   63  188 1    
   130   64   65 am   BACKBONE|DICT|INTERRES
   131   64  189 1    
   132   65   66 2    
   133   67   68 2    
   134   67   69 am   BACKBONE|DICT|INTERRES
   135   69   70 1    
   136   69  190 1    
   137   70   71 1    
   138   70   72 1    
   139   70  191 1    
   140   71  192 1    
   141   71  193 1    
   142   71  194 1    
   143   72   73 2    
   144   72   74 am   BACKBONE|DICT|INTERRES
   145   74   75 1    
   146   74  195 1    
   147   75   76 1    
   148   75   77 1    
   149   75  196 1    
   150   76  197 1    
   151   76  198 1    
   152   76  199 1    
   153   77   78 2    
   154   77   79 am   BACKBONE|DICT|INTERRES
   155   79   80 1    
   156   79  200 1    
   157   80   81 1    
   158   80   82 1    
   159   80  201 1    
   160   81  202 1    
   161   81  203 1    
   162   81  204 1    
   163   82   83 2    
   164   82   84 am   BACKBONE|DICT|INTERRES
   165   84   85 1    
   166   84  205 1    
   167   85   86 1    
   168   85   87 1    
   169   85  206 1    
   170   86  207 1    
   171   86  208 1    
   172   86  209 1    
   173   87   88 2    
   174   87   89 am   BACKBONE|DICT|INTERRES
   175   89   90 1    
   176   89  210 1    
   177   90   91 1    
   178   90   92 1    
   179   90  211 1    
   180   91  212 1    
   181   91  213 1    
   182   91  214 1    
   183   92   93 2    
   184   92   94 am   BACKBONE|DICT|INTERRES
   185   94   95 1    
   186   94  215 1    
   187   95   96 1    
   188   95   97 1    
   189   95  216 1    
   190   96  217 1    
   191   96  218 1    
   192   96  219 1    
   193   97   98 2    
   194   97   99 am   BACKBONE|DICT|INTERRES
   195   99  100 1    
   196   99  220 1    
   197  100  101 1    
   198  100  102 1    
   199  100  221 1    
   200  101  222 1    
   201  101  223 1    
   202  101  224 1    
   203  102  103 2    
   204  102  104 am   BACKBONE|DICT|INTERRES
   205  104  105 1    
   206  104  225 1    
   207  105  106 1    
   208  105  107 1    
   209  105  226 1    
   210  106  227 1    
   211  106  228 1    
   212  106  229 1    
   213  107  108 2    
   214  107  109 am   BACKBONE|DICT|INTERRES
   215  109  110 1    
   216  109  230 1    
   217  110  111 1    
   218  110  112 1    
   219  110  231 1    
   220  111  232 1    
   221  111  233 1    
   222  111  234 1    
   223  112  113 2    
   224  112  114 am   BACKBONE|DICT|INTERRES
   225  114  115 1    
   226  114  235 1    
   227  115  116 1    
   228  115  117 1    
   229  115  236 1    
   230  116  237 1    
   231  116  238 1    
   232  116  239 1    
   233  117  118 2    
   234  117  119 am   BACKBONE|DICT|INTERRES
   235  119  120 1    
   236  119  240 1    
   237  120  121 1    
   238  120  124 1    
   239  120  241 1    
   240  121  122 am   BACKBONE|DICT|INTERRES
   241  121  123 2    
   242  122  242 1    
   243  122  243 1    
   244  124  125 1    
   245  124  244 1    
   246  124  245 1    
   247  125  126 1    
   248  126  246 1    
   249  126  247 1    
@<TRIPOS>SUBSTRUCTURE
     1 UNK         1 GROUP             0       ****    0 ROOT    
