@<TRIPOS>MOLECULE
3R540
247   249    1
SMALL
USER_CHARGES


@<TRIPOS>ATOM
      1 CA          0.7205  -13.3322  -51.6253 C.3       0 UNK        -0.1800 
      2 C           0.9753  -12.9977  -50.1626 C.2       0 UNK         0.5000 
      3 O           0.5557  -11.9418  -49.6886 O.2       0 UNK        -0.5000 
      4 N           1.6444  -13.9025  -49.4389 N.am      1 UNK        -0.5000 
      5 CA          2.0167  -13.7999  -48.0194 C.3       1 UNK         0.1400 
      6 C6          3.2056  -14.7364  -47.6698 C.3       23 UNK        -0.0398 
      7 S7          4.6294  -14.5859  -48.8002 S.3       23 UNK        -0.2404 
      8 C8          5.3582  -16.2610  -48.6903 C.3       23 UNK        -0.0205 
      9 C9          4.5202  -17.4116  -49.2587 C.ar      23 UNK        -0.0193 
     10 C10         3.4910  -17.2153  -50.1910 C.ar      23 UNK        -0.1150 
     11 C11         2.7634  -18.2978  -50.6969 C.ar      23 UNK        -0.0193 
     12 C12         3.0887  -19.5922  -50.2775 C.ar      23 UNK        -0.1150 
     13 C13         4.1306  -19.8122  -49.3758 C.ar      23 UNK        -0.0193 
     14 C14         4.8296  -18.7171  -48.8600 C.ar      23 UNK        -0.1150 
     15 C15         4.5385  -21.2342  -49.0105 C.3       23 UNK        -0.0205 
     16 S16         3.5919  -21.9091  -47.6110 S.3       23 UNK        -0.2404 
     17 C17         1.9746  -22.2531  -48.3849 C.3       23 UNK        -0.0398 
     18 CA          1.0697  -23.1268  -47.4840 C.3       11 UNK         0.1400 
     19 N           0.6788  -22.4360  -46.2522 N.am      11 UNK        -0.5000 
     20 C           0.0463  -23.0085  -45.2189 C.2       10 UNK         0.5000 
     21 O          -0.2533  -24.2029  -45.1757 O.2       10 UNK        -0.5000 
     22 CA         -0.3634  -22.0766  -44.0620 C.3       10 UNK         0.1400 
     23 CB          0.8416  -21.7231  -43.1769 C.3       10 UNK        -0.1800 
     24 N          -1.0032  -20.8484  -44.5376 N.am      10 UNK        -0.5000 
     25 C          -2.1783  -20.8138  -45.1819 C.2       9 UNK         0.5000 
     26 O          -2.8671  -21.8077  -45.4018 O.2       9 UNK        -0.5000 
     27 CA         -2.6405  -19.4521  -45.7222 C.3       9 UNK         0.1400 
     28 CB         -3.3691  -18.6358  -44.6447 C.3       9 UNK        -0.1800 
     29 N          -1.5302  -18.6781  -46.2706 N.am      9 UNK        -0.5000 
     30 C          -0.8917  -18.9984  -47.4043 C.2       8 UNK         0.5000 
     31 O          -1.1957  -19.9501  -48.1175 O.2       8 UNK        -0.5000 
     32 CA          0.3160  -18.1381  -47.7918 C.3       8 UNK         0.1400 
     33 CB         -0.1528  -16.9365  -48.6183 C.3       8 UNK        -0.1800 
     34 N           1.1043  -17.7084  -46.6332 N.am      8 UNK        -0.5000 
     35 C           1.7706  -18.5696  -45.8496 C.2       7 UNK         0.5000 
     36 O           1.7546  -19.7867  -46.0180 O.2       7 UNK        -0.5000 
     37 CA          2.5297  -18.0044  -44.6386 C.3       7 UNK         0.1400 
     38 CB          3.9439  -17.5605  -45.0384 C.3       7 UNK        -0.1800 
     39 N           1.8487  -16.9118  -43.9453 N.am      7 UNK        -0.5000 
     40 C           0.6165  -16.9525  -43.4272 C.2       6 UNK         0.5000 
     41 O          -0.1452  -17.9095  -43.5786 O.2       6 UNK        -0.5000 
     42 CA          0.1391  -15.7520  -42.5803 C.3       6 UNK         0.1400 
     43 CB          0.3060  -16.0623  -41.0820 C.3       6 UNK        -0.1800 
     44 N           0.7036  -14.4270  -42.8826 N.am      6 UNK        -0.5000 
     45 C           1.9731  -13.9921  -42.8424 C.2       5 UNK         0.5000 
     46 O           2.9482  -14.7186  -42.6515 O.2       5 UNK        -0.5000 
     47 CA          2.1967  -12.4765  -43.0183 C.3       5 UNK         0.1400 
     48 CB          2.5945  -12.1292  -44.4595 C.3       5 UNK        -0.1800 
     49 N           1.0286  -11.6831  -42.6271 N.am      5 UNK        -0.5000 
     50 C           0.6925  -11.4359  -41.3518 C.2       4 UNK         0.5000 
     51 O           1.3727  -11.7921  -40.3886 O.2       4 UNK        -0.5000 
     52 CA         -0.6229  -10.6738  -41.0949 C.3       4 UNK         0.1400 
     53 CB         -0.3439   -9.1774  -40.8864 C.3       4 UNK        -0.1800 
     54 N          -1.6252  -10.8263  -42.1516 N.am      4 UNK        -0.5000 
     55 C          -2.2211  -11.9753  -42.4967 C.2       3 UNK         0.5000 
     56 O          -1.9666  -13.0605  -41.9730 O.2       3 UNK        -0.5000 
     57 CA         -3.2621  -11.9241  -43.6331 C.3       3 UNK         0.1400 
     58 CB         -3.6199  -10.4968  -44.1080 C.3       3 UNK        -0.1800 
     59 N          -2.8585  -12.7552  -44.7712 N.am      3 UNK        -0.5000 
     60 C          -1.7366  -12.6387  -45.4961 C.2       2 UNK         0.5000 
     61 O          -0.8529  -11.8084  -45.2649 O.2       2 UNK        -0.5000 
     62 CA         -1.6045  -13.6158  -46.6797 C.3       2 UNK         0.1400 
     63 CB         -2.7420  -13.4266  -47.6993 C.3       2 UNK        -0.1800 
     64 N          -0.3373  -13.4455  -47.3844 N.am      2 UNK        -0.5000 
     65 C           0.8086  -14.0615  -47.0840 C.2       1 UNK         0.5000 
     66 O           0.9128  -14.8603  -46.1516 O.2       1 UNK        -0.5000 
     67 C          -0.1598  -23.6348  -48.2646 C.2       11 UNK         0.5000 
     68 O          -0.1698  -24.7877  -48.6974 O.2       11 UNK        -0.5000 
     69 N          -1.1909  -22.7897  -48.3998 N.am      12 UNK        -0.5000 
     70 CA         -2.4426  -23.1306  -49.0707 C.3       12 UNK         0.1400 
     71 CB         -3.2826  -21.8719  -49.2797 C.3       12 UNK        -0.1800 
     72 C          -3.2554  -24.2065  -48.3350 C.2       12 UNK         0.5000 
     73 O          -3.8432  -25.0572  -48.9982 O.2       12 UNK        -0.5000 
     74 N          -3.2493  -24.1919  -46.9945 N.am      13 UNK        -0.5000 
     75 CA         -3.8812  -25.2189  -46.1629 C.3       13 UNK         0.1400 
     76 CB         -3.8510  -24.7954  -44.6869 C.3       13 UNK        -0.1800 
     77 C          -3.2391  -26.6059  -46.3455 C.2       13 UNK         0.5000 
     78 O          -3.9599  -27.6027  -46.3959 O.2       13 UNK        -0.5000 
     79 N          -1.9062  -26.6409  -46.4872 N.am      14 UNK        -0.5000 
     80 CA         -1.1439  -27.8506  -46.8004 C.3       14 UNK         0.1400 
     81 CB          0.3511  -27.5901  -46.5612 C.3       14 UNK        -0.1800 
     82 C          -1.3963  -28.3523  -48.2365 C.2       14 UNK         0.5000 
     83 O          -1.4854  -29.5618  -48.4503 O.2       14 UNK        -0.5000 
     84 N          -1.5269  -27.4176  -49.1880 N.am      15 UNK        -0.5000 
     85 CA         -1.8190  -27.6910  -50.5981 C.3       15 UNK         0.1400 
     86 CB         -1.4294  -26.4581  -51.4289 C.3       15 UNK        -0.1800 
     87 C          -3.2900  -28.0697  -50.8738 C.2       15 UNK         0.5000 
     88 O          -3.5740  -28.6103  -51.9433 O.2       15 UNK        -0.5000 
     89 N          -4.1886  -27.7588  -49.9277 N.am      16 UNK        -0.5000 
     90 CA         -5.6517  -27.8328  -50.0145 C.3       16 UNK         0.1400 
     91 CB         -6.1343  -29.2875  -50.1941 C.3       16 UNK        -0.1800 
     92 C          -6.2108  -26.8573  -51.0741 C.2       16 UNK         0.5000 
     93 O          -7.0301  -27.2398  -51.9121 O.2       16 UNK        -0.5000 
     94 N          -5.7289  -25.6119  -51.0169 N.am      17 UNK        -0.5000 
     95 CA         -6.0457  -24.5083  -51.9195 C.3       17 UNK         0.1400 
     96 CB         -4.7840  -24.2104  -52.7484 C.3       17 UNK        -0.1800 
     97 C          -6.4941  -23.2698  -51.1186 C.2       17 UNK         0.5000 
     98 O          -6.5543  -23.3144  -49.8871 O.2       17 UNK        -0.5000 
     99 N          -6.7972  -22.1768  -51.8311 N.am      18 UNK        -0.5000 
    100 CA        -7.0997  -20.8666  -51.2517 C.3       18 UNK         0.1400 
    101 CB        -8.0297  -20.0989  -52.2037 C.3       18 UNK        -0.1800 
    102 C         -5.8061  -20.0678  -51.0138 C.2       18 UNK         0.5000 
    103 O         -4.8726  -20.1655  -51.8162 O.2       18 UNK        -0.5000 
    104 N         -5.7829  -19.2722  -49.9350 N.am      19 UNK        -0.5000 
    105 CA        -4.6389  -18.4551  -49.5128 C.3       19 UNK         0.1400 
    106 CB        -4.9458  -17.8070  -48.1536 C.3       19 UNK        -0.1800 
    107 C         -4.2517  -17.3825  -50.5432 C.2       19 UNK         0.5000 
    108 O         -3.0725  -17.2382  -50.8630 O.2       19 UNK        -0.5000 
    109 N         -5.2628  -16.6864  -51.0808 N.am      20 UNK        -0.5000 
    110 CA        -5.1092  -15.6426  -52.0983 C.3       20 UNK         0.1400 
    111 CB        -6.4438  -14.8978  -52.2533 C.3       20 UNK        -0.1800 
    112 C         -4.6297  -16.1805  -53.4609 C.2       20 UNK         0.5000 
    113 O         -4.0230  -15.4335  -54.2288 O.2       20 UNK        -0.5000 
    114 N         -4.8970  -17.4657  -53.7270 N.am      21 UNK        -0.5000 
    115 CA        -4.4438  -18.1840  -54.9165 C.3       21 UNK         0.1400 
    116 CB        -5.4657  -19.2854  -55.2432 C.3       21 UNK        -0.1800 
    117 C         -3.0381  -18.7926  -54.7437 C.2       21 UNK         0.5000 
    118 O         -2.4866  -19.2895  -55.7265 O.2       21 UNK        -0.5000 
    119 N         -2.4916  -18.7674  -53.5172 N.am      22 UNK        -0.5000 
    120 CA        -1.2538  -19.4573  -53.1196 C.3       22 UNK         0.1400 
    121 C         -1.3931  -21.0125  -53.1681 C.2       22 UNK         0.5000 
    122 N         -2.5612  -21.5597  -52.8521 N.am      22 UNK        -0.7600 
    123 O         -0.4577  -21.7375  -53.4940 O.2       22 UNK        -0.5000 
    124 C124       -0.0055  -18.8755  -53.8502 C.3       23 UNK        -0.0398 
    125 S125        1.5943  -19.2469  -53.0537 S.3       23 UNK        -0.2404 
    126 C126        1.6126  -18.0597  -51.6712 C.3       23 UNK        -0.0205 
    127 H127        1.1514  -14.2946  -51.9028 H         1 UNK         0.0600 
    128 H128        1.1569  -12.5666  -52.2666 H         1 UNK         0.0600 
    129 H129       -0.3514  -13.3716  -51.8192 H         1 UNK         0.0600 
    130 H130        1.9614  -14.7424  -49.8967 H         1 UNK         0.3000 
    131 H131        2.3405  -12.7743  -47.8307 H         1 UNK         0.0600 
    132 H132        3.5597  -14.5325  -46.6581 H         1 UNK         0.0800 
    133 H133        2.8769  -15.7759  -47.6776 H         1 UNK         0.0800 
    134 H134        5.5915  -16.4616  -47.6435 H         1 UNK         0.0800 
    135 H135        6.3126  -16.2485  -49.2180 H         1 UNK         0.0800 
    136 H136        3.2542  -16.2199  -50.5332 H         1 UNK         0.1150 
    137 H137        2.5415  -20.4370  -50.6703 H         1 UNK         0.1150 
    138 H138        5.6375  -18.8855  -48.1616 H         1 UNK         0.1150 
    139 H139        4.4323  -21.8898  -49.8761 H         1 UNK         0.0800 
    140 H140        5.5978  -21.2547  -48.7506 H         1 UNK         0.0800 
    141 H141        2.1563  -22.7488  -49.3404 H         1 UNK         0.0800 
    142 H142        1.4825  -21.3057  -48.6103 H         1 UNK         0.0800 
    143 H143        1.6411  -24.0106  -47.1917 H         1 UNK         0.0600 
    144 H144        0.9423  -21.4547  -46.1865 H         1 UNK         0.3000 
    145 H145       -1.0883  -22.6127  -43.4458 H         1 UNK         0.0600 
    146 H146        0.5426  -21.0987  -42.3348 H         1 UNK         0.0600 
    147 H147        1.3006  -22.6242  -42.7685 H         1 UNK         0.0600 
    148 H148        1.6112  -21.1879  -43.7328 H         1 UNK         0.0600 
    149 H149       -0.5021  -19.9796  -44.3967 H         1 UNK         0.3000 
    150 H150       -3.3463  -19.6492  -46.5302 H         1 UNK         0.0600 
    151 H151       -4.2378  -19.1785  -44.2702 H         1 UNK         0.0600 
    152 H152       -3.7264  -17.6862  -45.0433 H         1 UNK         0.0600 
    153 H153       -2.7260  -18.4216  -43.7912 H         1 UNK         0.0600 
    154 H154       -1.1584  -17.9374  -45.6919 H         1 UNK         0.3000 
    155 H155        0.9624  -18.7500  -48.4234 H         1 UNK         0.0600 
    156 H156       -0.7487  -17.2592  -49.4721 H         1 UNK         0.0600 
    157 H157       -0.7781  -16.2632  -48.0335 H         1 UNK         0.0600 
    158 H158        0.6949  -16.3816  -49.0116 H         1 UNK         0.0600 
    159 H159        1.0972  -16.7206  -46.3909 H         1 UNK         0.3000 
    160 H160        2.6293  -18.8192  -43.9189 H         1 UNK         0.0600 
    161 H161        4.5382  -17.3038  -44.1614 H         1 UNK         0.0600 
    162 H162        4.4703  -18.3562  -45.5678 H         1 UNK         0.0600 
    163 H163        3.9219  -16.6904  -45.6914 H         1 UNK         0.0600 
    164 H164        2.4072  -16.0935  -43.7188 H         1 UNK         0.3000 
    165 H165       -0.9300  -15.6577  -42.7765 H         1 UNK         0.0600 
    166 H166       -0.1372  -15.2781  -40.4677 H         1 UNK         0.0600 
    167 H167       -0.1867  -16.9990  -40.8178 H         1 UNK         0.0600 
    168 H168        1.3562  -16.1544  -40.8032 H         1 UNK         0.0600 
    169 H169        0.0007  -13.7182  -43.0415 H         1 UNK         0.3000 
    170 H170        3.0355  -12.2027  -42.3745 H         1 UNK         0.0600 
    171 H171        2.9218  -11.0922  -44.5352 H         1 UNK         0.0600 
    172 H172        1.7625  -12.2626  -45.1469 H         1 UNK         0.0600 
    173 H173        3.4173  -12.7563  -44.8050 H         1 UNK         0.0600 
    174 H174        0.4115  -11.3766  -43.3695 H         1 UNK         0.3000 
    175 H175       -1.0522  -11.0720  -40.1731 H         1 UNK         0.0600 
    176 H176        0.0620   -8.7150  -41.7870 H         1 UNK         0.0600 
    177 H177       -1.2520   -8.6404  -40.6118 H         1 UNK         0.0600 
    178 H178        0.3784   -9.0221  -40.0837 H         1 UNK         0.0600 
    179 H179       -1.8764   -9.9887  -42.6563 H         1 UNK         0.3000 
    180 H180       -4.1710  -12.3718  -43.2285 H         1 UNK         0.0600 
    181 H181       -2.7660   -9.9774  -44.5444 H         1 UNK         0.0600 
    182 H182       -3.9973   -9.8894  -43.2844 H         1 UNK         0.0600 
    183 H183       -4.4041  -10.5270  -44.8645 H         1 UNK         0.0600 
    184 H184       -3.5093  -13.4886  -45.0136 H         1 UNK         0.3000 
    185 H185       -1.6638  -14.6309  -46.2813 H         1 UNK         0.0600 
    186 H186       -2.7566  -12.4120  -48.0996 H         1 UNK         0.0600 
    187 H187       -2.6342  -14.1144  -48.5388 H         1 UNK         0.0600 
    188 H188       -3.7183  -13.6194  -47.2540 H         1 UNK         0.0600 
    189 H189       -0.3208  -12.7722  -48.1438 H         1 UNK         0.3000 
    190 H190       -1.1118  -21.8344  -48.0605 H         1 UNK         0.3000 
    191 H191       -2.1914  -23.5235  -50.0573 H         1 UNK         0.0600 
    192 H192       -3.5343  -21.3899  -48.3349 H         1 UNK         0.0600 
    193 H193       -4.2141  -22.1146  -49.7836 H         1 UNK         0.0600 
    194 H194       -2.7567  -21.1534  -49.9079 H         1 UNK         0.0600 
    195 H195       -2.8068  -23.4192  -46.5058 H         1 UNK         0.3000 
    196 H196       -4.9264  -25.2974  -46.4696 H         1 UNK         0.0600 
    197 H197       -4.3001  -25.5592  -44.0508 H         1 UNK         0.0600 
    198 H198       -4.4126  -23.8744  -44.5309 H         1 UNK         0.0600 
    199 H199       -2.8324  -24.6308  -44.3348 H         1 UNK         0.0600 
    200 H200       -1.3846  -25.7762  -46.4079 H         1 UNK         0.3000 
    201 H201       -1.4617  -28.6378  -46.1135 H         1 UNK         0.0600 
    202 H202        0.5376  -27.2844  -45.5315 H         1 UNK         0.0600 
    203 H203        0.7370  -26.8082  -47.2154 H         1 UNK         0.0600 
    204 H204        0.9378  -28.4908  -46.7456 H         1 UNK         0.0600 
    205 H205       -1.3692  -26.4473  -48.9371 H         1 UNK         0.3000 
    206 H206       -1.1978  -28.5287  -50.9216 H         1 UNK         0.0600 
    207 H207       -0.3862  -26.1847  -51.2693 H         1 UNK         0.0600 
    208 H208       -1.5568  -26.6482  -52.4953 H         1 UNK         0.0600 
    209 H209       -2.0456  -25.5957  -51.1761 H         1 UNK         0.0600 
    210 H210       -3.8371  -27.2475  -49.1279 H         1 UNK         0.3000 
    211 H211       -6.0267  -27.4824  -49.0518 H         1 UNK         0.0600 
    212 H212       -5.8541  -29.6959  -51.1652 H         1 UNK         0.0600 
    213 H213       -7.2206  -29.3472  -50.1184 H         1 UNK         0.0600 
    214 H214       -5.7190  -29.9373  -49.4238 H         1 UNK         0.0600 
    215 H215       -5.0953  -25.3753  -50.2539 H         1 UNK         0.3000 
    216 H216       -6.8625  -24.7817  -52.5901 H         1 UNK         0.0600 
    217 H217       -4.9510  -23.4078  -53.4675 H         1 UNK         0.0600 
    218 H218       -4.4718  -25.0886  -53.3141 H         1 UNK         0.0600 
    219 H219       -3.9530  -23.9190  -52.1057 H         1 UNK         0.0600 
    220 H220       -6.6873  -22.2009  -52.8341 H         1 UNK         0.3000 
    221 H221       -7.6168  -20.9987  -50.2988 H         1 UNK         0.0600 
    222 H222       -7.5726  -19.9424  -53.1807 H         1 UNK         0.0600 
    223 H223       -8.9653  -20.6371  -52.3562 H         1 UNK         0.0600 
    224 H224       -8.2831  -19.1181  -51.7991 H         1 UNK         0.0600 
    225 H225       -6.5949  -19.2442  -49.3352 H         1 UNK         0.3000 
    226 H226       -3.7782  -19.1123  -49.3860 H         1 UNK         0.0600 
    227 H227       -5.2199  -18.5551  -47.4103 H         1 UNK         0.0600 
    228 H228       -4.0748  -17.2713  -47.7729 H         1 UNK         0.0600 
    229 H229       -5.7675  -17.0930  -48.2204 H         1 UNK         0.0600 
    230 H230       -6.2028  -16.8805  -50.7682 H         1 UNK         0.3000 
    231 H231       -4.3588  -14.9325  -51.7439 H         1 UNK         0.0600 
    232 H232       -6.3597  -14.0934  -52.9853 H         1 UNK         0.0600 
    233 H233       -6.7557  -14.4462  -51.3114 H         1 UNK         0.0600 
    234 H234       -7.2400  -15.5641  -52.5878 H         1 UNK         0.0600 
    235 H235       -5.3703  -18.0160  -53.0252 H         1 UNK         0.3000 
    236 H236       -4.4048  -17.4958  -55.7634 H         1 UNK         0.0600 
    237 H237       -6.4693  -18.8751  -55.3564 H         1 UNK         0.0600 
    238 H238       -5.2133  -19.7858  -56.1789 H         1 UNK         0.0600 
    239 H239       -5.4969  -20.0490  -54.4657 H         1 UNK         0.0600 
    240 H240       -3.0070  -18.3315  -52.7633 H         1 UNK         0.3000 
    241 H241       -1.1439  -19.2301  -52.0596 H         1 UNK         0.0600 
    242 H242       -3.3513  -20.9884  -52.5613 H         1 UNK         0.3800 
    243 H243       -2.6536  -22.5586  -52.9073 H         1 UNK         0.3800 
    244 H244        0.0370  -19.2419  -54.8766 H         1 UNK         0.0800 
    245 H245       -0.0914  -17.7906  -53.9258 H         1 UNK         0.0800 
    246 H246        1.6530  -17.0484  -52.0786 H         1 UNK         0.0800 
    247 H247        0.6781  -18.1403  -51.1189 H         1 UNK         0.0800 
@<TRIPOS>BOND
     1    1    2 1    
     2    1  127 1    
     3    1  128 1    
     4    1  129 1    
     5    2    3 2    
     6    2    4 am   BACKBONE|DICT|INTERRES
     7    4    5 1    
     8    4  130 1    
     9    5    6 1    
    10    5   65 1    
    11    5  131 1    
    12    6    7 1    
    13    6  132 1    
    14    6  133 1    
    15    7    8 1    
    16    8    9 1    
    17    8  134 1    
    18    8  135 1    
    19    9   10 ar   
    20    9   14 ar   
    21   10   11 ar   
    22   10  136 1    
    23   11   12 ar   
    24   11  126 1    
    25   12   13 ar   
    26   12  137 1    
    27   13   14 ar   
    28   13   15 1    
    29   14  138 1    
    30   15   16 1    
    31   15  139 1    
    32   15  140 1    
    33   16   17 1    
    34   17   18 1    
    35   17  141 1    
    36   17  142 1    
    37   18   19 1    
    38   18   67 1    
    39   18  143 1    
    40   19   20 am   BACKBONE|DICT|INTERRES
    41   19  144 1    
    42   20   21 2    
    43   20   22 1    
    44   22   23 1    
    45   22   24 1    
    46   22  145 1    
    47   23  146 1    
    48   23  147 1    
    49   23  148 1    
    50   24   25 am   BACKBONE|DICT|INTERRES
    51   24  149 1    
    52   25   26 2    
    53   25   27 1    
    54   27   28 1    
    55   27   29 1    
    56   27  150 1    
    57   28  151 1    
    58   28  152 1    
    59   28  153 1    
    60   29   30 am   BACKBONE|DICT|INTERRES
    61   29  154 1    
    62   30   31 2    
    63   30   32 1    
    64   32   33 1    
    65   32   34 1    
    66   32  155 1    
    67   33  156 1    
    68   33  157 1    
    69   33  158 1    
    70   34   35 am   BACKBONE|DICT|INTERRES
    71   34  159 1    
    72   35   36 2    
    73   35   37 1    
    74   37   38 1    
    75   37   39 1    
    76   37  160 1    
    77   38  161 1    
    78   38  162 1    
    79   38  163 1    
    80   39   40 am   BACKBONE|DICT|INTERRES
    81   39  164 1    
    82   40   41 2    
    83   40   42 1    
    84   42   43 1    
    85   42   44 1    
    86   42  165 1    
    87   43  166 1    
    88   43  167 1    
    89   43  168 1    
    90   44   45 am   BACKBONE|DICT|INTERRES
    91   44  169 1    
    92   45   46 2    
    93   45   47 1    
    94   47   48 1    
    95   47   49 1    
    96   47  170 1    
    97   48  171 1    
    98   48  172 1    
    99   48  173 1    
   100   49   50 am   BACKBONE|DICT|INTERRES
   101   49  174 1    
   102   50   51 2    
   103   50   52 1    
   104   52   53 1    
   105   52   54 1    
   106   52  175 1    
   107   53  176 1    
   108   53  177 1    
   109   53  178 1    
   110   54   55 am   BACKBONE|DICT|INTERRES
   111   54  179 1    
   112   55   56 2    
   113   55   57 1    
   114   57   58 1    
   115   57   59 1    
   116   57  180 1    
   117   58  181 1    
   118   58  182 1    
   119   58  183 1    
   120   59   60 am   BACKBONE|DICT|INTERRES
   121   59  184 1    
   122   60   61 2    
   123   60   62 1    
   124   62   63 1    
   125   62   64 1    
   126   62  185 1    
   127   63  186 1    
   128   63  187 1    
   129   63  188 1    
   130   64   65 am   BACKBONE|DICT|INTERRES
   131   64  189 1    
   132   65   66 2    
   133   67   68 2    
   134   67   69 am   BACKBONE|DICT|INTERRES
   135   69   70 1    
   136   69  190 1    
   137   70   71 1    
   138   70   72 1    
   139   70  191 1    
   140   71  192 1    
   141   71  193 1    
   142   71  194 1    
   143   72   73 2    
   144   72   74 am   BACKBONE|DICT|INTERRES
   145   74   75 1    
   146   74  195 1    
   147   75   76 1    
   148   75   77 1    
   149   75  196 1    
   150   76  197 1    
   151   76  198 1    
   152   76  199 1    
   153   77   78 2    
   154   77   79 am   BACKBONE|DICT|INTERRES
   155   79   80 1    
   156   79  200 1    
   157   80   81 1    
   158   80   82 1    
   159   80  201 1    
   160   81  202 1    
   161   81  203 1    
   162   81  204 1    
   163   82   83 2    
   164   82   84 am   BACKBONE|DICT|INTERRES
   165   84   85 1    
   166   84  205 1    
   167   85   86 1    
   168   85   87 1    
   169   85  206 1    
   170   86  207 1    
   171   86  208 1    
   172   86  209 1    
   173   87   88 2    
   174   87   89 am   BACKBONE|DICT|INTERRES
   175   89   90 1    
   176   89  210 1    
   177   90   91 1    
   178   90   92 1    
   179   90  211 1    
   180   91  212 1    
   181   91  213 1    
   182   91  214 1    
   183   92   93 2    
   184   92   94 am   BACKBONE|DICT|INTERRES
   185   94   95 1    
   186   94  215 1    
   187   95   96 1    
   188   95   97 1    
   189   95  216 1    
   190   96  217 1    
   191   96  218 1    
   192   96  219 1    
   193   97   98 2    
   194   97   99 am   BACKBONE|DICT|INTERRES
   195   99  100 1    
   196   99  220 1    
   197  100  101 1    
   198  100  102 1    
   199  100  221 1    
   200  101  222 1    
   201  101  223 1    
   202  101  224 1    
   203  102  103 2    
   204  102  104 am   BACKBONE|DICT|INTERRES
   205  104  105 1    
   206  104  225 1    
   207  105  106 1    
   208  105  107 1    
   209  105  226 1    
   210  106  227 1    
   211  106  228 1    
   212  106  229 1    
   213  107  108 2    
   214  107  109 am   BACKBONE|DICT|INTERRES
   215  109  110 1    
   216  109  230 1    
   217  110  111 1    
   218  110  112 1    
   219  110  231 1    
   220  111  232 1    
   221  111  233 1    
   222  111  234 1    
   223  112  113 2    
   224  112  114 am   BACKBONE|DICT|INTERRES
   225  114  115 1    
   226  114  235 1    
   227  115  116 1    
   228  115  117 1    
   229  115  236 1    
   230  116  237 1    
   231  116  238 1    
   232  116  239 1    
   233  117  118 2    
   234  117  119 am   BACKBONE|DICT|INTERRES
   235  119  120 1    
   236  119  240 1    
   237  120  121 1    
   238  120  124 1    
   239  120  241 1    
   240  121  122 am   BACKBONE|DICT|INTERRES
   241  121  123 2    
   242  122  242 1    
   243  122  243 1    
   244  124  125 1    
   245  124  244 1    
   246  124  245 1    
   247  125  126 1    
   248  126  246 1    
   249  126  247 1    
@<TRIPOS>SUBSTRUCTURE
     1 UNK         1 GROUP             0       ****    0 ROOT    
