@<TRIPOS>MOLECULE
3R540
247   249    1
SMALL
USER_CHARGES


@<TRIPOS>ATOM
      1 CA         -2.3145  -15.9048  -49.9313 C.3       0 UNK        -0.1800 
      2 C          -1.4372  -15.4034  -48.7948 C.2       0 UNK         0.5000 
      3 O          -1.9029  -14.6360  -47.9516 O.2       0 UNK        -0.5000 
      4 N          -0.1726  -15.8452  -48.7506 N.am      1 UNK        -0.5000 
      5 CA          0.8257  -15.4139  -47.7623 C.3       1 UNK         0.1400 
      6 C6          2.2459  -15.9264  -48.0826 C.3       23 UNK        -0.0398 
      7 S7          2.8862  -15.2845  -49.6624 S.3       23 UNK        -0.2404 
      8 C8          4.0519  -16.6041  -50.1316 C.3       23 UNK        -0.0205 
      9 C9          3.3351  -17.9107  -50.4359 C.ar      23 UNK        -0.0193 
     10 C10         2.4763  -17.9933  -51.5327 C.ar      23 UNK        -0.1150 
     11 C11         1.7768  -19.1711  -51.8030 C.ar      23 UNK        -0.0193 
     12 C12         1.9535  -20.2826  -50.9719 C.ar      23 UNK        -0.1150 
     13 C13         2.8330  -20.2222  -49.8843 C.ar      23 UNK        -0.0193 
     14 C14         3.5202  -19.0322  -49.6228 C.ar      23 UNK        -0.1150 
     15 C15         3.0782  -21.4504  -49.0157 C.3       23 UNK        -0.0205 
     16 S16         2.6445  -21.1783  -47.2665 S.3       23 UNK        -0.2404 
     17 C17         0.8246  -21.2354  -47.3280 C.3       23 UNK        -0.0398 
     18 CA          0.2523  -22.5708  -46.7947 C.3       11 UNK         0.1400 
     19 N           0.6630  -22.8655  -45.4162 N.am      11 UNK        -0.5000 
     20 C           0.5410  -24.0737  -44.8450 C.2       10 UNK         0.5000 
     21 O           0.0713  -25.0518  -45.4236 O.2       10 UNK        -0.5000 
     22 CA          0.9543  -24.2080  -43.3666 C.3       10 UNK         0.1400 
     23 CB          2.4546  -24.5170  -43.2577 C.3       10 UNK        -0.1800 
     24 N           0.6511  -23.0272  -42.5588 N.am      10 UNK        -0.5000 
     25 C          -0.5417  -22.4253  -42.4496 C.2       9 UNK         0.5000 
     26 O          -1.5669  -22.8516  -42.9810 O.2       9 UNK        -0.5000 
     27 CA         -0.5972  -21.1037  -41.6551 C.3       9 UNK         0.1400 
     28 CB         -1.3277  -21.3133  -40.3206 C.3       9 UNK        -0.1800 
     29 N           0.7116  -20.4928  -41.3918 N.am      9 UNK        -0.5000 
     30 C           1.5794  -20.0691  -42.3212 C.2       8 UNK         0.5000 
     31 O           1.3814  -20.1608  -43.5360 O.2       8 UNK        -0.5000 
     32 CA          2.9220  -19.5372  -41.7846 C.3       8 UNK         0.1400 
     33 CB          3.8176  -20.7063  -41.3413 C.3       8 UNK        -0.1800 
     34 N           3.6475  -18.7544  -42.7817 N.am      8 UNK        -0.5000 
     35 C           3.2764  -17.5478  -43.2206 C.2       7 UNK         0.5000 
     36 O           2.3176  -16.9140  -42.7686 O.2       7 UNK        -0.5000 
     37 CA          4.1266  -16.9633  -44.3580 C.3       7 UNK         0.1400 
     38 CB          3.9449  -17.7740  -45.6537 C.3       7 UNK        -0.1800 
     39 N           3.7162  -15.5826  -44.5806 N.am      7 UNK        -0.5000 
     40 C           4.5262  -14.5340  -44.7645 C.2       6 UNK         0.5000 
     41 O           5.7472  -14.6264  -44.8937 O.2       6 UNK        -0.5000 
     42 CA          3.8638  -13.1425  -44.7948 C.3       6 UNK         0.1400 
     43 CB          3.7164  -12.6386  -46.2393 C.3       6 UNK        -0.1800 
     44 N           2.5424  -13.1598  -44.1699 N.am      6 UNK        -0.5000 
     45 C           2.2887  -12.9757  -42.8686 C.2       5 UNK         0.5000 
     46 O           3.1502  -12.6694  -42.0425 O.2       5 UNK        -0.5000 
     47 CA          0.8239  -13.1940  -42.4273 C.3       5 UNK         0.1400 
     48 CB          0.4574  -12.4358  -41.1348 C.3       5 UNK        -0.1800 
     49 N          -0.1412  -12.9234  -43.5002 N.am      5 UNK        -0.5000 
     50 C          -0.4013  -11.7506  -44.0990 C.2       4 UNK         0.5000 
     51 O           0.0903  -10.6762  -43.7526 O.2       4 UNK        -0.5000 
     52 CA         -1.3456  -11.7828  -45.3197 C.3       4 UNK         0.1400 
     53 CB         -0.5396  -11.5943  -46.6143 C.3       4 UNK        -0.1800 
     54 N          -2.1215  -13.0206  -45.4289 N.am      4 UNK        -0.5000 
     55 C          -3.1568  -13.3469  -44.6428 C.2       3 UNK         0.5000 
     56 O          -3.6102  -12.6119  -43.7652 O.2       3 UNK        -0.5000 
     57 CA         -3.7619  -14.7456  -44.8529 C.3       3 UNK         0.1400 
     58 CB         -4.8200  -14.7251  -45.9667 C.3       3 UNK        -0.1800 
     59 N          -2.7355  -15.7389  -45.1730 N.am      3 UNK        -0.5000 
     60 C          -1.8989  -16.2788  -44.2751 C.2       2 UNK         0.5000 
     61 O          -1.9199  -16.0124  -43.0739 O.2       2 UNK        -0.5000 
     62 CA         -0.8498  -17.2683  -44.8160 C.3       2 UNK         0.1400 
     63 CB         -1.4578  -18.6742  -44.9216 C.3       2 UNK        -0.1800 
     64 N          -0.3093  -16.8660  -46.1175 N.am      2 UNK        -0.5000 
     65 C           0.4467  -15.7757  -46.3116 C.2       1 UNK         0.5000 
     66 O           0.8242  -15.0402  -45.4009 O.2       1 UNK        -0.5000 
     67 C          -1.2811  -22.6049  -46.9641 C.2       11 UNK         0.5000 
     68 O          -1.7570  -22.9589  -48.0434 O.2       11 UNK        -0.5000 
     69 N          -2.0328  -22.2506  -45.9115 N.am      12 UNK        -0.5000 
     70 CA         -3.4926  -22.3519  -45.8851 C.3       12 UNK         0.1400 
     71 CB         -4.0770  -21.3761  -44.8531 C.3       12 UNK        -0.1800 
     72 C          -3.9460  -23.7929  -45.6044 C.2       12 UNK         0.5000 
     73 O          -4.8880  -24.2599  -46.2424 O.2       12 UNK        -0.5000 
     74 N          -3.2416  -24.4895  -44.7002 N.am      13 UNK        -0.5000 
     75 CA         -3.4709  -25.8984  -44.3631 C.3       13 UNK         0.1400 
     76 CB         -2.5880  -26.2895  -43.1694 C.3       13 UNK        -0.1800 
     77 C          -3.2319  -26.8485  -45.5538 C.2       13 UNK         0.5000 
     78 O          -3.9855  -27.8057  -45.7316 O.2       13 UNK        -0.5000 
     79 N          -2.2201  -26.5352  -46.3749 N.am      14 UNK        -0.5000 
     80 CA         -1.9180  -27.2022  -47.6441 C.3       14 UNK         0.1400 
     81 CB         -0.4757  -26.8545  -48.0480 C.3       14 UNK        -0.1800 
     82 C          -2.8907  -26.8328  -48.7848 C.2       14 UNK         0.5000 
     83 O          -2.8121  -27.4367  -49.8550 O.2       14 UNK        -0.5000 
     84 N          -3.7623  -25.8391  -48.5518 N.am      15 UNK        -0.5000 
     85 CA         -4.7381  -25.2569  -49.4782 C.3       15 UNK         0.1400 
     86 CB         -5.7852  -26.2999  -49.9196 C.3       15 UNK        -0.1800 
     87 C          -4.0993  -24.5067  -50.6656 C.2       15 UNK         0.5000 
     88 O          -4.7683  -24.2813  -51.6746 O.2       15 UNK        -0.5000 
     89 N          -2.8326  -24.0952  -50.5181 N.am      16 UNK        -0.5000 
     90 CA         -2.1022  -23.3028  -51.5028 C.3       16 UNK         0.1400 
     91 CB         -0.5891  -23.4483  -51.2753 C.3       16 UNK        -0.1800 
     92 C          -2.5403  -21.8337  -51.4372 C.2       16 UNK         0.5000 
     93 O          -2.9438  -21.2753  -52.4555 O.2       16 UNK        -0.5000 
     94 N          -2.5171  -21.2572  -50.2281 N.am      17 UNK        -0.5000 
     95 CA         -2.9513  -19.8832  -49.9559 C.3       17 UNK         0.1400 
     96 CB         -2.3672  -19.4247  -48.6102 C.3       17 UNK        -0.1800 
     97 C          -4.4833  -19.7118  -49.9770 C.2       17 UNK         0.5000 
     98 O          -4.9646  -18.5800  -50.0170 O.2       17 UNK        -0.5000 
     99 N          -5.2209  -20.8306  -49.9455 N.am      18 UNK        -0.5000 
    100 CA        -6.6785  -20.8711  -50.0583 C.3       18 UNK         0.1400 
    101 CB        -7.1833  -22.2291  -49.5471 C.3       18 UNK        -0.1800 
    102 C         -7.1759  -20.6152  -51.4954 C.2       18 UNK         0.5000 
    103 O         -8.3171  -20.1840  -51.6661 O.2       18 UNK        -0.5000 
    104 N         -6.3290  -20.8830  -52.5002 N.am      19 UNK        -0.5000 
    105 CA        -6.6068  -20.6006  -53.9067 C.3       19 UNK         0.1400 
    106 CB        -5.6539  -21.4274  -54.7836 C.3       19 UNK        -0.1800 
    107 C         -6.4364  -19.1004  -54.1967 C.2       19 UNK         0.5000 
    108 O         -5.4797  -18.4945  -53.7111 O.2       19 UNK        -0.5000 
    109 N         -7.3322  -18.5355  -55.0168 N.am      20 UNK        -0.5000 
    110 CA        -7.3404  -17.1143  -55.3858 C.3       20 UNK         0.1400 
    111 CB        -8.6324  -16.7994  -56.1552 C.3       20 UNK        -0.1800 
    112 C         -6.1060  -16.6784  -56.2003 C.2       20 UNK         0.5000 
    113 O         -5.6458  -15.5460  -56.0511 O.2       20 UNK        -0.5000 
    114 N         -5.5820  -17.5939  -57.0258 N.am      21 UNK        -0.5000 
    115 CA        -4.3521  -17.4122  -57.8012 C.3       21 UNK         0.1400 
    116 CB        -4.4279  -18.3074  -59.0487 C.3       21 UNK        -0.1800 
    117 C         -3.0763  -17.7278  -56.9913 C.2       21 UNK         0.5000 
    118 O         -1.9823  -17.3965  -57.4486 O.2       21 UNK        -0.5000 
    119 N         -3.2428  -18.3586  -55.8205 N.am      22 UNK        -0.5000 
    120 CA        -2.2135  -18.9270  -54.9408 C.3       22 UNK         0.1400 
    121 C         -1.5342  -20.1819  -55.5593 C.2       22 UNK         0.5000 
    122 N         -1.6840  -21.3395  -54.9347 N.am      22 UNK        -0.7600 
    123 O         -0.8507  -20.1170  -56.5775 O.2       22 UNK        -0.5000 
    124 C124       -1.1803  -17.8819  -54.4439 C.3       23 UNK        -0.0398 
    125 S125       -0.6325  -18.2073  -52.7342 S.3       23 UNK        -0.2404 
    126 C126        0.8499  -19.2255  -53.0065 C.3       23 UNK        -0.0205 
    127 H127       -2.4770  -15.1096  -50.6585 H         1 UNK         0.0600 
    128 H128       -3.2849  -16.2211  -49.5486 H         1 UNK         0.0600 
    129 H129       -1.8614  -16.7521  -50.4440 H         1 UNK         0.0600 
    130 H130        0.1685  -16.4549  -49.4808 H         1 UNK         0.3000 
    131 H131        0.8565  -14.3242  -47.8074 H         1 UNK         0.0600 
    132 H132        2.9518  -15.6197  -47.3110 H         1 UNK         0.0800 
    133 H133        2.2516  -17.0163  -48.0930 H         1 UNK         0.0800 
    134 H134        4.6081  -16.2884  -51.0152 H         1 UNK         0.0800 
    135 H135        4.7864  -16.7357  -49.3353 H         1 UNK         0.0800 
    136 H136        2.3360  -17.1297  -52.1680 H         1 UNK         0.1150 
    137 H137        1.4216  -21.1984  -51.1829 H         1 UNK         0.1150 
    138 H138        4.1950  -18.9814  -48.7797 H         1 UNK         0.1150 
    139 H139        2.5313  -22.3159  -49.3932 H         1 UNK         0.0800 
    140 H140        4.1360  -21.7097  -49.0743 H         1 UNK         0.0800 
    141 H141        0.5006  -21.0637  -48.3559 H         1 UNK         0.0800 
    142 H142        0.4502  -20.3927  -46.7490 H         1 UNK         0.0800 
    143 H143        0.6486  -23.3674  -47.4286 H         1 UNK         0.0600 
    144 H144        1.0544  -22.0997  -44.8813 H         1 UNK         0.3000 
    145 H145        0.4013  -25.0457  -42.9398 H         1 UNK         0.0600 
    146 H146        2.7460  -24.7039  -42.2240 H         1 UNK         0.0600 
    147 H147        2.7126  -25.4074  -43.8328 H         1 UNK         0.0600 
    148 H148        3.0632  -23.6941  -43.6353 H         1 UNK         0.0600 
    149 H149        1.4320  -22.5966  -42.0883 H         1 UNK         0.3000 
    150 H150       -1.1762  -20.3983  -42.2528 H         1 UNK         0.0600 
    151 H151       -0.7824  -21.9946  -39.6664 H         1 UNK         0.0600 
    152 H152       -2.3210  -21.7358  -40.4796 H         1 UNK         0.0600 
    153 H153       -1.4603  -20.3702  -39.7902 H         1 UNK         0.0600 
    154 H154        0.9640  -20.3992  -40.4182 H         1 UNK         0.3000 
    155 H155        2.7214  -18.8975  -40.9225 H         1 UNK         0.0600 
    156 H156        4.0373  -21.3818  -42.1694 H         1 UNK         0.0600 
    157 H157        3.3428  -21.2945  -40.5551 H         1 UNK         0.0600 
    158 H158        4.7663  -20.3464  -40.9424 H         1 UNK         0.0600 
    159 H159        4.4235  -19.2178  -43.2305 H         1 UNK         0.3000 
    160 H160        5.1733  -16.9990  -44.0488 H         1 UNK         0.0600 
    161 H161        2.8933  -17.8563  -45.9299 H         1 UNK         0.0600 
    162 H162        4.3263  -18.7893  -45.5405 H         1 UNK         0.0600 
    163 H163        4.4853  -17.3218  -46.4851 H         1 UNK         0.0600 
    164 H164        2.7285  -15.4114  -44.4258 H         1 UNK         0.3000 
    165 H165        4.5149  -12.4516  -44.2554 H         1 UNK         0.0600 
    166 H166        3.3249  -11.6213  -46.2604 H         1 UNK         0.0600 
    167 H167        4.6793  -12.6272  -46.7516 H         1 UNK         0.0600 
    168 H168        3.0411  -13.2654  -46.8209 H         1 UNK         0.0600 
    169 H169        1.7773  -13.4960  -44.7460 H         1 UNK         0.3000 
    170 H170        0.7360  -14.2608  -42.2154 H         1 UNK         0.0600 
    171 H171        1.0728  -12.7706  -40.2991 H         1 UNK         0.0600 
    172 H172        0.6057  -11.3606  -41.2368 H         1 UNK         0.0600 
    173 H173       -0.5831  -12.6076  -40.8593 H         1 UNK         0.0600 
    174 H174       -0.5741  -13.7452  -43.8994 H         1 UNK         0.3000 
    175 H175       -2.0415  -10.9470  -45.2232 H         1 UNK         0.0600 
    176 H176       -0.0235  -10.6334  -46.6165 H         1 UNK         0.0600 
    177 H177        0.2169  -12.3698  -46.7301 H         1 UNK         0.0600 
    178 H178       -1.1853  -11.6194  -47.4924 H         1 UNK         0.0600 
    179 H179       -1.8643  -13.6583  -46.1756 H         1 UNK         0.3000 
    180 H180       -4.2555  -15.0404  -43.9243 H         1 UNK         0.0600 
    181 H181       -4.3944  -14.4313  -46.9267 H         1 UNK         0.0600 
    182 H182       -5.6170  -14.0183  -45.7325 H         1 UNK         0.0600 
    183 H183       -5.2809  -15.7051  -46.0905 H         1 UNK         0.0600 
    184 H184       -2.6112  -15.9564  -46.1518 H         1 UNK         0.3000 
    185 H185       -0.0281  -17.3061  -44.0979 H         1 UNK         0.0600 
    186 H186       -1.9642  -18.9522  -43.9969 H         1 UNK         0.0600 
    187 H187       -2.1895  -18.7363  -45.7264 H         1 UNK         0.0600 
    188 H188       -0.6894  -19.4228  -45.0988 H         1 UNK         0.0600 
    189 H189       -0.5790  -17.4143  -46.9196 H         1 UNK         0.3000 
    190 H190       -1.5794  -22.0435  -45.0317 H         1 UNK         0.3000 
    191 H191       -3.8874  -22.0692  -46.8637 H         1 UNK         0.0600 
    192 H192       -3.8611  -20.3436  -45.1227 H         1 UNK         0.0600 
    193 H193       -5.1623  -21.4716  -44.7997 H         1 UNK         0.0600 
    194 H194       -3.6847  -21.5528  -43.8518 H         1 UNK         0.0600 
    195 H195       -2.5150  -24.0069  -44.1789 H         1 UNK         0.3000 
    196 H196       -4.5155  -25.9989  -44.0613 H         1 UNK         0.0600 
    197 H197       -2.8153  -27.3019  -42.8336 H         1 UNK         0.0600 
    198 H198       -2.7453  -25.6210  -42.3227 H         1 UNK         0.0600 
    199 H199       -1.5302  -26.2622  -43.4284 H         1 UNK         0.0600 
    200 H200       -1.5885  -25.7874  -46.1017 H         1 UNK         0.3000 
    201 H201       -1.9831  -28.2817  -47.4942 H         1 UNK         0.0600 
    202 H202       -0.1915  -27.3588  -48.9724 H         1 UNK         0.0600 
    203 H203        0.2340  -27.1639  -47.2805 H         1 UNK         0.0600 
    204 H204       -0.3514  -25.7823  -48.2066 H         1 UNK         0.0600 
    205 H205       -3.7649  -25.4257  -47.6275 H         1 UNK         0.3000 
    206 H206       -5.2662  -24.4964  -48.9033 H         1 UNK         0.0600 
    207 H207       -6.2211  -26.8082  -49.0595 H         1 UNK         0.0600 
    208 H208       -6.6036  -25.8264  -50.4632 H         1 UNK         0.0600 
    209 H209       -5.3545  -27.0565  -50.5756 H         1 UNK         0.0600 
    210 H210       -2.3776  -24.2380  -49.6247 H         1 UNK         0.3000 
    211 H211       -2.3300  -23.6830  -52.5011 H         1 UNK         0.0600 
    212 H212       -0.2769  -23.0580  -50.3063 H         1 UNK         0.0600 
    213 H213       -0.0317  -22.9107  -52.0430 H         1 UNK         0.0600 
    214 H214       -0.2840  -24.4936  -51.3265 H         1 UNK         0.0600 
    215 H215       -2.2139  -21.8147  -49.4338 H         1 UNK         0.3000 
    216 H216       -2.5511  -19.2346  -50.7365 H         1 UNK         0.0600 
    217 H217       -2.6830  -18.4095  -48.3696 H         1 UNK         0.0600 
    218 H218       -1.2782  -19.4267  -48.6342 H         1 UNK         0.0600 
    219 H219       -2.6940  -20.0660  -47.7928 H         1 UNK         0.0600 
    220 H220       -4.7382  -21.7149  -49.9159 H         1 UNK         0.3000 
    221 H221       -7.0955  -20.0906  -49.4182 H         1 UNK         0.0600 
    222 H222       -6.8525  -23.0475  -50.1867 H         1 UNK         0.0600 
    223 H223       -6.8361  -22.4274  -48.5326 H         1 UNK         0.0600 
    224 H224       -8.2735  -22.2542  -49.5271 H         1 UNK         0.0600 
    225 H225       -5.3880  -21.1799  -52.2811 H         1 UNK         0.3000 
    226 H226       -7.6328  -20.8995  -54.1320 H         1 UNK         0.0600 
    227 H227       -5.8679  -21.2792  -55.8427 H         1 UNK         0.0600 
    228 H228       -4.6124  -21.1516  -54.6185 H         1 UNK         0.0600 
    229 H229       -5.7524  -22.4934  -54.5771 H         1 UNK         0.0600 
    230 H230       -8.0858  -19.0986  -55.3849 H         1 UNK         0.3000 
    231 H231       -7.3443  -16.5311  -54.4625 H         1 UNK         0.0600 
    232 H232       -8.7029  -17.3762  -57.0782 H         1 UNK         0.0600 
    233 H233       -8.6793  -15.7432  -56.4239 H         1 UNK         0.0600 
    234 H234       -9.5141  -17.0189  -55.5528 H         1 UNK         0.0600 
    235 H235       -6.0360  -18.4927  -57.0972 H         1 UNK         0.3000 
    236 H236       -4.2842  -16.3736  -58.1319 H         1 UNK         0.0600 
    237 H237       -5.2984  -18.0629  -59.6577 H         1 UNK         0.0600 
    238 H238       -3.5464  -18.1773  -59.6781 H         1 UNK         0.0600 
    239 H239       -4.4880  -19.3637  -58.7833 H         1 UNK         0.0600 
    240 H240       -4.1900  -18.5135  -55.5035 H         1 UNK         0.3000 
    241 H241       -2.7890  -19.2528  -54.0740 H         1 UNK         0.0600 
    242 H242       -2.2141  -21.3864  -54.0658 H         1 UNK         0.3800 
    243 H243       -1.2530  -22.1676  -55.3125 H         1 UNK         0.3800 
    244 H244       -0.3267  -17.7950  -55.1183 H         1 UNK         0.0800 
    245 H245       -1.6376  -16.8917  -54.4276 H         1 UNK         0.0800 
    246 H246        1.3922  -18.8710  -53.8841 H         1 UNK         0.0800 
    247 H247        0.5475  -20.2518  -53.2196 H         1 UNK         0.0800 
@<TRIPOS>BOND
     1    1    2 1    
     2    1  127 1    
     3    1  128 1    
     4    1  129 1    
     5    2    3 2    
     6    2    4 am   BACKBONE|DICT|INTERRES
     7    4    5 1    
     8    4  130 1    
     9    5    6 1    
    10    5   65 1    
    11    5  131 1    
    12    6    7 1    
    13    6  132 1    
    14    6  133 1    
    15    7    8 1    
    16    8    9 1    
    17    8  134 1    
    18    8  135 1    
    19    9   10 ar   
    20    9   14 ar   
    21   10   11 ar   
    22   10  136 1    
    23   11   12 ar   
    24   11  126 1    
    25   12   13 ar   
    26   12  137 1    
    27   13   14 ar   
    28   13   15 1    
    29   14  138 1    
    30   15   16 1    
    31   15  139 1    
    32   15  140 1    
    33   16   17 1    
    34   17   18 1    
    35   17  141 1    
    36   17  142 1    
    37   18   19 1    
    38   18   67 1    
    39   18  143 1    
    40   19   20 am   BACKBONE|DICT|INTERRES
    41   19  144 1    
    42   20   21 2    
    43   20   22 1    
    44   22   23 1    
    45   22   24 1    
    46   22  145 1    
    47   23  146 1    
    48   23  147 1    
    49   23  148 1    
    50   24   25 am   BACKBONE|DICT|INTERRES
    51   24  149 1    
    52   25   26 2    
    53   25   27 1    
    54   27   28 1    
    55   27   29 1    
    56   27  150 1    
    57   28  151 1    
    58   28  152 1    
    59   28  153 1    
    60   29   30 am   BACKBONE|DICT|INTERRES
    61   29  154 1    
    62   30   31 2    
    63   30   32 1    
    64   32   33 1    
    65   32   34 1    
    66   32  155 1    
    67   33  156 1    
    68   33  157 1    
    69   33  158 1    
    70   34   35 am   BACKBONE|DICT|INTERRES
    71   34  159 1    
    72   35   36 2    
    73   35   37 1    
    74   37   38 1    
    75   37   39 1    
    76   37  160 1    
    77   38  161 1    
    78   38  162 1    
    79   38  163 1    
    80   39   40 am   BACKBONE|DICT|INTERRES
    81   39  164 1    
    82   40   41 2    
    83   40   42 1    
    84   42   43 1    
    85   42   44 1    
    86   42  165 1    
    87   43  166 1    
    88   43  167 1    
    89   43  168 1    
    90   44   45 am   BACKBONE|DICT|INTERRES
    91   44  169 1    
    92   45   46 2    
    93   45   47 1    
    94   47   48 1    
    95   47   49 1    
    96   47  170 1    
    97   48  171 1    
    98   48  172 1    
    99   48  173 1    
   100   49   50 am   BACKBONE|DICT|INTERRES
   101   49  174 1    
   102   50   51 2    
   103   50   52 1    
   104   52   53 1    
   105   52   54 1    
   106   52  175 1    
   107   53  176 1    
   108   53  177 1    
   109   53  178 1    
   110   54   55 am   BACKBONE|DICT|INTERRES
   111   54  179 1    
   112   55   56 2    
   113   55   57 1    
   114   57   58 1    
   115   57   59 1    
   116   57  180 1    
   117   58  181 1    
   118   58  182 1    
   119   58  183 1    
   120   59   60 am   BACKBONE|DICT|INTERRES
   121   59  184 1    
   122   60   61 2    
   123   60   62 1    
   124   62   63 1    
   125   62   64 1    
   126   62  185 1    
   127   63  186 1    
   128   63  187 1    
   129   63  188 1    
   130   64   65 am   BACKBONE|DICT|INTERRES
   131   64  189 1    
   132   65   66 2    
   133   67   68 2    
   134   67   69 am   BACKBONE|DICT|INTERRES
   135   69   70 1    
   136   69  190 1    
   137   70   71 1    
   138   70   72 1    
   139   70  191 1    
   140   71  192 1    
   141   71  193 1    
   142   71  194 1    
   143   72   73 2    
   144   72   74 am   BACKBONE|DICT|INTERRES
   145   74   75 1    
   146   74  195 1    
   147   75   76 1    
   148   75   77 1    
   149   75  196 1    
   150   76  197 1    
   151   76  198 1    
   152   76  199 1    
   153   77   78 2    
   154   77   79 am   BACKBONE|DICT|INTERRES
   155   79   80 1    
   156   79  200 1    
   157   80   81 1    
   158   80   82 1    
   159   80  201 1    
   160   81  202 1    
   161   81  203 1    
   162   81  204 1    
   163   82   83 2    
   164   82   84 am   BACKBONE|DICT|INTERRES
   165   84   85 1    
   166   84  205 1    
   167   85   86 1    
   168   85   87 1    
   169   85  206 1    
   170   86  207 1    
   171   86  208 1    
   172   86  209 1    
   173   87   88 2    
   174   87   89 am   BACKBONE|DICT|INTERRES
   175   89   90 1    
   176   89  210 1    
   177   90   91 1    
   178   90   92 1    
   179   90  211 1    
   180   91  212 1    
   181   91  213 1    
   182   91  214 1    
   183   92   93 2    
   184   92   94 am   BACKBONE|DICT|INTERRES
   185   94   95 1    
   186   94  215 1    
   187   95   96 1    
   188   95   97 1    
   189   95  216 1    
   190   96  217 1    
   191   96  218 1    
   192   96  219 1    
   193   97   98 2    
   194   97   99 am   BACKBONE|DICT|INTERRES
   195   99  100 1    
   196   99  220 1    
   197  100  101 1    
   198  100  102 1    
   199  100  221 1    
   200  101  222 1    
   201  101  223 1    
   202  101  224 1    
   203  102  103 2    
   204  102  104 am   BACKBONE|DICT|INTERRES
   205  104  105 1    
   206  104  225 1    
   207  105  106 1    
   208  105  107 1    
   209  105  226 1    
   210  106  227 1    
   211  106  228 1    
   212  106  229 1    
   213  107  108 2    
   214  107  109 am   BACKBONE|DICT|INTERRES
   215  109  110 1    
   216  109  230 1    
   217  110  111 1    
   218  110  112 1    
   219  110  231 1    
   220  111  232 1    
   221  111  233 1    
   222  111  234 1    
   223  112  113 2    
   224  112  114 am   BACKBONE|DICT|INTERRES
   225  114  115 1    
   226  114  235 1    
   227  115  116 1    
   228  115  117 1    
   229  115  236 1    
   230  116  237 1    
   231  116  238 1    
   232  116  239 1    
   233  117  118 2    
   234  117  119 am   BACKBONE|DICT|INTERRES
   235  119  120 1    
   236  119  240 1    
   237  120  121 1    
   238  120  124 1    
   239  120  241 1    
   240  121  122 am   BACKBONE|DICT|INTERRES
   241  121  123 2    
   242  122  242 1    
   243  122  243 1    
   244  124  125 1    
   245  124  244 1    
   246  124  245 1    
   247  125  126 1    
   248  126  246 1    
   249  126  247 1    
@<TRIPOS>SUBSTRUCTURE
     1 UNK         1 GROUP             0       ****    0 ROOT    
