@<TRIPOS>MOLECULE
3R540
247   249    1
SMALL
USER_CHARGES


@<TRIPOS>ATOM
      1 CA         -5.5532  -11.2838  -46.0301 C.3       0 UNK        -0.1800 
      2 C          -4.4326  -11.0344  -47.0294 C.2       0 UNK         0.5000 
      3 O          -4.3796   -9.9647  -47.6363 O.2       0 UNK        -0.5000 
      4 N          -3.5407  -12.0181  -47.2030 N.am      1 UNK        -0.5000 
      5 CA         -2.3711  -11.9556  -48.0889 C.3       1 UNK         0.1400 
      6 C6         -1.7623  -13.3561  -48.3554 C.3       23 UNK        -0.0398 
      7 S7         -1.4539  -14.3360  -46.8389 S.3       23 UNK        -0.2404 
      8 C8         -2.1050  -15.9694  -47.3164 C.3       23 UNK        -0.0205 
      9 C9         -1.1034  -16.7363  -48.1653 C.ar      23 UNK        -0.0193 
     10 C10        -1.1312  -16.6532  -49.5597 C.ar      23 UNK        -0.1150 
     11 C11        -0.1783  -17.3288  -50.3287 C.ar      23 UNK        -0.0193 
     12 C12         0.7973  -18.1040  -49.6929 C.ar      23 UNK        -0.1150 
     13 C13         0.8170  -18.2180  -48.3008 C.ar      23 UNK        -0.0193 
     14 C14        -0.1329  -17.5252  -47.5462 C.ar      23 UNK        -0.1150 
     15 C15         1.8762  -19.0680  -47.6095 C.3       23 UNK        -0.0205 
     16 S16         1.6440  -20.8582  -47.8850 S.3       23 UNK        -0.2404 
     17 C17        -0.1278  -21.0915  -47.5209 C.3       23 UNK        -0.0398 
     18 CA         -0.4677  -22.5258  -47.0564 C.3       11 UNK         0.1400 
     19 N           0.1770  -22.8832  -45.7865 N.am      11 UNK        -0.5000 
     20 C           0.1753  -24.1166  -45.2594 C.2       10 UNK         0.5000 
     21 O          -0.3438  -25.0914  -45.8019 O.2       10 UNK        -0.5000 
     22 CA          0.8045  -24.2786  -43.8667 C.3       10 UNK         0.1400 
     23 CB          2.3349  -24.3782  -43.9570 C.3       10 UNK        -0.1800 
     24 N           0.4218  -23.1847  -42.9743 N.am      10 UNK        -0.5000 
     25 C          -0.8045  -23.0402  -42.4496 C.2       9 UNK         0.5000 
     26 O          -1.7256  -23.8318  -42.6435 O.2       9 UNK        -0.5000 
     27 CA         -1.0633  -21.7762  -41.6077 C.3       9 UNK         0.1400 
     28 CB         -0.6178  -21.9929  -40.1541 C.3       9 UNK        -0.1800 
     29 N          -0.3981  -20.5907  -42.1477 N.am      9 UNK        -0.5000 
     30 C          -0.6542  -20.0628  -43.3525 C.2       8 UNK         0.5000 
     31 O          -1.5314  -20.4775  -44.1075 O.2       8 UNK        -0.5000 
     32 CA          0.2615  -18.9247  -43.8288 C.3       8 UNK         0.1400 
     33 CB         -0.3772  -17.5592  -43.5502 C.3       8 UNK        -0.1800 
     34 N           1.6209  -18.9774  -43.2797 N.am      8 UNK        -0.5000 
     35 C           2.4764  -19.9895  -43.4980 C.2       7 UNK         0.5000 
     36 O           2.1826  -20.9745  -44.1781 O.2       7 UNK        -0.5000 
     37 CA          3.8523  -19.9260  -42.7992 C.3       7 UNK         0.1400 
     38 CB          4.9369  -20.7360  -43.5408 C.3       7 UNK        -0.1800 
     39 N           4.3046  -18.5611  -42.5050 N.am      7 UNK        -0.5000 
     40 C           4.6352  -17.6102  -43.3895 C.2       6 UNK         0.5000 
     41 O           4.6578  -17.7698  -44.6110 O.2       6 UNK        -0.5000 
     42 CA          4.9732  -16.2285  -42.7976 C.3       6 UNK         0.1400 
     43 CB          6.3691  -15.7576  -43.2360 C.3       6 UNK        -0.1800 
     44 N           3.9817  -15.2365  -43.2057 N.am      6 UNK        -0.5000 
     45 C           2.6851  -15.2602  -42.8664 C.2       5 UNK         0.5000 
     46 O           2.2039  -16.0665  -42.0680 O.2       5 UNK        -0.5000 
     47 CA          1.7687  -14.2258  -43.5529 C.3       5 UNK         0.1400 
     48 CB          1.6292  -12.9699  -42.6813 C.3       5 UNK        -0.1800 
     49 N           2.2103  -13.8421  -44.8990 N.am      5 UNK        -0.5000 
     50 C           2.3285  -14.6856  -45.9384 C.2       4 UNK         0.5000 
     51 O           2.0588  -15.8829  -45.8647 O.2       4 UNK        -0.5000 
     52 CA          2.8405  -14.1036  -47.2717 C.3       4 UNK         0.1400 
     53 CB          2.1862  -14.7749  -48.4910 C.3       4 UNK        -0.1800 
     54 N           2.6192  -12.6601  -47.3555 N.am      4 UNK        -0.5000 
     55 C           3.5623  -11.7194  -47.2230 C.2       3 UNK         0.5000 
     56 O           4.7495  -11.9616  -47.0044 O.2       3 UNK        -0.5000 
     57 CA          3.0944  -10.2566  -47.3388 C.3       3 UNK         0.1400 
     58 CB          3.2884   -9.7421  -48.7730 C.3       3 UNK        -0.1800 
     59 N           1.6940  -10.0702  -46.9538 N.am      3 UNK        -0.5000 
     60 C           1.2198  -10.1493  -45.7060 C.2       2 UNK         0.5000 
     61 O           1.9260  -10.4064  -44.7316 O.2       2 UNK        -0.5000 
     62 CA         -0.2914   -9.9154  -45.5100 C.3       2 UNK         0.1400 
     63 CB         -0.6671   -8.4427  -45.7616 C.3       2 UNK        -0.1800 
     64 N          -1.1615  -10.8221  -46.2720 N.am      2 UNK        -0.5000 
     65 C          -1.3018  -10.9535  -47.6008 C.2       1 UNK         0.5000 
     66 O          -0.6476  -10.3216  -48.4319 O.2       1 UNK        -0.5000 
     67 C          -1.9984  -22.7274  -47.0116 C.2       11 UNK         0.5000 
     68 O          -2.5810  -23.1506  -48.0115 O.2       11 UNK        -0.5000 
     69 N          -2.6197  -22.4400  -45.8596 N.am      12 UNK        -0.5000 
     70 CA         -4.0341  -22.6877  -45.5913 C.3       12 UNK         0.1400 
     71 CB         -4.4678  -21.9167  -44.3361 C.3       12 UNK        -0.1800 
     72 C          -4.3468  -24.1871  -45.4505 C.2       12 UNK         0.5000 
     73 O          -5.3170  -24.6521  -46.0470 O.2       12 UNK        -0.5000 
     74 N          -3.5124  -24.9259  -44.7026 N.am      13 UNK        -0.5000 
     75 CA         -3.6391  -26.3738  -44.4964 C.3       13 UNK         0.1400 
     76 CB         -2.6303  -26.8395  -43.4361 C.3       13 UNK        -0.1800 
     77 C          -3.4739  -27.1886  -45.7926 C.2       13 UNK         0.5000 
     78 O          -4.1913  -28.1693  -45.9921 O.2       13 UNK        -0.5000 
     79 N          -2.5633  -26.7421  -46.6676 N.am      14 UNK        -0.5000 
     80 CA         -2.3581  -27.2789  -48.0143 C.3       14 UNK         0.1400 
     81 CB         -0.9951  -26.7900  -48.5313 C.3       14 UNK        -0.1800 
     82 C          -3.4711  -26.8859  -49.0087 C.2       14 UNK         0.5000 
     83 O          -3.5112  -27.4375  -50.1085 O.2       14 UNK        -0.5000 
     84 N          -4.3186  -25.9176  -48.6254 N.am      15 UNK        -0.5000 
     85 CA         -5.3764  -25.2673  -49.4079 C.3       15 UNK         0.1400 
     86 CB         -6.4519  -26.2775  -49.8549 C.3       15 UNK        -0.1800 
     87 C          -4.8482  -24.4146  -50.5795 C.2       15 UNK         0.5000 
     88 O          -5.6385  -23.9709  -51.4124 O.2       15 UNK        -0.5000 
     89 N          -3.5351  -24.1539  -50.6071 N.am      16 UNK        -0.5000 
     90 CA         -2.8556  -23.3595  -51.6252 C.3       16 UNK         0.1400 
     91 CB         -1.3371  -23.5369  -51.4819 C.3       16 UNK        -0.1800 
     92 C          -3.2489  -21.8774  -51.5526 C.2       16 UNK         0.5000 
     93 O          -3.4646  -21.2620  -52.5960 O.2       16 UNK        -0.5000 
     94 N          -3.3821  -21.3505  -50.3266 N.am      17 UNK        -0.5000 
     95 CA         -3.8716  -19.9936  -50.0707 C.3       17 UNK         0.1400 
     96 CB         -3.5532  -19.5883  -48.6229 C.3       17 UNK        -0.1800 
     97 C          -5.3785  -19.8476  -50.3515 C.2       17 UNK         0.5000 
     98 O          -5.8139  -18.7814  -50.7850 O.2       17 UNK        -0.5000 
     99 N          -6.1434  -20.9211  -50.1062 N.am      18 UNK        -0.5000 
    100 CA        -7.5908  -20.9756  -50.3139 C.3       18 UNK         0.1400 
    101 CB        -8.1738  -22.1754  -49.5500 C.3       18 UNK        -0.1800 
    102 C         -7.9609  -21.0376  -51.8058 C.2       18 UNK         0.5000 
    103 O         -8.8482  -20.3058  -52.2454 O.2       18 UNK        -0.5000 
    104 N         -7.2597  -21.8952  -52.5592 N.am      19 UNK        -0.5000 
    105 CA        -7.4328  -22.0669  -54.0028 C.3       19 UNK         0.1400 
    106 CB        -6.8661  -23.4389  -54.4028 C.3       19 UNK        -0.1800 
    107 C         -6.7606  -20.9578  -54.8354 C.2       19 UNK         0.5000 
    108 O         -7.0575  -20.8412  -56.0247 O.2       19 UNK        -0.5000 
    109 N         -5.8425  -20.2024  -54.2123 N.am      20 UNK        -0.5000 
    110 CA        -4.9226  -19.2306  -54.8183 C.3       20 UNK         0.1400 
    111 CB        -5.6824  -18.0495  -55.4558 C.3       20 UNK        -0.1800 
    112 C         -3.9102  -19.8951  -55.7788 C.2       20 UNK         0.5000 
    113 O         -3.4101  -19.2543  -56.7047 O.2       20 UNK        -0.5000 
    114 N         -3.6075  -21.1734  -55.5163 N.am      21 UNK        -0.5000 
    115 CA        -2.6168  -21.9857  -56.2219 C.3       21 UNK         0.1400 
    116 CB        -2.9655  -23.4683  -56.0180 C.3       21 UNK        -0.1800 
    117 C         -1.1774  -21.6927  -55.7543 C.2       21 UNK         0.5000 
    118 O         -0.2279  -22.1250  -56.4082 O.2       21 UNK        -0.5000 
    119 N         -1.0433  -20.9644  -54.6387 N.am      22 UNK        -0.5000 
    120 CA         0.2164  -20.4773  -54.0604 C.3       22 UNK         0.1400 
    121 C          1.0270  -19.4762  -54.9405 C.2       22 UNK         0.5000 
    122 N          0.4518  -18.8788  -55.9778 N.am      22 UNK        -0.7600 
    123 O          2.2036  -19.2441  -54.6772 O.2       22 UNK        -0.5000 
    124 C124       -0.0190  -19.9145  -52.6360 C.3       23 UNK        -0.0398 
    125 S125       -1.2062  -18.5212  -52.5965 S.3       23 UNK        -0.2404 
    126 C126       -0.2017  -17.2066  -51.8438 C.3       23 UNK        -0.0205 
    127 H127       -5.4779  -12.2713  -45.5741 H         1 UNK         0.0600 
    128 H128       -6.5212  -11.2113  -46.5259 H         1 UNK         0.0600 
    129 H129       -5.5193  -10.5388  -45.2351 H         1 UNK         0.0600 
    130 H130       -3.6364  -12.8763  -46.6780 H         1 UNK         0.3000 
    131 H131       -2.7215  -11.5747  -49.0509 H         1 UNK         0.0600 
    132 H132       -2.4481  -13.9082  -48.9982 H         1 UNK         0.0800 
    133 H133       -0.8349  -13.2802  -48.9256 H         1 UNK         0.0800 
    134 H134       -3.0565  -15.8647  -47.8397 H         1 UNK         0.0800 
    135 H135       -2.3222  -16.5360  -46.4096 H         1 UNK         0.0800 
    136 H136       -1.8848  -16.0521  -50.0477 H         1 UNK         0.1150 
    137 H137        1.5450  -18.6220  -50.2747 H         1 UNK         0.1150 
    138 H138       -0.1045  -17.5712  -46.4697 H         1 UNK         0.1150 
    139 H139        1.9008  -18.8656  -46.5388 H         1 UNK         0.0800 
    140 H140        2.8599  -18.7810  -47.9831 H         1 UNK         0.0800 
    141 H141       -0.6623  -20.8568  -48.4426 H         1 UNK         0.0800 
    142 H142       -0.4509  -20.3636  -46.7758 H         1 UNK         0.0800 
    143 H143       -0.0884  -23.2168  -47.8125 H         1 UNK         0.0600 
    144 H144        0.6617  -22.1431  -45.2925 H         1 UNK         0.3000 
    145 H145        0.4356  -25.2128  -43.4382 H         1 UNK         0.0600 
    146 H146        2.6304  -25.2435  -44.5515 H         1 UNK         0.0600 
    147 H147        2.7827  -24.4939  -42.9699 H         1 UNK         0.0600 
    148 H148        2.7761  -23.4986  -44.4252 H         1 UNK         0.0600 
    149 H149        1.1029  -22.4494  -42.8448 H         1 UNK         0.3000 
    150 H150       -2.1391  -21.5888  -41.6121 H         1 UNK         0.0600 
    151 H151        0.4579  -22.1584  -40.0816 H         1 UNK         0.0600 
    152 H152       -1.1138  -22.8621  -39.7202 H         1 UNK         0.0600 
    153 H153       -0.8685  -21.1333  -39.5324 H         1 UNK         0.0600 
    154 H154        0.3387  -20.1837  -41.5912 H         1 UNK         0.3000 
    155 H155        0.3456  -19.0445  -44.9067 H         1 UNK         0.0600 
    156 H156        0.1516  -16.7767  -44.0898 H         1 UNK         0.0600 
    157 H157       -0.3651  -17.3135  -42.4879 H         1 UNK         0.0600 
    158 H158       -1.4146  -17.5309  -43.8867 H         1 UNK         0.0600 
    159 H159        1.9235  -18.1817  -42.7305 H         1 UNK         0.3000 
    160 H160        3.7066  -20.4026  -41.8289 H         1 UNK         0.0600 
    161 H161        5.0736  -20.3899  -44.5656 H         1 UNK         0.0600 
    162 H162        4.6698  -21.7923  -43.5899 H         1 UNK         0.0600 
    163 H163        5.8982  -20.6697  -43.0314 H         1 UNK         0.0600 
    164 H164        4.2989  -18.3110  -41.5256 H         1 UNK         0.3000 
    165 H165        4.9637  -16.2906  -41.7073 H         1 UNK         0.0600 
    166 H166        6.6270  -14.8042  -42.7746 H         1 UNK         0.0600 
    167 H167        7.1329  -16.4785  -42.9416 H         1 UNK         0.0600 
    168 H168        6.4333  -15.6349  -44.3180 H         1 UNK         0.0600 
    169 H169        4.2777  -14.5611  -43.8940 H         1 UNK         0.3000 
    170 H170        0.7780  -14.6711  -43.6466 H         1 UNK         0.0600 
    171 H171        0.8672  -12.2996  -43.0787 H         1 UNK         0.0600 
    172 H172        2.5667  -12.4162  -42.6183 H         1 UNK         0.0600 
    173 H173        1.3300  -13.2287  -41.6647 H         1 UNK         0.0600 
    174 H174        2.4430  -12.8686  -45.0376 H         1 UNK         0.3000 
    175 H175        3.9092  -14.3226  -47.3134 H         1 UNK         0.0600 
    176 H176        2.4337  -15.8357  -48.5294 H         1 UNK         0.0600 
    177 H177        1.1005  -14.6933  -48.4635 H         1 UNK         0.0600 
    178 H178        2.5338  -14.3308  -49.4236 H         1 UNK         0.0600 
    179 H179        1.6673  -12.3603  -47.5066 H         1 UNK         0.3000 
    180 H180        3.7163   -9.6560  -46.6716 H         1 UNK         0.0600 
    181 H181        2.6708  -10.2923  -49.4842 H         1 UNK         0.0600 
    182 H182        4.3272   -9.8460  -49.0893 H         1 UNK         0.0600 
    183 H183        3.0296   -8.6860  -48.8510 H         1 UNK         0.0600 
    184 H184        1.0200   -9.9163  -47.6999 H         1 UNK         0.3000 
    185 H185       -0.5011  -10.1248  -44.4598 H         1 UNK         0.0600 
    186 H186       -0.0734   -7.7769  -45.1340 H         1 UNK         0.0600 
    187 H187       -0.5010   -8.1470  -46.7978 H         1 UNK         0.0600 
    188 H188       -1.7160   -8.2603  -45.5276 H         1 UNK         0.0600 
    189 H189       -1.7421  -11.4221  -45.7031 H         1 UNK         0.3000 
    190 H190       -2.0905  -21.9972  -45.1135 H         1 UNK         0.3000 
    191 H191       -4.6120  -22.3058  -46.4356 H         1 UNK         0.0600 
    192 H192       -4.3237  -20.8439  -44.4655 H         1 UNK         0.0600 
    193 H193       -5.5248  -22.0797  -44.1223 H         1 UNK         0.0600 
    194 H194       -3.9022  -22.2254  -43.4567 H         1 UNK         0.0600 
    195 H195       -2.7600  -24.4653  -44.1996 H         1 UNK         0.3000 
    196 H196       -4.6436  -26.5664  -44.1141 H         1 UNK         0.0600 
    197 H197       -2.7084  -27.9140  -43.2661 H         1 UNK         0.0600 
    198 H198       -2.8080  -26.3472  -42.4801 H         1 UNK         0.0600 
    199 H199       -1.6042  -26.6280  -43.7378 H         1 UNK         0.0600 
    200 H200       -1.9543  -25.9771  -46.3883 H         1 UNK         0.3000 
    201 H201       -2.3356  -28.3690  -47.9566 H         1 UNK         0.0600 
    202 H202       -0.7818  -27.1911  -49.5229 H         1 UNK         0.0600 
    203 H203       -0.1869  -27.1082  -47.8726 H         1 UNK         0.0600 
    204 H204       -0.9595  -25.7019  -48.6016 H         1 UNK         0.0600 
    205 H205       -4.2072  -25.5478  -47.6895 H         1 UNK         0.3000 
    206 H206       -5.8563  -24.5633  -48.7274 H         1 UNK         0.0600 
    207 H207       -6.8154  -26.8644  -49.0115 H         1 UNK         0.0600 
    208 H208       -7.3124  -25.7658  -50.2875 H         1 UNK         0.0600 
    209 H209       -6.0741  -26.9682  -50.6090 H         1 UNK         0.0600 
    210 H210       -2.9772  -24.4643  -49.8235 H         1 UNK         0.3000 
    211 H211       -3.1563  -23.7406  -52.6024 H         1 UNK         0.0600 
    212 H212       -0.9674  -23.1280  -50.5404 H         1 UNK         0.0600 
    213 H213       -0.8093  -23.0356  -52.2935 H         1 UNK         0.0600 
    214 H214       -1.0588  -24.5903  -51.5207 H         1 UNK         0.0600 
    215 H215       -3.1857  -21.9389  -49.5236 H         1 UNK         0.3000 
    216 H216       -3.3484  -19.3037  -50.7349 H         1 UNK         0.0600 
    217 H217       -3.9805  -18.6128  -48.3866 H         1 UNK         0.0600 
    218 H218       -2.4797  -19.5046  -48.4657 H         1 UNK         0.0600 
    219 H219       -3.9497  -20.3041  -47.9025 H         1 UNK         0.0600 
    220 H220       -5.6964  -21.7640  -49.7812 H         1 UNK         0.3000 
    221 H221       -8.0304  -20.0666  -49.8974 H         1 UNK         0.0600 
    222 H222       -7.7852  -23.1236  -49.9214 H         1 UNK         0.0600 
    223 H223       -7.9476  -22.1138  -48.4853 H         1 UNK         0.0600 
    224 H224       -9.2595  -22.2075  -49.6494 H         1 UNK         0.0600 
    225 H225       -6.5851  -22.5116  -52.1115 H         1 UNK         0.3000 
    226 H226       -8.4998  -22.0557  -54.2347 H         1 UNK         0.0600 
    227 H227       -7.0112  -23.6299  -55.4668 H         1 UNK         0.0600 
    228 H228       -5.7964  -23.5063  -54.1998 H         1 UNK         0.0600 
    229 H229       -7.3600  -24.2436  -53.8578 H         1 UNK         0.0600 
    230 H230       -5.6638  -20.4071  -53.2385 H         1 UNK         0.3000 
    231 H231       -4.3305  -18.8300  -53.9938 H         1 UNK         0.0600 
    232 H232       -6.2284  -18.3501  -56.3501 H         1 UNK         0.0600 
    233 H233       -4.9932  -17.2564  -55.7479 H         1 UNK         0.0600 
    234 H234       -6.3959  -17.6163  -54.7548 H         1 UNK         0.0600 
    235 H235       -4.0036  -21.5747  -54.6760 H         1 UNK         0.3000 
    236 H236       -2.6713  -21.7617  -57.2892 H         1 UNK         0.0600 
    237 H237       -2.9091  -23.7550  -54.9681 H         1 UNK         0.0600 
    238 H238       -3.9725  -23.6890  -56.3727 H         1 UNK         0.0600 
    239 H239       -2.2789  -24.1109  -56.5707 H         1 UNK         0.0600 
    240 H240       -1.8840  -20.6739  -54.1562 H         1 UNK         0.3000 
    241 H241        0.8593  -21.3530  -53.9547 H         1 UNK         0.0600 
    242 H242       -0.5167  -19.0517  -56.1969 H         1 UNK         0.3800 
    243 H243        0.9872  -18.2373  -56.5410 H         1 UNK         0.3800 
    244 H244        0.9324  -19.6202  -52.1943 H         1 UNK         0.0800 
    245 H245       -0.4074  -20.6963  -51.9842 H         1 UNK         0.0800 
    246 H246        0.8113  -17.2248  -52.2489 H         1 UNK         0.0800 
    247 H247       -0.6219  -16.2409  -52.1288 H         1 UNK         0.0800 
@<TRIPOS>BOND
     1    1    2 1    
     2    1  127 1    
     3    1  128 1    
     4    1  129 1    
     5    2    3 2    
     6    2    4 am   BACKBONE|DICT|INTERRES
     7    4    5 1    
     8    4  130 1    
     9    5    6 1    
    10    5   65 1    
    11    5  131 1    
    12    6    7 1    
    13    6  132 1    
    14    6  133 1    
    15    7    8 1    
    16    8    9 1    
    17    8  134 1    
    18    8  135 1    
    19    9   10 ar   
    20    9   14 ar   
    21   10   11 ar   
    22   10  136 1    
    23   11   12 ar   
    24   11  126 1    
    25   12   13 ar   
    26   12  137 1    
    27   13   14 ar   
    28   13   15 1    
    29   14  138 1    
    30   15   16 1    
    31   15  139 1    
    32   15  140 1    
    33   16   17 1    
    34   17   18 1    
    35   17  141 1    
    36   17  142 1    
    37   18   19 1    
    38   18   67 1    
    39   18  143 1    
    40   19   20 am   BACKBONE|DICT|INTERRES
    41   19  144 1    
    42   20   21 2    
    43   20   22 1    
    44   22   23 1    
    45   22   24 1    
    46   22  145 1    
    47   23  146 1    
    48   23  147 1    
    49   23  148 1    
    50   24   25 am   BACKBONE|DICT|INTERRES
    51   24  149 1    
    52   25   26 2    
    53   25   27 1    
    54   27   28 1    
    55   27   29 1    
    56   27  150 1    
    57   28  151 1    
    58   28  152 1    
    59   28  153 1    
    60   29   30 am   BACKBONE|DICT|INTERRES
    61   29  154 1    
    62   30   31 2    
    63   30   32 1    
    64   32   33 1    
    65   32   34 1    
    66   32  155 1    
    67   33  156 1    
    68   33  157 1    
    69   33  158 1    
    70   34   35 am   BACKBONE|DICT|INTERRES
    71   34  159 1    
    72   35   36 2    
    73   35   37 1    
    74   37   38 1    
    75   37   39 1    
    76   37  160 1    
    77   38  161 1    
    78   38  162 1    
    79   38  163 1    
    80   39   40 am   BACKBONE|DICT|INTERRES
    81   39  164 1    
    82   40   41 2    
    83   40   42 1    
    84   42   43 1    
    85   42   44 1    
    86   42  165 1    
    87   43  166 1    
    88   43  167 1    
    89   43  168 1    
    90   44   45 am   BACKBONE|DICT|INTERRES
    91   44  169 1    
    92   45   46 2    
    93   45   47 1    
    94   47   48 1    
    95   47   49 1    
    96   47  170 1    
    97   48  171 1    
    98   48  172 1    
    99   48  173 1    
   100   49   50 am   BACKBONE|DICT|INTERRES
   101   49  174 1    
   102   50   51 2    
   103   50   52 1    
   104   52   53 1    
   105   52   54 1    
   106   52  175 1    
   107   53  176 1    
   108   53  177 1    
   109   53  178 1    
   110   54   55 am   BACKBONE|DICT|INTERRES
   111   54  179 1    
   112   55   56 2    
   113   55   57 1    
   114   57   58 1    
   115   57   59 1    
   116   57  180 1    
   117   58  181 1    
   118   58  182 1    
   119   58  183 1    
   120   59   60 am   BACKBONE|DICT|INTERRES
   121   59  184 1    
   122   60   61 2    
   123   60   62 1    
   124   62   63 1    
   125   62   64 1    
   126   62  185 1    
   127   63  186 1    
   128   63  187 1    
   129   63  188 1    
   130   64   65 am   BACKBONE|DICT|INTERRES
   131   64  189 1    
   132   65   66 2    
   133   67   68 2    
   134   67   69 am   BACKBONE|DICT|INTERRES
   135   69   70 1    
   136   69  190 1    
   137   70   71 1    
   138   70   72 1    
   139   70  191 1    
   140   71  192 1    
   141   71  193 1    
   142   71  194 1    
   143   72   73 2    
   144   72   74 am   BACKBONE|DICT|INTERRES
   145   74   75 1    
   146   74  195 1    
   147   75   76 1    
   148   75   77 1    
   149   75  196 1    
   150   76  197 1    
   151   76  198 1    
   152   76  199 1    
   153   77   78 2    
   154   77   79 am   BACKBONE|DICT|INTERRES
   155   79   80 1    
   156   79  200 1    
   157   80   81 1    
   158   80   82 1    
   159   80  201 1    
   160   81  202 1    
   161   81  203 1    
   162   81  204 1    
   163   82   83 2    
   164   82   84 am   BACKBONE|DICT|INTERRES
   165   84   85 1    
   166   84  205 1    
   167   85   86 1    
   168   85   87 1    
   169   85  206 1    
   170   86  207 1    
   171   86  208 1    
   172   86  209 1    
   173   87   88 2    
   174   87   89 am   BACKBONE|DICT|INTERRES
   175   89   90 1    
   176   89  210 1    
   177   90   91 1    
   178   90   92 1    
   179   90  211 1    
   180   91  212 1    
   181   91  213 1    
   182   91  214 1    
   183   92   93 2    
   184   92   94 am   BACKBONE|DICT|INTERRES
   185   94   95 1    
   186   94  215 1    
   187   95   96 1    
   188   95   97 1    
   189   95  216 1    
   190   96  217 1    
   191   96  218 1    
   192   96  219 1    
   193   97   98 2    
   194   97   99 am   BACKBONE|DICT|INTERRES
   195   99  100 1    
   196   99  220 1    
   197  100  101 1    
   198  100  102 1    
   199  100  221 1    
   200  101  222 1    
   201  101  223 1    
   202  101  224 1    
   203  102  103 2    
   204  102  104 am   BACKBONE|DICT|INTERRES
   205  104  105 1    
   206  104  225 1    
   207  105  106 1    
   208  105  107 1    
   209  105  226 1    
   210  106  227 1    
   211  106  228 1    
   212  106  229 1    
   213  107  108 2    
   214  107  109 am   BACKBONE|DICT|INTERRES
   215  109  110 1    
   216  109  230 1    
   217  110  111 1    
   218  110  112 1    
   219  110  231 1    
   220  111  232 1    
   221  111  233 1    
   222  111  234 1    
   223  112  113 2    
   224  112  114 am   BACKBONE|DICT|INTERRES
   225  114  115 1    
   226  114  235 1    
   227  115  116 1    
   228  115  117 1    
   229  115  236 1    
   230  116  237 1    
   231  116  238 1    
   232  116  239 1    
   233  117  118 2    
   234  117  119 am   BACKBONE|DICT|INTERRES
   235  119  120 1    
   236  119  240 1    
   237  120  121 1    
   238  120  124 1    
   239  120  241 1    
   240  121  122 am   BACKBONE|DICT|INTERRES
   241  121  123 2    
   242  122  242 1    
   243  122  243 1    
   244  124  125 1    
   245  124  244 1    
   246  124  245 1    
   247  125  126 1    
   248  126  246 1    
   249  126  247 1    
@<TRIPOS>SUBSTRUCTURE
     1 UNK         1 GROUP             0       ****    0 ROOT    
