@<TRIPOS>MOLECULE
3R540
247   249    1
SMALL
USER_CHARGES


@<TRIPOS>ATOM
      1 CA         -4.3230  -20.2615  -44.5695 C.3       0 UNK        -0.1800 
      2 C          -3.8522  -19.5874  -45.8489 C.2       0 UNK         0.5000 
      3 O          -3.6076  -20.2668  -46.8458 O.2       0 UNK        -0.5000 
      4 N          -3.7365  -18.2563  -45.8319 N.am      1 UNK        -0.5000 
      5 CA         -3.3446  -17.4283  -46.9666 C.3       1 UNK         0.1400 
      6 C6         -1.8356  -17.5358  -47.3102 C.3       23 UNK        -0.0398 
      7 S7         -1.5252  -17.0638  -49.0440 S.3       23 UNK        -0.2404 
      8 C8         -1.6205  -18.6839  -49.8590 C.3       23 UNK        -0.0205 
      9 C9         -0.2479  -19.1730  -50.2853 C.ar      23 UNK        -0.0193 
     10 C10         0.1471  -19.0916  -51.6215 C.ar      23 UNK        -0.1150 
     11 C11         1.3957  -19.5695  -52.0270 C.ar      23 UNK        -0.0193 
     12 C12         2.2492  -20.1483  -51.0820 C.ar      23 UNK        -0.1150 
     13 C13         1.8652  -20.2363  -49.7399 C.ar      23 UNK        -0.0193 
     14 C14         0.6231  -19.7274  -49.3477 C.ar      23 UNK        -0.1150 
     15 C15         2.7912  -20.8790  -48.7161 C.3       23 UNK        -0.0205 
     16 S16         2.5518  -22.6827  -48.6056 S.3       23 UNK        -0.2404 
     17 C17         0.8925  -22.8135  -47.8509 C.3       23 UNK        -0.0398 
     18 CA          0.8854  -23.4791  -46.4528 C.3       11 UNK         0.1400 
     19 N           1.7245  -22.7545  -45.4933 N.am      11 UNK        -0.5000 
     20 C           2.7793  -23.2786  -44.8585 C.2       10 UNK         0.5000 
     21 O           3.0987  -24.4664  -44.9213 O.2       10 UNK        -0.5000 
     22 CA          3.6281  -22.3163  -44.0105 C.3       10 UNK         0.1400 
     23 CB          4.5793  -21.5125  -44.9106 C.3       10 UNK        -0.1800 
     24 N           2.8394  -21.3978  -43.1883 N.am      10 UNK        -0.5000 
     25 C           2.0670  -21.7685  -42.1569 C.2       9 UNK         0.5000 
     26 O           1.8875  -22.9397  -41.8215 O.2       9 UNK        -0.5000 
     27 CA          1.3826  -20.6404  -41.3630 C.3       9 UNK         0.1400 
     28 CB          2.3771  -19.9552  -40.4131 C.3       9 UNK        -0.1800 
     29 N           0.7779  -19.6399  -42.2382 N.am      9 UNK        -0.5000 
     30 C          -0.3278  -19.8489  -42.9633 C.2       8 UNK         0.5000 
     31 O          -1.0046  -20.8725  -42.8981 O.2       8 UNK        -0.5000 
     32 CA         -0.7394  -18.7412  -43.9465 C.3       8 UNK         0.1400 
     33 CB         -1.6193  -17.6925  -43.2512 C.3       8 UNK        -0.1800 
     34 N           0.3969  -18.0851  -44.5896 N.am      8 UNK        -0.5000 
     35 C           1.2672  -18.7027  -45.4005 C.2       7 UNK         0.5000 
     36 O           1.1831  -19.8890  -45.7195 O.2       7 UNK        -0.5000 
     37 CA          2.4594  -17.8625  -45.8904 C.3       7 UNK         0.1400 
     38 CB          2.0717  -16.9954  -47.0990 C.3       7 UNK        -0.1800 
     39 N           2.9965  -17.0125  -44.8274 N.am      7 UNK        -0.5000 
     40 C           3.6151  -17.4724  -43.7300 C.2       6 UNK         0.5000 
     41 O           3.8379  -18.6635  -43.5180 O.2       6 UNK        -0.5000 
     42 CA          3.9949  -16.4276  -42.6660 C.3       6 UNK         0.1400 
     43 CB          5.3000  -15.7124  -43.0461 C.3       6 UNK        -0.1800 
     44 N           2.9366  -15.4371  -42.4646 N.am      6 UNK        -0.5000 
     45 C           1.7255  -15.7132  -41.9587 C.2       5 UNK         0.5000 
     46 O           1.3963  -16.8251  -41.5481 O.2       5 UNK        -0.5000 
     47 CA          0.6974  -14.5654  -41.9591 C.3       5 UNK         0.1400 
     48 CB          0.7925  -13.7549  -40.6583 C.3       5 UNK        -0.1800 
     49 N           0.8546  -13.6664  -43.1062 N.am      5 UNK        -0.5000 
     50 C           0.6460  -14.0233  -44.3798 C.2       4 UNK         0.5000 
     51 O           0.2566  -15.1420  -44.7265 O.2       4 UNK        -0.5000 
     52 CA          1.0078  -12.9814  -45.4433 C.3       4 UNK         0.1400 
     53 CB          2.5218  -13.0391  -45.7344 C.3       4 UNK        -0.1800 
     54 N           0.2433  -13.2565  -46.6551 N.am      4 UNK        -0.5000 
     55 C           0.1460  -12.4466  -47.7159 C.2       3 UNK         0.5000 
     56 O           0.6797  -11.3386  -47.7866 O.2       3 UNK        -0.5000 
     57 CA         -0.6933  -12.9576  -48.9000 C.3       3 UNK         0.1400 
     58 CB          0.1323  -13.9298  -49.7587 C.3       3 UNK        -0.1800 
     59 N          -1.9425  -13.6029  -48.4885 N.am      3 UNK        -0.5000 
     60 C          -2.9925  -12.9563  -47.9550 C.2       2 UNK         0.5000 
     61 O          -2.9913  -11.7502  -47.7071 O.2       2 UNK        -0.5000 
     62 CA         -4.2711  -13.7724  -47.6726 C.3       2 UNK         0.1400 
     63 CB         -5.3679  -13.4184  -48.6903 C.3       2 UNK        -0.1800 
     64 N          -4.0314  -15.2149  -47.7269 N.am      2 UNK        -0.5000 
     65 C          -3.7460  -15.9763  -46.6652 C.2       1 UNK         0.5000 
     66 O          -3.7606  -15.5755  -45.4992 O.2       1 UNK        -0.5000 
     67 C          -0.5491  -23.6374  -45.9072 C.2       11 UNK         0.5000 
     68 O          -1.5034  -23.6068  -46.6877 O.2       11 UNK        -0.5000 
     69 N          -0.6807  -23.8217  -44.5849 N.am      12 UNK        -0.5000 
     70 CA         -1.9467  -23.8876  -43.8448 C.3       12 UNK         0.1400 
     71 CB         -1.6536  -24.1829  -42.3651 C.3       12 UNK        -0.1800 
     72 C          -2.9692  -24.8961  -44.4008 C.2       12 UNK         0.5000 
     73 O          -4.1462  -24.5580  -44.5256 O.2       12 UNK        -0.5000 
     74 N          -2.4927  -26.0990  -44.7445 N.am      13 UNK        -0.5000 
     75 CA         -3.2926  -27.1520  -45.3734 C.3       13 UNK         0.1400 
     76 CB         -2.9474  -28.4947  -44.7098 C.3       13 UNK        -0.1800 
     77 C          -3.0578  -27.2367  -46.8932 C.2       13 UNK         0.5000 
     78 O          -3.9213  -27.7501  -47.6051 O.2       13 UNK        -0.5000 
     79 N          -1.8925  -26.7682  -47.3628 N.am      14 UNK        -0.5000 
     80 CA         -1.4618  -26.8739  -48.7574 C.3       14 UNK         0.1400 
     81 CB          0.0647  -26.7188  -48.8375 C.3       14 UNK        -0.1800 
     82 C          -2.1675  -25.8682  -49.6826 C.2       14 UNK         0.5000 
     83 O          -2.5788  -26.2486  -50.7796 O.2       14 UNK        -0.5000 
     84 N          -2.2983  -24.6152  -49.2282 N.am      15 UNK        -0.5000 
     85 CA         -3.0258  -23.5614  -49.9326 C.3       15 UNK         0.1400 
     86 CB         -2.2972  -22.2179  -49.7739 C.3       15 UNK        -0.1800 
     87 C          -4.4629  -23.4840  -49.4022 C.2       15 UNK         0.5000 
     88 O          -5.4015  -23.5737  -50.1931 O.2       15 UNK        -0.5000 
     89 N          -4.5946  -23.3652  -48.0709 N.am      16 UNK        -0.5000 
     90 CA         -5.8496  -23.3217  -47.3117 C.3       16 UNK         0.1400 
     91 CB         -6.5416  -24.7005  -47.3359 C.3       16 UNK        -0.1800 
     92 C          -6.7789  -22.1606  -47.7324 C.2       16 UNK         0.5000 
     93 O          -7.9807  -22.3615  -47.9204 O.2       16 UNK        -0.5000 
     94 N          -6.1843  -20.9639  -47.8415 N.am      17 UNK        -0.5000 
     95 CA         -6.7751  -19.6716  -48.2042 C.3       17 UNK         0.1400 
     96 CB         -7.9203  -19.2922  -47.2416 C.3       17 UNK        -0.1800 
     97 C          -7.1904  -19.5652  -49.6855 C.2       17 UNK         0.5000 
     98 O          -7.1071  -20.5369  -50.4387 O.2       17 UNK        -0.5000 
     99 N          -7.5852  -18.3467  -50.0849 N.am      18 UNK        -0.5000 
    100 CA        -8.0333  -17.8987  -51.4134 C.3       18 UNK         0.1400 
    101 CB        -9.2953  -18.6572  -51.8661 C.3       18 UNK        -0.1800 
    102 C         -6.9515  -17.9191  -52.5132 C.2       18 UNK         0.5000 
    103 O         -6.8335  -16.9494  -53.2630 O.2       18 UNK        -0.5000 
    104 N         -6.1630  -18.9962  -52.5838 N.am      19 UNK        -0.5000 
    105 CA        -5.1167  -19.2626  -53.5743 C.3       19 UNK         0.1400 
    106 CB        -4.8668  -20.7819  -53.6097 C.3       19 UNK        -0.1800 
    107 C         -3.8164  -18.4587  -53.3406 C.2       19 UNK         0.5000 
    108 O         -2.7244  -19.0085  -53.4758 O.2       19 UNK        -0.5000 
    109 N         -3.9467  -17.1724  -52.9905 N.am      20 UNK        -0.5000 
    110 CA        -2.8433  -16.2485  -52.7071 C.3       20 UNK         0.1400 
    111 CB        -3.4013  -15.0282  -51.9592 C.3       20 UNK        -0.1800 
    112 C         -2.0519  -15.8182  -53.9576 C.2       20 UNK         0.5000 
    113 O         -0.9162  -15.3613  -53.8269 O.2       20 UNK        -0.5000 
    114 N         -2.6548  -15.9694  -55.1434 N.am      21 UNK        -0.5000 
    115 CA        -2.0126  -15.7652  -56.4376 C.3       21 UNK         0.1400 
    116 CB        -3.0951  -15.4651  -57.4889 C.3       21 UNK        -0.1800 
    117 C         -1.1829  -17.0105  -56.7995 C.2       21 UNK         0.5000 
    118 O         -1.7298  -17.9721  -57.3435 O.2       21 UNK        -0.5000 
    119 N          0.1102  -16.9850  -56.4562 N.am      22 UNK        -0.5000 
    120 CA         1.0579  -18.0939  -56.6749 C.3       22 UNK         0.1400 
    121 C          1.4526  -18.3430  -58.1617 C.2       22 UNK         0.5000 
    122 N          1.1645  -17.4402  -59.0915 N.am      22 UNK        -0.7600 
    123 O          2.0299  -19.3797  -58.4778 O.2       22 UNK        -0.5000 
    124 C124        2.3323  -17.9623  -55.7983 C.3       23 UNK        -0.0398 
    125 S125        1.9844  -17.7447  -54.0208 S.3       23 UNK        -0.2404 
    126 C126        1.8005  -19.4761  -53.4903 C.3       23 UNK        -0.0205 
    127 H127       -5.1556  -20.9323  -44.7813 H         1 UNK         0.0600 
    128 H128       -4.6524  -19.5347  -43.8267 H         1 UNK         0.0600 
    129 H129       -3.5130  -20.8466  -44.1373 H         1 UNK         0.0600 
    130 H130       -3.9702  -17.7211  -45.0043 H         1 UNK         0.3000 
    131 H131       -3.9330  -17.7667  -47.8218 H         1 UNK         0.0600 
    132 H132       -1.2315  -16.9070  -46.6536 H         1 UNK         0.0800 
    133 H133       -1.4686  -18.5503  -47.1541 H         1 UNK         0.0800 
    134 H134       -2.0834  -19.4148  -49.1958 H         1 UNK         0.0800 
    135 H135       -2.2835  -18.6153  -50.7203 H         1 UNK         0.0800 
    136 H136       -0.5125  -18.6504  -52.3535 H         1 UNK         0.1150 
    137 H137        3.2106  -20.5354  -51.3893 H         1 UNK         0.1150 
    138 H138        0.3237  -19.7624  -48.3111 H         1 UNK         0.1150 
    139 H139        3.8292  -20.6801  -48.9861 H         1 UNK         0.0800 
    140 H140        2.6473  -20.4327  -47.7343 H         1 UNK         0.0800 
    141 H141        0.4304  -21.8342  -47.7727 H         1 UNK         0.0800 
    142 H142        0.2775  -23.3764  -48.5532 H         1 UNK         0.0800 
    143 H143        1.2587  -24.4963  -46.5821 H         1 UNK         0.0600 
    144 H144        1.5296  -21.7606  -45.3948 H         1 UNK         0.3000 
    145 H145        4.2372  -22.9226  -43.3368 H         1 UNK         0.0600 
    146 H146        5.2712  -20.9139  -44.3181 H         1 UNK         0.0600 
    147 H147        5.1776  -22.1734  -45.5392 H         1 UNK         0.0600 
    148 H148        4.0329  -20.8382  -45.5705 H         1 UNK         0.0600 
    149 H149        2.9688  -20.4071  -43.3716 H         1 UNK         0.3000 
    150 H150        0.5930  -21.0893  -40.7564 H         1 UNK         0.0600 
    151 H151        2.8309  -20.6785  -39.7345 H         1 UNK         0.0600 
    152 H152        1.8804  -19.2014  -39.8018 H         1 UNK         0.0600 
    153 H153        3.1837  -19.4629  -40.9570 H         1 UNK         0.0600 
    154 H154        1.2325  -18.7348  -42.2886 H         1 UNK         0.3000 
    155 H155       -1.3180  -19.2167  -44.7368 H         1 UNK         0.0600 
    156 H156       -1.1125  -17.2443  -42.3977 H         1 UNK         0.0600 
    157 H157       -2.5407  -18.1428  -42.8808 H         1 UNK         0.0600 
    158 H158       -1.8961  -16.8891  -43.9334 H         1 UNK         0.0600 
    159 H159        0.5088  -17.0910  -44.4180 H         1 UNK         0.3000 
    160 H160        3.2477  -18.5493  -46.2043 H         1 UNK         0.0600 
    161 H161        1.2810  -16.2855  -46.8591 H         1 UNK         0.0600 
    162 H162        1.7134  -17.6103  -47.9236 H         1 UNK         0.0600 
    163 H163        2.9268  -16.4298  -47.4689 H         1 UNK         0.0600 
    164 H164        2.8154  -16.0237  -44.9019 H         1 UNK         0.3000 
    165 H165        4.1540  -16.9538  -41.7223 H         1 UNK         0.0600 
    166 H166        5.6147  -15.0242  -42.2615 H         1 UNK         0.0600 
    167 H167        6.1090  -16.4296  -43.1914 H         1 UNK         0.0600 
    168 H168        5.1959  -15.1429  -43.9705 H         1 UNK         0.0600 
    169 H169        3.1298  -14.4933  -42.7639 H         1 UNK         0.3000 
    170 H170       -0.2985  -15.0093  -42.0120 H         1 UNK         0.0600 
    171 H171        0.6570  -14.3981  -39.7877 H         1 UNK         0.0600 
    172 H172        1.7618  -13.2652  -40.5570 H         1 UNK         0.0600 
    173 H173        0.0209  -12.9860  -40.6154 H         1 UNK         0.0600 
    174 H174        1.1770  -12.7310  -42.9034 H         1 UNK         0.3000 
    175 H175        0.7374  -11.9912  -45.0710 H         1 UNK         0.0600 
    176 H176        2.8109  -13.9980  -46.1660 H         1 UNK         0.0600 
    177 H177        2.8268  -12.2579  -46.4302 H         1 UNK         0.0600 
    178 H178        3.1064  -12.8969  -44.8248 H         1 UNK         0.0600 
    179 H179       -0.2468  -14.1414  -46.6465 H         1 UNK         0.3000 
    180 H180       -0.9507  -12.0973  -49.5216 H         1 UNK         0.0600 
    181 H181        0.4534  -14.8021  -49.1883 H         1 UNK         0.0600 
    182 H182        1.0312  -13.4434  -50.1393 H         1 UNK         0.0600 
    183 H183       -0.4332  -14.2825  -50.6211 H         1 UNK         0.0600 
    184 H184       -2.0098  -14.5964  -48.6522 H         1 UNK         0.3000 
    185 H185       -4.6286  -13.4893  -46.6802 H         1 UNK         0.0600 
    186 H186       -5.6147  -12.3569  -48.6445 H         1 UNK         0.0600 
    187 H187       -5.0597  -13.6375  -49.7128 H         1 UNK         0.0600 
    188 H188       -6.2854  -13.9718  -48.4897 H         1 UNK         0.0600 
    189 H189       -4.0124  -15.6293  -48.6473 H         1 UNK         0.3000 
    190 H190        0.1600  -23.8142  -44.0247 H         1 UNK         0.3000 
    191 H191       -2.4052  -22.9008  -43.9113 H         1 UNK         0.0600 
    192 H192       -1.1535  -25.1433  -42.2362 H         1 UNK         0.0600 
    193 H193       -2.5748  -24.2093  -41.7816 H         1 UNK         0.0600 
    194 H194       -1.0165  -23.4146  -41.9270 H         1 UNK         0.0600 
    195 H195       -1.5186  -26.2993  -44.5722 H         1 UNK         0.3000 
    196 H196       -4.3574  -26.9664  -45.2174 H         1 UNK         0.0600 
    197 H197       -3.5380  -29.3059  -45.1377 H         1 UNK         0.0600 
    198 H198       -3.1582  -28.4702  -43.6404 H         1 UNK         0.0600 
    199 H199       -1.8951  -28.7510  -44.8387 H         1 UNK         0.0600 
    200 H200       -1.2530  -26.3329  -46.7186 H         1 UNK         0.3000 
    201 H201       -1.7086  -27.8764  -49.1142 H         1 UNK         0.0600 
    202 H202        0.5703  -27.4831  -48.2472 H         1 UNK         0.0600 
    203 H203        0.3942  -25.7455  -48.4784 H         1 UNK         0.0600 
    204 H204        0.4127  -26.8215  -49.8662 H         1 UNK         0.0600 
    205 H205       -1.9729  -24.3880  -48.2923 H         1 UNK         0.3000 
    206 H206       -3.0713  -23.7824  -51.0013 H         1 UNK         0.0600 
    207 H207       -1.2954  -22.2591  -50.2017 H         1 UNK         0.0600 
    208 H208       -2.8382  -21.4274  -50.2950 H         1 UNK         0.0600 
    209 H209       -2.2028  -21.9202  -48.7291 H         1 UNK         0.0600 
    210 H210       -3.7506  -23.2814  -47.5181 H         1 UNK         0.3000 
    211 H211       -5.5701  -23.1163  -46.2779 H         1 UNK         0.0600 
    212 H212       -6.8812  -24.9670  -48.3371 H         1 UNK         0.0600 
    213 H213       -7.4123  -24.7122  -46.6794 H         1 UNK         0.0600 
    214 H214       -5.8665  -25.4837  -46.9907 H         1 UNK         0.0600 
    215 H215       -5.1829  -20.9285  -47.6672 H         1 UNK         0.3000 
    216 H216       -5.9766  -18.9439  -48.0629 H         1 UNK         0.0600 
    217 H217       -8.2202  -18.2520  -47.3704 H         1 UNK         0.0600 
    218 H218       -7.6152  -19.4093  -46.2016 H         1 UNK         0.0600 
    219 H219       -8.8073  -19.9055  -47.4020 H         1 UNK         0.0600 
    220 H220       -7.5816  -17.6134  -49.3900 H         1 UNK         0.3000 
    221 H221       -8.3172  -16.8530  -51.2847 H         1 UNK         0.0600 
    222 H222       -9.0982  -19.7160  -52.0357 H         1 UNK         0.0600 
    223 H223      -10.0894  -18.5789  -51.1235 H         1 UNK         0.0600 
    224 H224       -9.6817  -18.2460  -52.7995 H         1 UNK         0.0600 
    225 H225       -6.3396  -19.7315  -51.9025 H         1 UNK         0.3000 
    226 H226       -5.4941  -18.9664  -54.5549 H         1 UNK         0.0600 
    227 H227       -5.7868  -21.3282  -53.8186 H         1 UNK         0.0600 
    228 H228       -4.1514  -21.0478  -54.3890 H         1 UNK         0.0600 
    229 H229       -4.4717  -21.1447  -52.6596 H         1 UNK         0.0600 
    230 H230       -4.8882  -16.7963  -52.9453 H         1 UNK         0.3000 
    231 H231       -2.1324  -16.7486  -52.0494 H         1 UNK         0.0600 
    232 H232       -2.6110  -14.3162  -51.7194 H         1 UNK         0.0600 
    233 H233       -3.8643  -15.3271  -51.0195 H         1 UNK         0.0600 
    234 H234       -4.1500  -14.5010  -52.5517 H         1 UNK         0.0600 
    235 H235       -3.5787  -16.3748  -55.1577 H         1 UNK         0.3000 
    236 H236       -1.3479  -14.8999  -56.3860 H         1 UNK         0.0600 
    237 H237       -3.6342  -14.5491  -57.2467 H         1 UNK         0.0600 
    238 H238       -2.6517  -15.3297  -58.4762 H         1 UNK         0.0600 
    239 H239       -3.8255  -16.2718  -57.5644 H         1 UNK         0.0600 
    240 H240        0.4681  -16.1868  -55.9503 H         1 UNK         0.3000 
    241 H241        0.5472  -19.0049  -56.3574 H         1 UNK         0.0600 
    242 H242        1.4219  -17.6151  -60.0504 H         1 UNK         0.3800 
    243 H243        0.6929  -16.5841  -58.8477 H         1 UNK         0.3800 
    244 H244        2.9769  -18.8348  -55.9200 H         1 UNK         0.0800 
    245 H245        2.9232  -17.1054  -56.1260 H         1 UNK         0.0800 
    246 H246        2.7353  -20.0098  -53.6684 H         1 UNK         0.0800 
    247 H247        1.0384  -19.9650  -54.0988 H         1 UNK         0.0800 
@<TRIPOS>BOND
     1    1    2 1    
     2    1  127 1    
     3    1  128 1    
     4    1  129 1    
     5    2    3 2    
     6    2    4 am   BACKBONE|DICT|INTERRES
     7    4    5 1    
     8    4  130 1    
     9    5    6 1    
    10    5   65 1    
    11    5  131 1    
    12    6    7 1    
    13    6  132 1    
    14    6  133 1    
    15    7    8 1    
    16    8    9 1    
    17    8  134 1    
    18    8  135 1    
    19    9   10 ar   
    20    9   14 ar   
    21   10   11 ar   
    22   10  136 1    
    23   11   12 ar   
    24   11  126 1    
    25   12   13 ar   
    26   12  137 1    
    27   13   14 ar   
    28   13   15 1    
    29   14  138 1    
    30   15   16 1    
    31   15  139 1    
    32   15  140 1    
    33   16   17 1    
    34   17   18 1    
    35   17  141 1    
    36   17  142 1    
    37   18   19 1    
    38   18   67 1    
    39   18  143 1    
    40   19   20 am   BACKBONE|DICT|INTERRES
    41   19  144 1    
    42   20   21 2    
    43   20   22 1    
    44   22   23 1    
    45   22   24 1    
    46   22  145 1    
    47   23  146 1    
    48   23  147 1    
    49   23  148 1    
    50   24   25 am   BACKBONE|DICT|INTERRES
    51   24  149 1    
    52   25   26 2    
    53   25   27 1    
    54   27   28 1    
    55   27   29 1    
    56   27  150 1    
    57   28  151 1    
    58   28  152 1    
    59   28  153 1    
    60   29   30 am   BACKBONE|DICT|INTERRES
    61   29  154 1    
    62   30   31 2    
    63   30   32 1    
    64   32   33 1    
    65   32   34 1    
    66   32  155 1    
    67   33  156 1    
    68   33  157 1    
    69   33  158 1    
    70   34   35 am   BACKBONE|DICT|INTERRES
    71   34  159 1    
    72   35   36 2    
    73   35   37 1    
    74   37   38 1    
    75   37   39 1    
    76   37  160 1    
    77   38  161 1    
    78   38  162 1    
    79   38  163 1    
    80   39   40 am   BACKBONE|DICT|INTERRES
    81   39  164 1    
    82   40   41 2    
    83   40   42 1    
    84   42   43 1    
    85   42   44 1    
    86   42  165 1    
    87   43  166 1    
    88   43  167 1    
    89   43  168 1    
    90   44   45 am   BACKBONE|DICT|INTERRES
    91   44  169 1    
    92   45   46 2    
    93   45   47 1    
    94   47   48 1    
    95   47   49 1    
    96   47  170 1    
    97   48  171 1    
    98   48  172 1    
    99   48  173 1    
   100   49   50 am   BACKBONE|DICT|INTERRES
   101   49  174 1    
   102   50   51 2    
   103   50   52 1    
   104   52   53 1    
   105   52   54 1    
   106   52  175 1    
   107   53  176 1    
   108   53  177 1    
   109   53  178 1    
   110   54   55 am   BACKBONE|DICT|INTERRES
   111   54  179 1    
   112   55   56 2    
   113   55   57 1    
   114   57   58 1    
   115   57   59 1    
   116   57  180 1    
   117   58  181 1    
   118   58  182 1    
   119   58  183 1    
   120   59   60 am   BACKBONE|DICT|INTERRES
   121   59  184 1    
   122   60   61 2    
   123   60   62 1    
   124   62   63 1    
   125   62   64 1    
   126   62  185 1    
   127   63  186 1    
   128   63  187 1    
   129   63  188 1    
   130   64   65 am   BACKBONE|DICT|INTERRES
   131   64  189 1    
   132   65   66 2    
   133   67   68 2    
   134   67   69 am   BACKBONE|DICT|INTERRES
   135   69   70 1    
   136   69  190 1    
   137   70   71 1    
   138   70   72 1    
   139   70  191 1    
   140   71  192 1    
   141   71  193 1    
   142   71  194 1    
   143   72   73 2    
   144   72   74 am   BACKBONE|DICT|INTERRES
   145   74   75 1    
   146   74  195 1    
   147   75   76 1    
   148   75   77 1    
   149   75  196 1    
   150   76  197 1    
   151   76  198 1    
   152   76  199 1    
   153   77   78 2    
   154   77   79 am   BACKBONE|DICT|INTERRES
   155   79   80 1    
   156   79  200 1    
   157   80   81 1    
   158   80   82 1    
   159   80  201 1    
   160   81  202 1    
   161   81  203 1    
   162   81  204 1    
   163   82   83 2    
   164   82   84 am   BACKBONE|DICT|INTERRES
   165   84   85 1    
   166   84  205 1    
   167   85   86 1    
   168   85   87 1    
   169   85  206 1    
   170   86  207 1    
   171   86  208 1    
   172   86  209 1    
   173   87   88 2    
   174   87   89 am   BACKBONE|DICT|INTERRES
   175   89   90 1    
   176   89  210 1    
   177   90   91 1    
   178   90   92 1    
   179   90  211 1    
   180   91  212 1    
   181   91  213 1    
   182   91  214 1    
   183   92   93 2    
   184   92   94 am   BACKBONE|DICT|INTERRES
   185   94   95 1    
   186   94  215 1    
   187   95   96 1    
   188   95   97 1    
   189   95  216 1    
   190   96  217 1    
   191   96  218 1    
   192   96  219 1    
   193   97   98 2    
   194   97   99 am   BACKBONE|DICT|INTERRES
   195   99  100 1    
   196   99  220 1    
   197  100  101 1    
   198  100  102 1    
   199  100  221 1    
   200  101  222 1    
   201  101  223 1    
   202  101  224 1    
   203  102  103 2    
   204  102  104 am   BACKBONE|DICT|INTERRES
   205  104  105 1    
   206  104  225 1    
   207  105  106 1    
   208  105  107 1    
   209  105  226 1    
   210  106  227 1    
   211  106  228 1    
   212  106  229 1    
   213  107  108 2    
   214  107  109 am   BACKBONE|DICT|INTERRES
   215  109  110 1    
   216  109  230 1    
   217  110  111 1    
   218  110  112 1    
   219  110  231 1    
   220  111  232 1    
   221  111  233 1    
   222  111  234 1    
   223  112  113 2    
   224  112  114 am   BACKBONE|DICT|INTERRES
   225  114  115 1    
   226  114  235 1    
   227  115  116 1    
   228  115  117 1    
   229  115  236 1    
   230  116  237 1    
   231  116  238 1    
   232  116  239 1    
   233  117  118 2    
   234  117  119 am   BACKBONE|DICT|INTERRES
   235  119  120 1    
   236  119  240 1    
   237  120  121 1    
   238  120  124 1    
   239  120  241 1    
   240  121  122 am   BACKBONE|DICT|INTERRES
   241  121  123 2    
   242  122  242 1    
   243  122  243 1    
   244  124  125 1    
   245  124  244 1    
   246  124  245 1    
   247  125  126 1    
   248  126  246 1    
   249  126  247 1    
@<TRIPOS>SUBSTRUCTURE
     1 UNK         1 GROUP             0       ****    0 ROOT    
