@<TRIPOS>MOLECULE
3R540
247   249    1
SMALL
USER_CHARGES


@<TRIPOS>ATOM
      1 CA         -2.2812  -16.0303  -51.1430 C.3       0 UNK        -0.1800 
      2 C          -2.0509  -15.1613  -49.9180 C.2       0 UNK         0.5000 
      3 O          -2.8740  -14.2989  -49.6113 O.2       0 UNK        -0.5000 
      4 N          -0.9472  -15.3969  -49.1993 N.am      1 UNK        -0.5000 
      5 CA         -0.5021  -14.6407  -48.0202 C.3       1 UNK         0.1400 
      6 C6          1.0286  -14.7617  -47.8158 C.3       23 UNK        -0.0398 
      7 S7          1.9831  -14.2268  -49.2747 S.3       23 UNK        -0.2404 
      8 C8          3.0462  -15.6737  -49.5708 C.3       23 UNK        -0.0205 
      9 C9          2.3191  -16.8187  -50.2642 C.ar      23 UNK        -0.0193 
     10 C10         1.9546  -16.6977  -51.6080 C.ar      23 UNK        -0.1150 
     11 C11         1.3957  -17.7786  -52.2935 C.ar      23 UNK        -0.0193 
     12 C12         1.1788  -18.9812  -51.6156 C.ar      23 UNK        -0.1150 
     13 C13         1.5452  -19.1274  -50.2725 C.ar      23 UNK        -0.0193 
     14 C14         2.1021  -18.0303  -49.5985 C.ar      23 UNK        -0.1150 
     15 C15         1.4200  -20.5186  -49.6460 C.3       23 UNK        -0.0205 
     16 S16         1.6509  -20.6239  -47.8315 S.3       23 UNK        -0.2404 
     17 C17         2.1811  -22.3686  -47.6480 C.3       23 UNK        -0.0398 
     18 CA          1.3053  -23.2877  -46.7538 C.3       11 UNK         0.1400 
     19 N           1.5563  -23.0606  -45.3296 N.am      11 UNK        -0.5000 
     20 C           1.8627  -24.0185  -44.4443 C.2       10 UNK         0.5000 
     21 O           1.9685  -25.2117  -44.7366 O.2       10 UNK        -0.5000 
     22 CA          2.1100  -23.5545  -42.9936 C.3       10 UNK         0.1400 
     23 CB          2.6615  -24.6645  -42.0750 C.3       10 UNK        -0.1800 
     24 N           2.9526  -22.3588  -42.9316 N.am      10 UNK        -0.5000 
     25 C           4.2168  -22.2033  -43.3491 C.2       9 UNK         0.5000 
     26 O           4.9172  -23.1121  -43.7962 O.2       9 UNK        -0.5000 
     27 CA          4.7940  -20.7746  -43.2665 C.3       9 UNK         0.1400 
     28 CB          4.6927  -20.0879  -44.6377 C.3       9 UNK        -0.1800 
     29 N           4.1266  -19.9378  -42.2641 N.am      9 UNK        -0.5000 
     30 C           4.2520  -20.0887  -40.9372 C.2       8 UNK         0.5000 
     31 O           5.0179  -20.8962  -40.4101 O.2       8 UNK        -0.5000 
     32 CA          3.3366  -19.2204  -40.0519 C.3       8 UNK         0.1400 
     33 CB          3.9201  -17.8116  -39.8645 C.3       8 UNK        -0.1800 
     34 N           1.9790  -19.1200  -40.5896 N.am      8 UNK        -0.5000 
     35 C           1.1145  -20.1413  -40.6765 C.2       7 UNK         0.5000 
     36 O           1.3355  -21.2670  -40.2312 O.2       7 UNK        -0.5000 
     37 CA         -0.1930  -19.8785  -41.4422 C.3       7 UNK         0.1400 
     38 CB         -1.2701  -19.2742  -40.5292 C.3       7 UNK        -0.1800 
     39 N           0.0262  -19.0101  -42.5995 N.am      7 UNK        -0.5000 
     40 C           0.6113  -19.4121  -43.7361 C.2       6 UNK         0.5000 
     41 O           0.9652  -20.5696  -43.9477 O.2       6 UNK        -0.5000 
     42 CA          0.8452  -18.3544  -44.8239 C.3       6 UNK         0.1400 
     43 CB         -0.3440  -18.3466  -45.7839 C.3       6 UNK        -0.1800 
     44 N           1.0648  -17.0088  -44.2953 N.am      6 UNK        -0.5000 
     45 C           2.1415  -16.6525  -43.5832 C.2       5 UNK         0.5000 
     46 O           3.0705  -17.4187  -43.3274 O.2       5 UNK        -0.5000 
     47 CA          2.1501  -15.2269  -43.0024 C.3       5 UNK         0.1400 
     48 CB          2.5466  -14.1932  -44.0644 C.3       5 UNK        -0.1800 
     49 N           0.8730  -14.8370  -42.4007 N.am      5 UNK        -0.5000 
     50 C           0.2796  -15.4610  -41.3772 C.2       4 UNK         0.5000 
     51 O           0.7396  -16.4761  -40.8544 O.2       4 UNK        -0.5000 
     52 CA         -1.0508  -14.8914  -40.8448 C.3       4 UNK         0.1400 
     53 CB         -0.8037  -13.9721  -39.6344 C.3       4 UNK        -0.1800 
     54 N          -1.9170  -14.2390  -41.8375 N.am      4 UNK        -0.5000 
     55 C          -1.7345  -13.1018  -42.5215 C.2       3 UNK         0.5000 
     56 O          -0.6969  -12.4386  -42.4835 O.2       3 UNK        -0.5000 
     57 CA         -2.9095  -12.6608  -43.4222 C.3       3 UNK         0.1400 
     58 CB         -2.7402  -11.2255  -43.9516 C.3       3 UNK        -0.1800 
     59 N          -3.0860  -13.5585  -44.5626 N.am      3 UNK        -0.5000 
     60 C          -3.5730  -14.8056  -44.5211 C.2       2 UNK         0.5000 
     61 O          -4.0156  -15.3265  -43.4959 O.2       2 UNK        -0.5000 
     62 CA         -3.5510  -15.6168  -45.8330 C.3       2 UNK         0.1400 
     63 CB         -4.9575  -15.6784  -46.4475 C.3       2 UNK        -0.1800 
     64 N          -2.6175  -15.1280  -46.8538 N.am      2 UNK        -0.5000 
     65 C          -1.2871  -15.0206  -46.7395 C.2       1 UNK         0.5000 
     66 O          -0.6866  -15.2228  -45.6823 O.2       1 UNK        -0.5000 
     67 C          -0.2035  -23.2090  -47.0649 C.2       11 UNK         0.5000 
     68 O          -0.9947  -22.7524  -46.2356 O.2       11 UNK        -0.5000 
     69 N          -0.5738  -23.6401  -48.2797 N.am      12 UNK        -0.5000 
     70 CA         -1.9485  -23.7695  -48.7802 C.3       12 UNK         0.1400 
     71 CB         -1.8954  -24.3693  -50.1937 C.3       12 UNK        -0.1800 
     72 C          -2.7828  -22.4736  -48.7955 C.2       12 UNK         0.5000 
     73 O          -4.0055  -22.5417  -48.9326 O.2       12 UNK        -0.5000 
     74 N          -2.1334  -21.3096  -48.6738 N.am      13 UNK        -0.5000 
     75 CA         -2.7978  -20.0131  -48.5426 C.3       13 UNK         0.1400 
     76 CB         -1.8178  -18.8862  -48.8936 C.3       13 UNK        -0.1800 
     77 C          -3.4543  -19.8104  -47.1638 C.2       13 UNK         0.5000 
     78 O          -4.3784  -19.0063  -47.0633 O.2       13 UNK        -0.5000 
     79 N          -3.0408  -20.5845  -46.1470 N.am      14 UNK        -0.5000 
     80 CA         -3.7030  -20.6420  -44.8392 C.3       14 UNK         0.1400 
     81 CB         -2.8128  -21.4111  -43.8536 C.3       14 UNK        -0.1800 
     82 C          -5.0977  -21.2955  -44.9193 C.2       14 UNK         0.5000 
     83 O          -5.9857  -20.9394  -44.1453 O.2       14 UNK        -0.5000 
     84 N          -5.2672  -22.2137  -45.8811 N.am      15 UNK        -0.5000 
     85 CA         -6.5353  -22.8533  -46.2353 C.3       15 UNK         0.1400 
     86 CB         -6.2361  -24.2824  -46.7196 C.3       15 UNK        -0.1800 
     87 C          -7.3108  -22.0639  -47.3122 C.2       15 UNK         0.5000 
     88 O          -8.3852  -22.5046  -47.7209 O.2       15 UNK        -0.5000 
     89 N          -6.7439  -20.9366  -47.7721 N.am      16 UNK        -0.5000 
     90 CA         -7.2239  -20.0400  -48.8302 C.3       16 UNK         0.1400 
     91 CB         -8.5854  -19.4181  -48.4570 C.3       16 UNK        -0.1800 
     92 C          -7.2235  -20.6623  -50.2444 C.2       16 UNK         0.5000 
     93 O          -7.8020  -20.0759  -51.1604 O.2       16 UNK        -0.5000 
     94 N          -6.5590  -21.8137  -50.4166 N.am      17 UNK        -0.5000 
     95 CA         -6.3732  -22.4740  -51.7089 C.3       17 UNK         0.1400 
     96 CB         -6.1411  -23.9759  -51.4850 C.3       17 UNK        -0.1800 
     97 C          -5.2015  -21.8478  -52.4810 C.2       17 UNK         0.5000 
     98 O          -5.3089  -21.6287  -53.6887 O.2       17 UNK        -0.5000 
     99 N          -4.1105  -21.5640  -51.7521 N.am      18 UNK        -0.5000 
    100 CA        -2.9055  -20.8438  -52.1827 C.3       18 UNK         0.1400 
    101 CB        -3.2286  -19.3477  -52.3494 C.3       18 UNK        -0.1800 
    102 C         -2.2124  -21.4429  -53.4224 C.2       18 UNK         0.5000 
    103 O         -1.6737  -20.6970  -54.2382 O.2       18 UNK        -0.5000 
    104 N         -2.2578  -22.7779  -53.5517 N.am      19 UNK        -0.5000 
    105 CA        -1.7492  -23.5565  -54.6886 C.3       19 UNK         0.1400 
    106 CB        -0.2069  -23.5134  -54.7323 C.3       19 UNK        -0.1800 
    107 C         -2.4116  -23.1345  -56.0195 C.2       19 UNK         0.5000 
    108 O         -1.7211  -22.8928  -57.0106 O.2       19 UNK        -0.5000 
    109 N         -3.7488  -23.0332  -55.9825 N.am      20 UNK        -0.5000 
    110 CA        -4.6421  -22.5311  -57.0290 C.3       20 UNK         0.1400 
    111 CB        -4.5278  -23.3534  -58.3309 C.3       20 UNK        -0.1800 
    112 C         -4.4667  -21.0148  -57.2359 C.2       20 UNK         0.5000 
    113 O         -4.1011  -20.5689  -58.3260 O.2       20 UNK        -0.5000 
    114 N         -4.7302  -20.2544  -56.1617 N.am      21 UNK        -0.5000 
    115 CA        -4.7712  -18.7860  -56.1041 C.3       21 UNK         0.1400 
    116 CB        -5.9932  -18.2618  -56.8872 C.3       21 UNK        -0.1800 
    117 C         -3.4522  -18.1070  -56.5348 C.2       21 UNK         0.5000 
    118 O         -3.4808  -17.0487  -57.1660 O.2       21 UNK        -0.5000 
    119 N         -2.3227  -18.7462  -56.2070 N.am      22 UNK        -0.5000 
    120 CA        -0.9555  -18.3776  -56.6058 C.3       22 UNK         0.1400 
    121 C         -0.6755  -18.4764  -58.1388 C.2       22 UNK         0.5000 
    122 N         -1.5102  -19.1390  -58.9324 N.am      22 UNK        -0.7600 
    123 O          0.3358  -17.9727  -58.6207 O.2       22 UNK        -0.5000 
    124 C124       -0.4747  -17.0332  -55.9866 C.3       23 UNK        -0.0398 
    125 S125       -0.5293  -17.0257  -54.1598 S.3       23 UNK        -0.2404 
    126 C126        1.1247  -17.6789  -53.7881 C.3       23 UNK        -0.0205 
    127 H127       -1.4838  -16.7623  -51.2711 H         1 UNK         0.0600 
    128 H128       -3.2267  -16.5637  -51.0510 H         1 UNK         0.0600 
    129 H129       -2.3221  -15.4126  -52.0399 H         1 UNK         0.0600 
    130 H130       -0.3084  -16.1155  -49.5097 H         1 UNK         0.3000 
    131 H131       -0.7181  -13.5856  -48.2007 H         1 UNK         0.0600 
    132 H132        1.3004  -15.7834  -47.5449 H         1 UNK         0.0800 
    133 H133        1.3481  -14.1292  -46.9886 H         1 UNK         0.0800 
    134 H134        3.4889  -16.0014  -48.6288 H         1 UNK         0.0800 
    135 H135        3.8817  -15.3626  -50.1995 H         1 UNK         0.0800 
    136 H136        2.1477  -15.7722  -52.1327 H         1 UNK         0.1150 
    137 H137        0.7720  -19.8255  -52.1552 H         1 UNK         0.1150 
    138 H138        2.4230  -18.1259  -48.5718 H         1 UNK         0.1150 
    139 H139        0.4516  -20.9481  -49.9031 H         1 UNK         0.0800 
    140 H140        2.1712  -21.1415  -50.1329 H         1 UNK         0.0800 
    141 H141        3.2030  -22.3613  -47.2656 H         1 UNK         0.0800 
    142 H142        2.2626  -22.8223  -48.6360 H         1 UNK         0.0800 
    143 H143        1.5978  -24.3107  -46.9991 H         1 UNK         0.0600 
    144 H144        1.3981  -22.1155  -44.9880 H         1 UNK         0.3000 
    145 H145        1.1364  -23.2576  -42.6010 H         1 UNK         0.0600 
    146 H146        2.8038  -24.2968  -41.0587 H         1 UNK         0.0600 
    147 H147        1.9697  -25.5058  -42.0216 H         1 UNK         0.0600 
    148 H148        3.6178  -25.0495  -42.4299 H         1 UNK         0.0600 
    149 H149        2.4621  -21.5185  -42.6567 H         1 UNK         0.3000 
    150 H150        5.8496  -20.8553  -42.9992 H         1 UNK         0.0600 
    151 H151        5.2359  -20.6507  -45.3978 H         1 UNK         0.0600 
    152 H152        5.1159  -19.0836  -44.6109 H         1 UNK         0.0600 
    153 H153        3.6576  -20.0077  -44.9700 H         1 UNK         0.0600 
    154 H154        3.5411  -19.1853  -42.6151 H         1 UNK         0.3000 
    155 H155        3.2749  -19.6944  -39.0701 H         1 UNK         0.0600 
    156 H156        4.0029  -17.2776  -40.8110 H         1 UNK         0.0600 
    157 H157        4.9174  -17.8582  -39.4256 H         1 UNK         0.0600 
    158 H158        3.2978  -17.2135  -39.1984 H         1 UNK         0.0600 
    159 H159        1.6866  -18.2076  -40.9259 H         1 UNK         0.3000 
    160 H160       -0.5628  -20.8426  -41.7973 H         1 UNK         0.0600 
    161 H161       -2.2001  -19.1086  -41.0734 H         1 UNK         0.0600 
    162 H162       -0.9571  -18.3231  -40.1000 H         1 UNK         0.0600 
    163 H163       -1.4945  -19.9462  -39.7000 H         1 UNK         0.0600 
    164 H164       -0.1937  -18.0316  -42.4869 H         1 UNK         0.3000 
    165 H165        1.7331  -18.6473  -45.3869 H         1 UNK         0.0600 
    166 H166       -0.1356  -17.7217  -46.6504 H         1 UNK         0.0600 
    167 H167       -0.5443  -19.3547  -46.1455 H         1 UNK         0.0600 
    168 H168       -1.2526  -17.9830  -45.3040 H         1 UNK         0.0600 
    169 H169        0.3636  -16.3074  -44.5208 H         1 UNK         0.3000 
    170 H170        2.9054  -15.2064  -42.2141 H         1 UNK         0.0600 
    171 H171        3.4411  -14.5019  -44.6072 H         1 UNK         0.0600 
    172 H172        2.7587  -13.2262  -43.6081 H         1 UNK         0.0600 
    173 H173        1.7477  -14.0473  -44.7891 H         1 UNK         0.0600 
    174 H174        0.4390  -13.9846  -42.7404 H         1 UNK         0.3000 
    175 H175       -1.6224  -15.7493  -40.4872 H         1 UNK         0.0600 
    176 H176       -1.7432  -13.6331  -39.1979 H         1 UNK         0.0600 
    177 H177       -0.2540  -14.4981  -38.8527 H         1 UNK         0.0600 
    178 H178       -0.2206  -13.0910  -39.9039 H         1 UNK         0.0600 
    179 H179       -2.7738  -14.7423  -42.0488 H         1 UNK         0.3000 
    180 H180       -3.8163  -12.6858  -42.8142 H         1 UNK         0.0600 
    181 H181       -1.8659  -11.1331  -44.5972 H         1 UNK         0.0600 
    182 H182       -2.6193  -10.5179  -43.1304 H         1 UNK         0.0600 
    183 H183       -3.6135  -10.9110  -44.5233 H         1 UNK         0.0600 
    184 H184       -2.7209  -13.2338  -45.4452 H         1 UNK         0.3000 
    185 H185       -3.2496  -16.6337  -45.5761 H         1 UNK         0.0600 
    186 H186       -5.3138  -14.6886  -46.7353 H         1 UNK         0.0600 
    187 H187       -4.9732  -16.3116  -47.3348 H         1 UNK         0.0600 
    188 H188       -5.6758  -16.0966  -45.7410 H         1 UNK         0.0600 
    189 H189       -3.0155  -14.9026  -47.7606 H         1 UNK         0.3000 
    190 H190        0.1416  -23.9940  -48.8981 H         1 UNK         0.3000 
    191 H191       -2.4714  -24.4711  -48.1273 H         1 UNK         0.0600 
    192 H192       -1.4140  -25.3474  -50.1885 H         1 UNK         0.0600 
    193 H193       -1.3422  -23.7281  -50.8809 H         1 UNK         0.0600 
    194 H194       -2.8960  -24.5096  -50.6036 H         1 UNK         0.0600 
    195 H195       -1.1349  -21.3312  -48.5297 H         1 UNK         0.3000 
    196 H196       -3.6132  -19.9675  -49.2668 H         1 UNK         0.0600 
    197 H197       -2.2186  -17.9123  -48.6117 H         1 UNK         0.0600 
    198 H198       -1.6186  -18.8611  -49.9638 H         1 UNK         0.0600 
    199 H199       -0.8592  -19.0101  -48.3981 H         1 UNK         0.0600 
    200 H200       -2.2810  -21.2438  -46.2912 H         1 UNK         0.3000 
    201 H201       -3.8236  -19.6206  -44.4715 H         1 UNK         0.0600 
    202 H202       -1.8048  -21.0032  -43.8379 H         1 UNK         0.0600 
    203 H203       -2.7360  -22.4666  -44.1172 H         1 UNK         0.0600 
    204 H204       -3.2089  -21.3516  -42.8393 H         1 UNK         0.0600 
    205 H205       -4.4811  -22.4340  -46.4759 H         1 UNK         0.3000 
    206 H206       -7.1735  -22.9178  -45.3517 H         1 UNK         0.0600 
    207 H207       -5.6987  -24.8514  -45.9607 H         1 UNK         0.0600 
    208 H208       -7.1574  -24.8245  -46.9365 H         1 UNK         0.0600 
    209 H209       -5.6342  -24.2843  -47.6290 H         1 UNK         0.0600 
    210 H210       -5.8737  -20.6503  -47.3443 H         1 UNK         0.3000 
    211 H211       -6.5001  -19.2251  -48.8725 H         1 UNK         0.0600 
    212 H212       -9.3883  -20.1554  -48.4745 H         1 UNK         0.0600 
    213 H213       -8.8581  -18.6252  -49.1543 H         1 UNK         0.0600 
    214 H214       -8.5564  -18.9751  -47.4615 H         1 UNK         0.0600 
    215 H215       -6.0717  -22.2135  -49.6246 H         1 UNK         0.3000 
    216 H216       -7.2765  -22.3565  -52.3115 H         1 UNK         0.0600 
    217 H217       -5.9766  -24.4928  -52.4313 H         1 UNK         0.0600 
    218 H218       -7.0066  -24.4373  -51.0092 H         1 UNK         0.0600 
    219 H219       -5.2755  -24.1644  -50.8499 H         1 UNK         0.0600 
    220 H220       -4.1393  -21.8237  -50.7720 H         1 UNK         0.3000 
    221 H221       -2.1772  -20.9333  -51.3782 H         1 UNK         0.0600 
    222 H222       -3.9046  -19.1766  -53.1837 H         1 UNK         0.0600 
    223 H223       -3.6999  -18.9409  -51.4559 H         1 UNK         0.0600 
    224 H224       -2.3236  -18.7692  -52.5331 H         1 UNK         0.0600 
    225 H225       -2.7454  -23.3033  -52.8414 H         1 UNK         0.3000 
    226 H226       -2.0434  -24.5925  -54.5142 H         1 UNK         0.0600 
    227 H227        0.2228  -23.8312  -53.7823 H         1 UNK         0.0600 
    228 H228        0.1794  -24.1815  -55.5028 H         1 UNK         0.0600 
    229 H229        0.1675  -22.5130  -54.9513 H         1 UNK         0.0600 
    230 H230       -4.1974  -23.1889  -55.0899 H         1 UNK         0.3000 
    231 H231       -5.6564  -22.6720  -56.6522 H         1 UNK         0.0600 
    232 H232       -4.6679  -24.4171  -58.1391 H         1 UNK         0.0600 
    233 H233       -3.5618  -23.2242  -58.8191 H         1 UNK         0.0600 
    234 H234       -5.2923  -23.0486  -59.0463 H         1 UNK         0.0600 
    235 H235       -4.9733  -20.7300  -55.2946 H         1 UNK         0.3000 
    236 H236       -4.9249  -18.5187  -55.0596 H         1 UNK         0.0600 
    237 H237       -6.1187  -17.1876  -56.7466 H         1 UNK         0.0600 
    238 H238       -5.8948  -18.4429  -57.9580 H         1 UNK         0.0600 
    239 H239       -6.9125  -18.7400  -56.5490 H         1 UNK         0.0600 
    240 H240       -2.3763  -19.5889  -55.6423 H         1 UNK         0.3000 
    241 H241       -0.3269  -19.1605  -56.1810 H         1 UNK         0.0600 
    242 H242       -1.3073  -19.2033  -59.9170 H         1 UNK         0.3800 
    243 H243       -2.3517  -19.5736  -58.5676 H         1 UNK         0.3800 
    244 H244        0.5461  -16.8058  -56.2974 H         1 UNK         0.0800 
    245 H245       -1.0841  -16.2061  -56.3519 H         1 UNK         0.0800 
    246 H246        1.8776  -17.0405  -54.2530 H         1 UNK         0.0800 
    247 H247        1.2312  -18.6620  -54.2493 H         1 UNK         0.0800 
@<TRIPOS>BOND
     1    1    2 1    
     2    1  127 1    
     3    1  128 1    
     4    1  129 1    
     5    2    3 2    
     6    2    4 am   BACKBONE|DICT|INTERRES
     7    4    5 1    
     8    4  130 1    
     9    5    6 1    
    10    5   65 1    
    11    5  131 1    
    12    6    7 1    
    13    6  132 1    
    14    6  133 1    
    15    7    8 1    
    16    8    9 1    
    17    8  134 1    
    18    8  135 1    
    19    9   10 ar   
    20    9   14 ar   
    21   10   11 ar   
    22   10  136 1    
    23   11   12 ar   
    24   11  126 1    
    25   12   13 ar   
    26   12  137 1    
    27   13   14 ar   
    28   13   15 1    
    29   14  138 1    
    30   15   16 1    
    31   15  139 1    
    32   15  140 1    
    33   16   17 1    
    34   17   18 1    
    35   17  141 1    
    36   17  142 1    
    37   18   19 1    
    38   18   67 1    
    39   18  143 1    
    40   19   20 am   BACKBONE|DICT|INTERRES
    41   19  144 1    
    42   20   21 2    
    43   20   22 1    
    44   22   23 1    
    45   22   24 1    
    46   22  145 1    
    47   23  146 1    
    48   23  147 1    
    49   23  148 1    
    50   24   25 am   BACKBONE|DICT|INTERRES
    51   24  149 1    
    52   25   26 2    
    53   25   27 1    
    54   27   28 1    
    55   27   29 1    
    56   27  150 1    
    57   28  151 1    
    58   28  152 1    
    59   28  153 1    
    60   29   30 am   BACKBONE|DICT|INTERRES
    61   29  154 1    
    62   30   31 2    
    63   30   32 1    
    64   32   33 1    
    65   32   34 1    
    66   32  155 1    
    67   33  156 1    
    68   33  157 1    
    69   33  158 1    
    70   34   35 am   BACKBONE|DICT|INTERRES
    71   34  159 1    
    72   35   36 2    
    73   35   37 1    
    74   37   38 1    
    75   37   39 1    
    76   37  160 1    
    77   38  161 1    
    78   38  162 1    
    79   38  163 1    
    80   39   40 am   BACKBONE|DICT|INTERRES
    81   39  164 1    
    82   40   41 2    
    83   40   42 1    
    84   42   43 1    
    85   42   44 1    
    86   42  165 1    
    87   43  166 1    
    88   43  167 1    
    89   43  168 1    
    90   44   45 am   BACKBONE|DICT|INTERRES
    91   44  169 1    
    92   45   46 2    
    93   45   47 1    
    94   47   48 1    
    95   47   49 1    
    96   47  170 1    
    97   48  171 1    
    98   48  172 1    
    99   48  173 1    
   100   49   50 am   BACKBONE|DICT|INTERRES
   101   49  174 1    
   102   50   51 2    
   103   50   52 1    
   104   52   53 1    
   105   52   54 1    
   106   52  175 1    
   107   53  176 1    
   108   53  177 1    
   109   53  178 1    
   110   54   55 am   BACKBONE|DICT|INTERRES
   111   54  179 1    
   112   55   56 2    
   113   55   57 1    
   114   57   58 1    
   115   57   59 1    
   116   57  180 1    
   117   58  181 1    
   118   58  182 1    
   119   58  183 1    
   120   59   60 am   BACKBONE|DICT|INTERRES
   121   59  184 1    
   122   60   61 2    
   123   60   62 1    
   124   62   63 1    
   125   62   64 1    
   126   62  185 1    
   127   63  186 1    
   128   63  187 1    
   129   63  188 1    
   130   64   65 am   BACKBONE|DICT|INTERRES
   131   64  189 1    
   132   65   66 2    
   133   67   68 2    
   134   67   69 am   BACKBONE|DICT|INTERRES
   135   69   70 1    
   136   69  190 1    
   137   70   71 1    
   138   70   72 1    
   139   70  191 1    
   140   71  192 1    
   141   71  193 1    
   142   71  194 1    
   143   72   73 2    
   144   72   74 am   BACKBONE|DICT|INTERRES
   145   74   75 1    
   146   74  195 1    
   147   75   76 1    
   148   75   77 1    
   149   75  196 1    
   150   76  197 1    
   151   76  198 1    
   152   76  199 1    
   153   77   78 2    
   154   77   79 am   BACKBONE|DICT|INTERRES
   155   79   80 1    
   156   79  200 1    
   157   80   81 1    
   158   80   82 1    
   159   80  201 1    
   160   81  202 1    
   161   81  203 1    
   162   81  204 1    
   163   82   83 2    
   164   82   84 am   BACKBONE|DICT|INTERRES
   165   84   85 1    
   166   84  205 1    
   167   85   86 1    
   168   85   87 1    
   169   85  206 1    
   170   86  207 1    
   171   86  208 1    
   172   86  209 1    
   173   87   88 2    
   174   87   89 am   BACKBONE|DICT|INTERRES
   175   89   90 1    
   176   89  210 1    
   177   90   91 1    
   178   90   92 1    
   179   90  211 1    
   180   91  212 1    
   181   91  213 1    
   182   91  214 1    
   183   92   93 2    
   184   92   94 am   BACKBONE|DICT|INTERRES
   185   94   95 1    
   186   94  215 1    
   187   95   96 1    
   188   95   97 1    
   189   95  216 1    
   190   96  217 1    
   191   96  218 1    
   192   96  219 1    
   193   97   98 2    
   194   97   99 am   BACKBONE|DICT|INTERRES
   195   99  100 1    
   196   99  220 1    
   197  100  101 1    
   198  100  102 1    
   199  100  221 1    
   200  101  222 1    
   201  101  223 1    
   202  101  224 1    
   203  102  103 2    
   204  102  104 am   BACKBONE|DICT|INTERRES
   205  104  105 1    
   206  104  225 1    
   207  105  106 1    
   208  105  107 1    
   209  105  226 1    
   210  106  227 1    
   211  106  228 1    
   212  106  229 1    
   213  107  108 2    
   214  107  109 am   BACKBONE|DICT|INTERRES
   215  109  110 1    
   216  109  230 1    
   217  110  111 1    
   218  110  112 1    
   219  110  231 1    
   220  111  232 1    
   221  111  233 1    
   222  111  234 1    
   223  112  113 2    
   224  112  114 am   BACKBONE|DICT|INTERRES
   225  114  115 1    
   226  114  235 1    
   227  115  116 1    
   228  115  117 1    
   229  115  236 1    
   230  116  237 1    
   231  116  238 1    
   232  116  239 1    
   233  117  118 2    
   234  117  119 am   BACKBONE|DICT|INTERRES
   235  119  120 1    
   236  119  240 1    
   237  120  121 1    
   238  120  124 1    
   239  120  241 1    
   240  121  122 am   BACKBONE|DICT|INTERRES
   241  121  123 2    
   242  122  242 1    
   243  122  243 1    
   244  124  125 1    
   245  124  244 1    
   246  124  245 1    
   247  125  126 1    
   248  126  246 1    
   249  126  247 1    
@<TRIPOS>SUBSTRUCTURE
     1 UNK         1 GROUP             0       ****    0 ROOT    
