@<TRIPOS>MOLECULE
3R540
247   249    1
SMALL
USER_CHARGES


@<TRIPOS>ATOM
      1 CA          5.0996  -18.2309  -48.0248 C.3       0 UNK        -0.1800 
      2 C           4.2662  -17.2948  -48.8860 C.2       0 UNK         0.5000 
      3 O           3.7451  -16.2978  -48.3834 O.2       0 UNK        -0.5000 
      4 N           4.1522  -17.5938  -50.1873 N.am      1 UNK        -0.5000 
      5 CA          3.2810  -16.8990  -51.1506 C.3       1 UNK         0.1400 
      6 C6          2.8332  -17.7995  -52.3325 C.3       23 UNK        -0.0398 
      7 S7          2.1584  -19.4147  -51.7973 S.3       23 UNK        -0.2404 
      8 C8          0.3945  -19.0380  -51.5100 C.3       23 UNK        -0.0205 
      9 C9          0.1887  -17.9940  -50.4201 C.ar      23 UNK        -0.0193 
     10 C10        -0.4392  -16.7786  -50.7110 C.ar      23 UNK        -0.1150 
     11 C11        -0.6041  -15.8063  -49.7192 C.ar      23 UNK        -0.0193 
     12 C12        -0.1240  -16.0530  -48.4299 C.ar      23 UNK        -0.1150 
     13 C13         0.5171  -17.2566  -48.1305 C.ar      23 UNK        -0.0193 
     14 C14         0.6582  -18.2280  -49.1253 C.ar      23 UNK        -0.1150 
     15 C15         1.0576  -17.5102  -46.7320 C.3       23 UNK        -0.0205 
     16 S16        -0.2643  -17.8351  -45.5236 S.3       23 UNK        -0.2404 
     17 C17        -1.2435  -19.1219  -46.3638 C.3       23 UNK        -0.0398 
     18 CA         -0.5249  -20.4857  -46.4554 C.3       11 UNK         0.1400 
     19 N          -0.0829  -21.0019  -45.1597 N.am      11 UNK        -0.5000 
     20 C           0.7784  -22.0161  -45.0016 C.2       10 UNK         0.5000 
     21 O           1.3268  -22.5973  -45.9378 O.2       10 UNK        -0.5000 
     22 CA          1.0348  -22.4870  -43.5574 C.3       10 UNK         0.1400 
     23 CB          2.1527  -21.6537  -42.9133 C.3       10 UNK        -0.1800 
     24 N          -0.1641  -22.4139  -42.7200 N.am      10 UNK        -0.5000 
     25 C          -1.2720  -23.1460  -42.9085 C.2       9 UNK         0.5000 
     26 O          -1.3703  -24.0245  -43.7649 O.2       9 UNK        -0.5000 
     27 CA         -2.4950  -22.7873  -42.0384 C.3       9 UNK         0.1400 
     28 CB         -2.4838  -23.5959  -40.7330 C.3       9 UNK        -0.1800 
     29 N          -2.5863  -21.3553  -41.7243 N.am      9 UNK        -0.5000 
     30 C          -2.6897  -20.3829  -42.6412 C.2       8 UNK         0.5000 
     31 O          -2.7576  -20.6118  -43.8508 O.2       8 UNK        -0.5000 
     32 CA         -2.6341  -18.9317  -42.1175 C.3       8 UNK         0.1400 
     33 CB         -1.2877  -18.6532  -41.4263 C.3       8 UNK        -0.1800 
     34 N          -2.8006  -17.9406  -43.1809 N.am      8 UNK        -0.5000 
     35 C          -3.9465  -17.6516  -43.8091 C.2       7 UNK         0.5000 
     36 O          -5.0336  -18.1544  -43.5177 O.2       7 UNK        -0.5000 
     37 CA         -3.8372  -16.6065  -44.9426 C.3       7 UNK         0.1400 
     38 CB         -5.2038  -16.2074  -45.5378 C.3       7 UNK        -0.1800 
     39 N          -3.0693  -15.4157  -44.5552 N.am      7 UNK        -0.5000 
     40 C          -3.3523  -14.5600  -43.5626 C.2       6 UNK         0.5000 
     41 O          -4.3020  -14.6923  -42.7884 O.2       6 UNK        -0.5000 
     42 CA         -2.3964  -13.3594  -43.4117 C.3       6 UNK         0.1400 
     43 CB         -2.9088  -12.3152  -42.4026 C.3       6 UNK        -0.1800 
     44 N          -1.0584  -13.7846  -43.0020 N.am      6 UNK        -0.5000 
     45 C          -0.1064  -14.2345  -43.8258 C.2       5 UNK         0.5000 
     46 O          -0.2653  -14.3813  -45.0415 O.2       5 UNK        -0.5000 
     47 CA          1.2430  -14.5743  -43.1776 C.3       5 UNK         0.1400 
     48 CB          1.2058  -15.9310  -42.4533 C.3       5 UNK        -0.1800 
     49 N           2.2649  -14.5902  -44.2151 N.am      5 UNK        -0.5000 
     50 C           3.5567  -14.2894  -44.0469 C.2       4 UNK         0.5000 
     51 O           4.0618  -14.0404  -42.9512 O.2       4 UNK        -0.5000 
     52 CA          4.4394  -14.2476  -45.3112 C.3       4 UNK         0.1400 
     53 CB          5.2640  -15.5381  -45.4304 C.3       4 UNK        -0.1800 
     54 N           3.6895  -14.0533  -46.5545 N.am      4 UNK        -0.5000 
     55 C           3.0370  -12.9337  -46.8994 C.2       3 UNK         0.5000 
     56 O           3.0037  -11.9158  -46.2058 O.2       3 UNK        -0.5000 
     57 CA          2.3186  -12.9848  -48.2585 C.3       3 UNK         0.1400 
     58 CB          1.5740  -11.6863  -48.6327 C.3       3 UNK        -0.1800 
     59 N           3.2319  -13.4298  -49.3127 N.am      3 UNK        -0.5000 
     60 C           4.2603  -12.7701  -49.8720 C.2       2 UNK         0.5000 
     61 O           4.5339  -11.5941  -49.6310 O.2       2 UNK        -0.5000 
     62 CA          5.1566  -13.5656  -50.8546 C.3       2 UNK         0.1400 
     63 CB          6.6400  -13.4535  -50.4637 C.3       2 UNK        -0.1800 
     64 N           4.8000  -14.9846  -50.8977 N.am      2 UNK        -0.5000 
     65 C           3.7970  -15.5152  -51.6073 C.2       1 UNK         0.5000 
     66 O           3.2312  -14.9204  -52.5248 O.2       1 UNK        -0.5000 
     67 C          -1.4296  -21.4984  -47.1698 C.2       11 UNK         0.5000 
     68 O          -1.2653  -21.7113  -48.3684 O.2       11 UNK        -0.5000 
     69 N          -2.3427  -22.1276  -46.4168 N.am      12 UNK        -0.5000 
     70 CA         -3.2162  -23.1889  -46.9140 C.3       12 UNK         0.1400 
     71 CB         -4.2720  -23.5388  -45.8565 C.3       12 UNK        -0.1800 
     72 C          -2.4332  -24.4361  -47.3605 C.2       12 UNK         0.5000 
     73 O          -2.7628  -25.0202  -48.3917 O.2       12 UNK        -0.5000 
     74 N          -1.3800  -24.7932  -46.6120 N.am      13 UNK        -0.5000 
     75 CA         -0.4345  -25.8494  -46.9722 C.3       13 UNK         0.1400 
     76 CB          0.5175  -26.1201  -45.7976 C.3       13 UNK        -0.1800 
     77 C           0.3451  -25.5220  -48.2603 C.2       13 UNK         0.5000 
     78 O           0.4122  -26.3662  -49.1546 O.2       13 UNK        -0.5000 
     79 N           0.8738  -24.2921  -48.3561 N.am      14 UNK        -0.5000 
     80 CA          1.5841  -23.7763  -49.5317 C.3       14 UNK         0.1400 
     81 CB          2.1797  -22.3969  -49.2084 C.3       14 UNK        -0.1800 
     82 C           0.7010  -23.7038  -50.7935 C.2       14 UNK         0.5000 
     83 O           1.1728  -24.0135  -51.8877 O.2       14 UNK        -0.5000 
     84 N          -0.5724  -23.3357  -50.6088 N.am      15 UNK        -0.5000 
     85 CA         -1.5978  -23.2566  -51.6490 C.3       15 UNK         0.1400 
     86 CB         -2.6585  -22.2400  -51.2056 C.3       15 UNK        -0.1800 
     87 C          -2.2443  -24.6152  -51.9953 C.2       15 UNK         0.5000 
     88 O          -3.1594  -24.6425  -52.8184 O.2       15 UNK        -0.5000 
     89 N          -1.7761  -25.7096  -51.3759 N.am      16 UNK        -0.5000 
     90 CA         -2.2033  -27.0971  -51.5818 C.3       16 UNK         0.1400 
     91 CB         -1.8326  -27.5795  -53.0001 C.3       16 UNK        -0.1800 
     92 C          -3.6868  -27.3299  -51.2255 C.2       16 UNK         0.5000 
     93 O          -4.4398  -27.8963  -52.0194 O.2       16 UNK        -0.5000 
     94 N          -4.0638  -26.8805  -50.0215 N.am      17 UNK        -0.5000 
     95 CA         -5.3715  -26.9988  -49.3662 C.3       17 UNK         0.1400 
     96 CB         -5.8697  -28.4588  -49.3168 C.3       17 UNK        -0.1800 
     97 C          -6.4427  -26.0202  -49.8863 C.2       17 UNK         0.5000 
     98 O          -7.5850  -26.0844  -49.4275 O.2       17 UNK        -0.5000 
     99 N          -6.0659  -25.0979  -50.7815 N.am      18 UNK        -0.5000 
    100 CA        -6.8634  -23.9184  -51.1186 C.3       18 UNK         0.1400 
    101 CB        -6.3909  -23.3593  -52.4687 C.3       18 UNK        -0.1800 
    102 C         -6.7332  -22.8553  -50.0110 C.2       18 UNK         0.5000 
    103 O         -5.7675  -22.8784  -49.2446 O.2       18 UNK        -0.5000 
    104 N         -7.6871  -21.9190  -49.9522 N.am      19 UNK        -0.5000 
    105 CA        -7.7290  -20.8217  -48.9801 C.3       19 UNK         0.1400 
    106 CB        -9.1731  -20.2961  -48.8928 C.3       19 UNK        -0.1800 
    107 C         -6.7127  -19.7102  -49.3221 C.2       19 UNK         0.5000 
    108 O         -7.1064  -18.6035  -49.6932 O.2       19 UNK        -0.5000 
    109 N         -5.4189  -20.0534  -49.2570 N.am      20 UNK        -0.5000 
    110 CA        -4.2186  -19.2596  -49.5661 C.3       20 UNK         0.1400 
    111 CB        -4.1198  -18.0187  -48.6607 C.3       20 UNK        -0.1800 
    112 C         -4.0483  -18.8813  -51.0536 C.2       20 UNK         0.5000 
    113 O         -2.9132  -18.7524  -51.5066 O.2       20 UNK        -0.5000 
    114 N         -5.1582  -18.7462  -51.7926 N.am      21 UNK        -0.5000 
    115 CA        -5.2443  -18.4195  -53.2190 C.3       21 UNK         0.1400 
    116 CB        -4.6565  -19.5603  -54.0774 C.3       21 UNK        -0.1800 
    117 C         -4.6460  -17.0339  -53.5439 C.2       21 UNK         0.5000 
    118 O         -3.9331  -16.8767  -54.5375 O.2       21 UNK        -0.5000 
    119 N         -4.9570  -16.0507  -52.6933 N.am      22 UNK        -0.5000 
    120 CA        -4.5188  -14.6558  -52.8049 C.3       22 UNK         0.1400 
    121 C         -5.6046  -13.6686  -52.2932 C.2       22 UNK         0.5000 
    122 N         -5.4439  -12.3757  -52.5430 N.am      22 UNK        -0.7600 
    123 O         -6.5952  -14.0565  -51.6757 O.2       22 UNK        -0.5000 
    124 C124       -3.1219  -14.4303  -52.1636 C.3       23 UNK        -0.0398 
    125 S125       -3.0615  -14.6840  -50.3532 S.3       23 UNK        -0.2404 
    126 C126       -1.2790  -14.4812  -50.0396 C.3       23 UNK        -0.0205 
    127 H127        5.4326  -19.1057  -48.5836 H         1 UNK         0.0600 
    128 H128        4.5124  -18.5750  -47.1735 H         1 UNK         0.0600 
    129 H129        5.9792  -17.7103  -47.6470 H         1 UNK         0.0600 
    130 H130        4.6157  -18.4166  -50.5457 H         1 UNK         0.3000 
    131 H131        2.3807  -16.6347  -50.6012 H         1 UNK         0.0600 
    132 H132        2.0788  -17.2953  -52.9391 H         1 UNK         0.0800 
    133 H133        3.6776  -17.9925  -52.9958 H         1 UNK         0.0800 
    134 H134       -0.0649  -18.7194  -52.4470 H         1 UNK         0.0800 
    135 H135       -0.1176  -19.9548  -51.2146 H         1 UNK         0.0800 
    136 H136       -0.8051  -16.5918  -51.7101 H         1 UNK         0.1150 
    137 H137       -0.2473  -15.3110  -47.6534 H         1 UNK         0.1150 
    138 H138        1.1605  -19.1588  -48.9062 H         1 UNK         0.1150 
    139 H139        1.7561  -18.3480  -46.7345 H         1 UNK         0.0800 
    140 H140        1.6310  -16.6424  -46.4048 H         1 UNK         0.0800 
    141 H141       -1.5190  -18.7672  -47.3573 H         1 UNK         0.0800 
    142 H142       -2.1875  -19.2196  -45.8313 H         1 UNK         0.0800 
    143 H143        0.3645  -20.3593  -47.0738 H         1 UNK         0.0600 
    144 H144       -0.5415  -20.6128  -44.3491 H         1 UNK         0.3000 
    145 H145        1.3594  -23.5288  -43.5976 H         1 UNK         0.0600 
    146 H146        3.0672  -21.7044  -43.5060 H         1 UNK         0.0600 
    147 H147        1.8750  -20.6022  -42.8280 H         1 UNK         0.0600 
    148 H148        2.3931  -22.0203  -41.9152 H         1 UNK         0.0600 
    149 H149       -0.1663  -21.7211  -41.9865 H         1 UNK         0.3000 
    150 H150       -3.3893  -23.0607  -42.6020 H         1 UNK         0.0600 
    151 H151       -3.3876  -23.4169  -40.1502 H         1 UNK         0.0600 
    152 H152       -1.6254  -23.3434  -40.1093 H         1 UNK         0.0600 
    153 H153       -2.4377  -24.6664  -40.9377 H         1 UNK         0.0600 
    154 H154       -2.5358  -21.1060  -40.7470 H         1 UNK         0.3000 
    155 H155       -3.4393  -18.8034  -41.3914 H         1 UNK         0.0600 
    156 H156       -1.1245  -19.3175  -40.5772 H         1 UNK         0.0600 
    157 H157       -1.2513  -17.6344  -41.0404 H         1 UNK         0.0600 
    158 H158       -0.4483  -18.7814  -42.1115 H         1 UNK         0.0600 
    159 H159       -1.9564  -17.4984  -43.5141 H         1 UNK         0.3000 
    160 H160       -3.2679  -17.0796  -45.7416 H         1 UNK         0.0600 
    161 H161       -5.7329  -17.0803  -45.9220 H         1 UNK         0.0600 
    162 H162       -5.0823  -15.5129  -46.3693 H         1 UNK         0.0600 
    163 H163       -5.8486  -15.7352  -44.7962 H         1 UNK         0.0600 
    164 H164       -2.2261  -15.2367  -45.0906 H         1 UNK         0.3000 
    165 H165       -2.3347  -12.8692  -44.3859 H         1 UNK         0.0600 
    166 H166       -2.2496  -11.4478  -42.3651 H         1 UNK         0.0600 
    167 H167       -3.9000  -11.9553  -42.6816 H         1 UNK         0.0600 
    168 H168       -2.9792  -12.7262  -41.3947 H         1 UNK         0.0600 
    169 H169       -0.8609  -13.7267  -42.0133 H         1 UNK         0.3000 
    170 H170        1.4735  -13.7862  -42.4575 H         1 UNK         0.0600 
    171 H171        2.1549  -16.1389  -41.9592 H         1 UNK         0.0600 
    172 H172        0.4327  -15.9456  -41.6850 H         1 UNK         0.0600 
    173 H173        1.0051  -16.7512  -43.1412 H         1 UNK         0.0600 
    174 H174        1.9035  -14.7244  -45.1503 H         1 UNK         0.3000 
    175 H175        5.1298  -13.4089  -45.2008 H         1 UNK         0.0600 
    176 H176        4.6227  -16.4118  -45.5537 H         1 UNK         0.0600 
    177 H177        5.9418  -15.4953  -46.2830 H         1 UNK         0.0600 
    178 H178        5.8720  -15.6994  -44.5394 H         1 UNK         0.0600 
    179 H179        3.6796  -14.8420  -47.1978 H         1 UNK         0.3000 
    180 H180        1.5647  -13.7665  -48.1686 H         1 UNK         0.0600 
    181 H181        1.0890  -11.7768  -49.6046 H         1 UNK         0.0600 
    182 H182        2.2395  -10.8237  -48.6663 H         1 UNK         0.0600 
    183 H183        0.7962  -11.4654  -47.9009 H         1 UNK         0.0600 
    184 H184        3.1611  -14.4140  -49.5316 H         1 UNK         0.3000 
    185 H185        5.0273  -13.1280  -51.8465 H         1 UNK         0.0600 
    186 H186        6.8216  -13.8437  -49.4613 H         1 UNK         0.0600 
    187 H187        7.2736  -14.0047  -51.1588 H         1 UNK         0.0600 
    188 H188        6.9737  -12.4152  -50.4779 H         1 UNK         0.0600 
    189 H189        5.1822  -15.5556  -50.1567 H         1 UNK         0.3000 
    190 H190       -2.4395  -21.8612  -45.4425 H         1 UNK         0.3000 
    191 H191       -3.7280  -22.7949  -47.7910 H         1 UNK         0.0600 
    192 H192       -3.8208  -23.9552  -44.9560 H         1 UNK         0.0600 
    193 H193       -4.9760  -24.2765  -46.2438 H         1 UNK         0.0600 
    194 H194       -4.8480  -22.6591  -45.5689 H         1 UNK         0.0600 
    195 H195       -1.2158  -24.3073  -45.7362 H         1 UNK         0.3000 
    196 H196       -1.0091  -26.7599  -47.1549 H         1 UNK         0.0600 
    197 H197        1.2053  -26.9330  -46.0333 H         1 UNK         0.0600 
    198 H198       -0.0342  -26.4090  -44.9028 H         1 UNK         0.0600 
    199 H199        1.1174  -25.2447  -45.5505 H         1 UNK         0.0600 
    200 H200        0.8040  -23.6656  -47.5602 H         1 UNK         0.3000 
    201 H201        2.4082  -24.4602  -49.7444 H         1 UNK         0.0600 
    202 H202        2.8526  -22.4465  -48.3524 H         1 UNK         0.0600 
    203 H203        1.4033  -21.6661  -48.9825 H         1 UNK         0.0600 
    204 H204        2.7541  -22.0127  -50.0521 H         1 UNK         0.0600 
    205 H205       -0.8553  -23.0263  -49.6823 H         1 UNK         0.3000 
    206 H206       -1.1342  -22.8782  -52.5622 H         1 UNK         0.0600 
    207 H207       -3.3521  -22.0135  -52.0146 H         1 UNK         0.0600 
    208 H208       -3.2360  -22.6044  -50.3553 H         1 UNK         0.0600 
    209 H209       -2.1914  -21.3000  -50.9163 H         1 UNK         0.0600 
    210 H210       -1.0469  -25.5814  -50.6852 H         1 UNK         0.3000 
    211 H211       -1.6265  -27.6963  -50.8757 H         1 UNK         0.0600 
    212 H212       -2.3971  -27.0537  -53.7706 H         1 UNK         0.0600 
    213 H213       -2.0378  -28.6444  -53.1153 H         1 UNK         0.0600 
    214 H214       -0.7717  -27.4306  -53.2013 H         1 UNK         0.0600 
    215 H215       -3.3889  -26.3337  -49.4875 H         1 UNK         0.3000 
    216 H216       -5.1902  -26.6941  -48.3344 H         1 UNK         0.0600 
    217 H217       -6.7309  -28.5535  -48.6544 H         1 UNK         0.0600 
    218 H218       -5.0971  -29.1283  -48.9387 H         1 UNK         0.0600 
    219 H219       -6.1789  -28.8184  -50.2982 H         1 UNK         0.0600 
    220 H220       -5.1034  -25.0961  -51.0884 H         1 UNK         0.3000 
    221 H221       -7.9132  -24.2053  -51.2087 H         1 UNK         0.0600 
    222 H222       -5.3543  -23.0295  -52.4270 H         1 UNK         0.0600 
    223 H223       -6.4691  -24.1100  -53.2553 H         1 UNK         0.0600 
    224 H224       -6.9939  -22.5035  -52.7745 H         1 UNK         0.0600 
    225 H225       -8.4341  -21.9388  -50.6315 H         1 UNK         0.3000 
    226 H226       -7.4616  -21.2129  -47.9959 H         1 UNK         0.0600 
    227 H227       -9.8598  -21.0818  -48.5773 H         1 UNK         0.0600 
    228 H228       -9.2514  -19.4873  -48.1650 H         1 UNK         0.0600 
    229 H229       -9.5222  -19.9108  -49.8517 H         1 UNK         0.0600 
    230 H230       -5.2409  -21.0316  -49.0447 H         1 UNK         0.3000 
    231 H231       -3.3747  -19.9046  -49.3172 H         1 UNK         0.0600 
    232 H232       -4.9105  -17.2969  -48.8665 H         1 UNK         0.0600 
    233 H233       -4.1822  -18.2986  -47.6101 H         1 UNK         0.0600 
    234 H234       -3.1681  -17.5057  -48.8082 H         1 UNK         0.0600 
    235 H235       -6.0396  -18.7976  -51.2917 H         1 UNK         0.3000 
    236 H236       -6.3078  -18.3516  -53.4516 H         1 UNK         0.0600 
    237 H237       -3.5787  -19.6569  -53.9430 H         1 UNK         0.0600 
    238 H238       -5.1118  -20.5181  -53.8252 H         1 UNK         0.0600 
    239 H239       -4.8382  -19.3838  -55.1380 H         1 UNK         0.0600 
    240 H240       -5.5709  -16.2398  -51.9126 H         1 UNK         0.3000 
    241 H241       -4.4280  -14.4330  -53.8699 H         1 UNK         0.0600 
    242 H242       -6.1422  -11.7261  -52.2154 H         1 UNK         0.3800 
    243 H243       -4.6485  -12.0263  -53.0546 H         1 UNK         0.3800 
    244 H244       -2.4001  -15.1004  -52.6315 H         1 UNK         0.0800 
    245 H245       -2.7687  -13.4212  -52.3802 H         1 UNK         0.0800 
    246 H246       -1.1547  -13.7819  -49.2113 H         1 UNK         0.0800 
    247 H247       -0.7858  -14.0210  -50.8967 H         1 UNK         0.0800 
@<TRIPOS>BOND
     1    1    2 1    
     2    1  127 1    
     3    1  128 1    
     4    1  129 1    
     5    2    3 2    
     6    2    4 am   BACKBONE|DICT|INTERRES
     7    4    5 1    
     8    4  130 1    
     9    5    6 1    
    10    5   65 1    
    11    5  131 1    
    12    6    7 1    
    13    6  132 1    
    14    6  133 1    
    15    7    8 1    
    16    8    9 1    
    17    8  134 1    
    18    8  135 1    
    19    9   10 ar   
    20    9   14 ar   
    21   10   11 ar   
    22   10  136 1    
    23   11   12 ar   
    24   11  126 1    
    25   12   13 ar   
    26   12  137 1    
    27   13   14 ar   
    28   13   15 1    
    29   14  138 1    
    30   15   16 1    
    31   15  139 1    
    32   15  140 1    
    33   16   17 1    
    34   17   18 1    
    35   17  141 1    
    36   17  142 1    
    37   18   19 1    
    38   18   67 1    
    39   18  143 1    
    40   19   20 am   BACKBONE|DICT|INTERRES
    41   19  144 1    
    42   20   21 2    
    43   20   22 1    
    44   22   23 1    
    45   22   24 1    
    46   22  145 1    
    47   23  146 1    
    48   23  147 1    
    49   23  148 1    
    50   24   25 am   BACKBONE|DICT|INTERRES
    51   24  149 1    
    52   25   26 2    
    53   25   27 1    
    54   27   28 1    
    55   27   29 1    
    56   27  150 1    
    57   28  151 1    
    58   28  152 1    
    59   28  153 1    
    60   29   30 am   BACKBONE|DICT|INTERRES
    61   29  154 1    
    62   30   31 2    
    63   30   32 1    
    64   32   33 1    
    65   32   34 1    
    66   32  155 1    
    67   33  156 1    
    68   33  157 1    
    69   33  158 1    
    70   34   35 am   BACKBONE|DICT|INTERRES
    71   34  159 1    
    72   35   36 2    
    73   35   37 1    
    74   37   38 1    
    75   37   39 1    
    76   37  160 1    
    77   38  161 1    
    78   38  162 1    
    79   38  163 1    
    80   39   40 am   BACKBONE|DICT|INTERRES
    81   39  164 1    
    82   40   41 2    
    83   40   42 1    
    84   42   43 1    
    85   42   44 1    
    86   42  165 1    
    87   43  166 1    
    88   43  167 1    
    89   43  168 1    
    90   44   45 am   BACKBONE|DICT|INTERRES
    91   44  169 1    
    92   45   46 2    
    93   45   47 1    
    94   47   48 1    
    95   47   49 1    
    96   47  170 1    
    97   48  171 1    
    98   48  172 1    
    99   48  173 1    
   100   49   50 am   BACKBONE|DICT|INTERRES
   101   49  174 1    
   102   50   51 2    
   103   50   52 1    
   104   52   53 1    
   105   52   54 1    
   106   52  175 1    
   107   53  176 1    
   108   53  177 1    
   109   53  178 1    
   110   54   55 am   BACKBONE|DICT|INTERRES
   111   54  179 1    
   112   55   56 2    
   113   55   57 1    
   114   57   58 1    
   115   57   59 1    
   116   57  180 1    
   117   58  181 1    
   118   58  182 1    
   119   58  183 1    
   120   59   60 am   BACKBONE|DICT|INTERRES
   121   59  184 1    
   122   60   61 2    
   123   60   62 1    
   124   62   63 1    
   125   62   64 1    
   126   62  185 1    
   127   63  186 1    
   128   63  187 1    
   129   63  188 1    
   130   64   65 am   BACKBONE|DICT|INTERRES
   131   64  189 1    
   132   65   66 2    
   133   67   68 2    
   134   67   69 am   BACKBONE|DICT|INTERRES
   135   69   70 1    
   136   69  190 1    
   137   70   71 1    
   138   70   72 1    
   139   70  191 1    
   140   71  192 1    
   141   71  193 1    
   142   71  194 1    
   143   72   73 2    
   144   72   74 am   BACKBONE|DICT|INTERRES
   145   74   75 1    
   146   74  195 1    
   147   75   76 1    
   148   75   77 1    
   149   75  196 1    
   150   76  197 1    
   151   76  198 1    
   152   76  199 1    
   153   77   78 2    
   154   77   79 am   BACKBONE|DICT|INTERRES
   155   79   80 1    
   156   79  200 1    
   157   80   81 1    
   158   80   82 1    
   159   80  201 1    
   160   81  202 1    
   161   81  203 1    
   162   81  204 1    
   163   82   83 2    
   164   82   84 am   BACKBONE|DICT|INTERRES
   165   84   85 1    
   166   84  205 1    
   167   85   86 1    
   168   85   87 1    
   169   85  206 1    
   170   86  207 1    
   171   86  208 1    
   172   86  209 1    
   173   87   88 2    
   174   87   89 am   BACKBONE|DICT|INTERRES
   175   89   90 1    
   176   89  210 1    
   177   90   91 1    
   178   90   92 1    
   179   90  211 1    
   180   91  212 1    
   181   91  213 1    
   182   91  214 1    
   183   92   93 2    
   184   92   94 am   BACKBONE|DICT|INTERRES
   185   94   95 1    
   186   94  215 1    
   187   95   96 1    
   188   95   97 1    
   189   95  216 1    
   190   96  217 1    
   191   96  218 1    
   192   96  219 1    
   193   97   98 2    
   194   97   99 am   BACKBONE|DICT|INTERRES
   195   99  100 1    
   196   99  220 1    
   197  100  101 1    
   198  100  102 1    
   199  100  221 1    
   200  101  222 1    
   201  101  223 1    
   202  101  224 1    
   203  102  103 2    
   204  102  104 am   BACKBONE|DICT|INTERRES
   205  104  105 1    
   206  104  225 1    
   207  105  106 1    
   208  105  107 1    
   209  105  226 1    
   210  106  227 1    
   211  106  228 1    
   212  106  229 1    
   213  107  108 2    
   214  107  109 am   BACKBONE|DICT|INTERRES
   215  109  110 1    
   216  109  230 1    
   217  110  111 1    
   218  110  112 1    
   219  110  231 1    
   220  111  232 1    
   221  111  233 1    
   222  111  234 1    
   223  112  113 2    
   224  112  114 am   BACKBONE|DICT|INTERRES
   225  114  115 1    
   226  114  235 1    
   227  115  116 1    
   228  115  117 1    
   229  115  236 1    
   230  116  237 1    
   231  116  238 1    
   232  116  239 1    
   233  117  118 2    
   234  117  119 am   BACKBONE|DICT|INTERRES
   235  119  120 1    
   236  119  240 1    
   237  120  121 1    
   238  120  124 1    
   239  120  241 1    
   240  121  122 am   BACKBONE|DICT|INTERRES
   241  121  123 2    
   242  122  242 1    
   243  122  243 1    
   244  124  125 1    
   245  124  244 1    
   246  124  245 1    
   247  125  126 1    
   248  126  246 1    
   249  126  247 1    
@<TRIPOS>SUBSTRUCTURE
     1 UNK         1 GROUP             0       ****    0 ROOT    
