@<TRIPOS>MOLECULE
3R540
247   249    1
SMALL
USER_CHARGES


@<TRIPOS>ATOM
      1 CA         -3.4839  -16.4566  -46.9927 C.3       0 UNK        -0.1800 
      2 C          -2.9016  -15.0623  -47.1779 C.2       0 UNK         0.5000 
      3 O          -3.6348  -14.1205  -47.4799 O.2       0 UNK        -0.5000 
      4 N          -1.5851  -14.9220  -46.9838 N.am      1 UNK        -0.5000 
      5 CA         -0.8315  -13.6704  -47.1157 C.3       1 UNK         0.1400 
      6 C6          0.6506  -13.9287  -47.4919 C.3       23 UNK        -0.0398 
      7 S7          0.8983  -14.5656  -49.1894 S.3       23 UNK        -0.2404 
      8 C8          0.4502  -16.3169  -49.0008 C.3       23 UNK        -0.0205 
      9 C9          1.0855  -17.2059  -50.0592 C.ar      23 UNK        -0.0193 
     10 C10         0.4394  -17.4197  -51.2800 C.ar      23 UNK        -0.1150 
     11 C11         1.0007  -18.2628  -52.2445 C.ar      23 UNK        -0.0193 
     12 C12         2.2166  -18.8987  -51.9745 C.ar      23 UNK        -0.1150 
     13 C13         2.8650  -18.7079  -50.7518 C.ar      23 UNK        -0.0193 
     14 C14         2.2993  -17.8507  -49.8027 C.ar      23 UNK        -0.1150 
     15 C15         4.1836  -19.4171  -50.4721 C.3       23 UNK        -0.0205 
     16 S16         3.9524  -21.1702  -50.0217 S.3       23 UNK        -0.2404 
     17 C17         3.3272  -21.0257  -48.3137 C.3       23 UNK        -0.0398 
     18 CA          2.2450  -22.0636  -47.9246 C.3       11 UNK         0.1400 
     19 N           1.9658  -22.0088  -46.4849 N.am      11 UNK        -0.5000 
     20 C           1.2513  -22.9071  -45.7921 C.2       10 UNK         0.5000 
     21 O           0.7951  -23.9416  -46.2775 O.2       10 UNK        -0.5000 
     22 CA          0.9664  -22.5780  -44.3125 C.3       10 UNK         0.1400 
     23 CB          2.1220  -23.0444  -43.4146 C.3       10 UNK        -0.1800 
     24 N           0.7125  -21.1532  -44.0870 N.am      10 UNK        -0.5000 
     25 C          -0.3500  -20.4900  -44.5659 C.2       9 UNK         0.5000 
     26 O          -1.2657  -21.0332  -45.1803 O.2       9 UNK        -0.5000 
     27 CA         -0.3620  -18.9589  -44.3884 C.3       9 UNK         0.1400 
     28 CB         -0.9023  -18.5621  -43.0074 C.3       9 UNK        -0.1800 
     29 N           0.9603  -18.3648  -44.5906 N.am      9 UNK        -0.5000 
     30 C           1.6407  -18.4084  -45.7432 C.2       8 UNK         0.5000 
     31 O           1.1799  -18.8855  -46.7773 O.2       8 UNK        -0.5000 
     32 CA          3.0915  -17.8962  -45.7285 C.3       8 UNK         0.1400 
     33 CB          3.1613  -16.3811  -45.9526 C.3       8 UNK        -0.1800 
     34 N           3.7634  -18.2372  -44.4781 N.am      8 UNK        -0.5000 
     35 C           4.2106  -19.4635  -44.1791 C.2       7 UNK         0.5000 
     36 O           4.1332  -20.4217  -44.9484 O.2       7 UNK        -0.5000 
     37 CA          4.8095  -19.6548  -42.7732 C.3       7 UNK         0.1400 
     38 CB          6.2987  -19.2801  -42.7649 C.3       7 UNK        -0.1800 
     39 N           4.1071  -18.8749  -41.7510 N.am      7 UNK        -0.5000 
     40 C           2.8499  -19.1173  -41.3556 C.2       6 UNK         0.5000 
     41 O           2.1674  -20.0443  -41.7911 O.2       6 UNK        -0.5000 
     42 CA          2.2359  -18.1358  -40.3390 C.3       6 UNK         0.1400 
     43 CB          2.5932  -18.5525  -38.9048 C.3       6 UNK        -0.1800 
     44 N           2.6099  -16.7319  -40.5422 N.am      6 UNK        -0.5000 
     45 C           2.4059  -16.0312  -41.6653 C.2       5 UNK         0.5000 
     46 O           1.9621  -16.5212  -42.7035 O.2       5 UNK        -0.5000 
     47 CA          2.6964  -14.5224  -41.5982 C.3       5 UNK         0.1400 
     48 CB          3.0794  -13.9410  -42.9701 C.3       5 UNK        -0.1800 
     49 N           1.5047  -13.8354  -41.1128 N.am      5 UNK        -0.5000 
     50 C           1.1327  -13.7600  -39.8287 C.2       4 UNK         0.5000 
     51 O           1.8341  -14.1422  -38.8906 O.2       4 UNK        -0.5000 
     52 CA         -0.2679  -13.1844  -39.5472 C.3       4 UNK         0.1400 
     53 CB         -0.1890  -11.6696  -39.3047 C.3       4 UNK        -0.1800 
     54 N          -1.2349  -13.4445  -40.6168 N.am      4 UNK        -0.5000 
     55 C          -1.6890  -14.6467  -40.9921 C.2       3 UNK         0.5000 
     56 O          -1.3200  -15.7006  -40.4737 O.2       3 UNK        -0.5000 
     57 CA         -2.7255  -14.7002  -42.1360 C.3       3 UNK         0.1400 
     58 CB         -4.1583  -14.7229  -41.5722 C.3       3 UNK        -0.1800 
     59 N          -2.5909  -13.6734  -43.1823 N.am      3 UNK        -0.5000 
     60 C          -2.7297  -12.3410  -43.1038 C.2       2 UNK         0.5000 
     61 O          -2.9575  -11.7431  -42.0515 O.2       2 UNK        -0.5000 
     62 CA         -2.6056  -11.5337  -44.4157 C.3       2 UNK         0.1400 
     63 CB         -1.7393  -10.2694  -44.2363 C.3       2 UNK        -0.1800 
     64 N          -2.1668  -12.3162  -45.5809 N.am      2 UNK        -0.5000 
     65 C          -0.9673  -12.8734  -45.8012 C.2       1 UNK         0.5000 
     66 O          -0.0334  -12.8330  -44.9993 O.2       1 UNK        -0.5000 
     67 C           0.9505  -21.9282  -48.7614 C.2       11 UNK         0.5000 
     68 O           0.7432  -22.7109  -49.6894 O.2       11 UNK        -0.5000 
     69 N           0.0850  -20.9752  -48.3861 N.am      12 UNK        -0.5000 
     70 CA         -1.2301  -20.7518  -48.9922 C.3       12 UNK         0.1400 
     71 CB         -1.7831  -19.4084  -48.4993 C.3       12 UNK        -0.1800 
     72 C          -2.2473  -21.8694  -48.6915 C.2       12 UNK         0.5000 
     73 O          -3.1772  -22.0580  -49.4750 O.2       12 UNK        -0.5000 
     74 N          -2.0556  -22.5706  -47.5666 N.am      13 UNK        -0.5000 
     75 CA         -2.9144  -23.6020  -46.9816 C.3       13 UNK         0.1400 
     76 CB         -3.1784  -24.7497  -47.9814 C.3       13 UNK        -0.1800 
     77 C          -4.2186  -23.0256  -46.3916 C.2       13 UNK         0.5000 
     78 O          -4.4856  -21.8238  -46.4893 O.2       13 UNK        -0.5000 
     79 N          -5.0075  -23.9041  -45.7566 N.am      14 UNK        -0.5000 
     80 CA         -6.2942  -23.5885  -45.1325 C.3       14 UNK         0.1400 
     81 CB         -6.8771  -24.8623  -44.5021 C.3       14 UNK        -0.1800 
     82 C          -7.2835  -22.9781  -46.1410 C.2       14 UNK         0.5000 
     83 O          -7.4720  -23.5421  -47.2199 O.2       14 UNK        -0.5000 
     84 N          -7.8483  -21.8148  -45.7882 N.am      15 UNK        -0.5000 
     85 CA         -8.7426  -20.9850  -46.6086 C.3       15 UNK         0.1400 
     86 CB        -10.0916  -21.7012  -46.8310 C.3       15 UNK        -0.1800 
     87 C          -8.1089  -20.4938  -47.9328 C.2       15 UNK         0.5000 
     88 O          -8.8389  -20.1623  -48.8682 O.2       15 UNK        -0.5000 
     89 N          -6.7671  -20.4592  -47.9874 N.am      16 UNK        -0.5000 
     90 CA         -5.9313  -20.1344  -49.1470 C.3       16 UNK         0.1400 
     91 CB         -6.0935  -18.6550  -49.5541 C.3       16 UNK        -0.1800 
     92 C          -6.1260  -21.1143  -50.3261 C.2       16 UNK         0.5000 
     93 O          -6.0481  -20.7054  -51.4850 O.2       16 UNK        -0.5000 
     94 N          -6.3784  -22.3957  -50.0173 N.am      17 UNK        -0.5000 
     95 CA         -6.6788  -23.4567  -50.9831 C.3       17 UNK         0.1400 
     96 CB         -7.0005  -24.7540  -50.2260 C.3       17 UNK        -0.1800 
     97 C          -5.5950  -23.7164  -52.0496 C.2       17 UNK         0.5000 
     98 O          -5.9339  -24.1889  -53.1358 O.2       17 UNK        -0.5000 
     99 N          -4.3259  -23.4021  -51.7516 N.am      18 UNK        -0.5000 
    100 CA        -3.2100  -23.5680  -52.6849 C.3       18 UNK         0.1400 
    101 CB        -1.8862  -23.6563  -51.9108 C.3       18 UNK        -0.1800 
    102 C         -3.1309  -22.4602  -53.7515 C.2       18 UNK         0.5000 
    103 O         -2.3576  -22.6191  -54.6961 O.2       18 UNK        -0.5000 
    104 N         -3.9146  -21.3754  -53.6165 N.am      19 UNK        -0.5000 
    105 CA        -3.9115  -20.2080  -54.5110 C.3       19 UNK         0.1400 
    106 CB        -4.9237  -19.1677  -54.0120 C.3       19 UNK        -0.1800 
    107 C         -4.1655  -20.5348  -55.9947 C.2       19 UNK         0.5000 
    108 O         -3.6380  -19.8443  -56.8669 O.2       19 UNK        -0.5000 
    109 N         -4.9223  -21.6090  -56.2552 N.am      20 UNK        -0.5000 
    110 CA        -5.1632  -22.1585  -57.5898 C.3       20 UNK         0.1400 
    111 CB        -6.2580  -23.2317  -57.4898 C.3       20 UNK        -0.1800 
    112 C         -3.8996  -22.7389  -58.2610 C.2       20 UNK         0.5000 
    113 O         -3.8607  -22.8191  -59.4896 O.2       20 UNK        -0.5000 
    114 N         -2.9017  -23.1330  -57.4581 N.am      21 UNK        -0.5000 
    115 CA        -1.6227  -23.6693  -57.9125 C.3       21 UNK         0.1400 
    116 CB        -1.2563  -24.9014  -57.0684 C.3       21 UNK        -0.1800 
    117 C         -0.5166  -22.6050  -57.8355 C.2       21 UNK         0.5000 
    118 O          0.2109  -22.4308  -58.8145 O.2       21 UNK        -0.5000 
    119 N         -0.3934  -21.9218  -56.6870 N.am      22 UNK        -0.5000 
    120 CA         0.6589  -20.9176  -56.4467 C.3       22 UNK         0.1400 
    121 C          0.4023  -19.5197  -57.0822 C.2       22 UNK         0.5000 
    122 N         -0.8084  -19.1852  -57.5110 N.am      22 UNK        -0.7600 
    123 O          1.3308  -18.7254  -57.2051 O.2       22 UNK        -0.5000 
    124 C124        1.0761  -20.8282  -54.9535 C.3       23 UNK        -0.0398 
    125 S125       -0.2173  -20.1989  -53.8273 S.3       23 UNK        -0.2404 
    126 C126        0.2987  -18.4694  -53.5794 C.3       23 UNK        -0.0205 
    127 H127       -3.7987  -16.8603  -47.9548 H         1 UNK         0.0600 
    128 H128       -4.3530  -16.4187  -46.3360 H         1 UNK         0.0600 
    129 H129       -2.7592  -17.1431  -46.5550 H         1 UNK         0.0600 
    130 H130       -1.0449  -15.7228  -46.6934 H         1 UNK         0.3000 
    131 H131       -1.2717  -13.0645  -47.9110 H         1 UNK         0.0600 
    132 H132        1.1136  -14.6034  -46.7738 H         1 UNK         0.0800 
    133 H133        1.2180  -12.9983  -47.4295 H         1 UNK         0.0800 
    134 H134        0.7313  -16.6654  -48.0094 H         1 UNK         0.0800 
    135 H135       -0.6348  -16.4001  -49.0624 H         1 UNK         0.0800 
    136 H136       -0.5020  -16.9264  -51.4770 H         1 UNK         0.1150 
    137 H137        2.6564  -19.5546  -52.7113 H         1 UNK         0.1150 
    138 H138        2.7970  -17.6929  -48.8577 H         1 UNK         0.1150 
    139 H139        4.8120  -19.3659  -51.3625 H         1 UNK         0.0800 
    140 H140        4.7378  -18.9069  -49.6826 H         1 UNK         0.0800 
    141 H141        2.9515  -20.0184  -48.1578 H         1 UNK         0.0800 
    142 H142        4.1867  -21.1273  -47.6497 H         1 UNK         0.0800 
    143 H143        2.6548  -23.0554  -48.1270 H         1 UNK         0.0600 
    144 H144        2.3408  -21.2122  -45.9857 H         1 UNK         0.3000 
    145 H145        0.0693  -23.1274  -44.0191 H         1 UNK         0.0600 
    146 H146        1.8944  -22.8771  -42.3617 H         1 UNK         0.0600 
    147 H147        2.3089  -24.1114  -43.5419 H         1 UNK         0.0600 
    148 H148        3.0493  -22.5192  -43.6428 H         1 UNK         0.0600 
    149 H149        1.3872  -20.6511  -43.5183 H         1 UNK         0.3000 
    150 H150       -1.0296  -18.5421  -45.1452 H         1 UNK         0.0600 
    151 H151       -1.9324  -18.8972  -42.8820 H         1 UNK         0.0600 
    152 H152       -0.8902  -17.4805  -42.8734 H         1 UNK         0.0600 
    153 H153       -0.3150  -19.0033  -42.2028 H         1 UNK         0.0600 
    154 H154        1.3794  -17.8852  -43.7971 H         1 UNK         0.3000 
    155 H155        3.6307  -18.3764  -46.5472 H         1 UNK         0.0600 
    156 H156        2.5215  -15.8393  -45.2567 H         1 UNK         0.0600 
    157 H157        2.8480  -16.1273  -46.9644 H         1 UNK         0.0600 
    158 H158        4.1786  -16.0085  -45.8325 H         1 UNK         0.0600 
    159 H159        3.7877  -17.5209  -43.7665 H         1 UNK         0.3000 
    160 H160        4.7219  -20.7128  -42.5164 H         1 UNK         0.0600 
    161 H161        6.4513  -18.2247  -42.9941 H         1 UNK         0.0600 
    162 H162        6.8507  -19.8603  -43.5057 H         1 UNK         0.0600 
    163 H163        6.7506  -19.4821  -41.7935 H         1 UNK         0.0600 
    164 H164        4.6001  -18.0926  -41.3461 H         1 UNK         0.3000 
    165 H165        1.1511  -18.1952  -40.4455 H         1 UNK         0.0600 
    166 H166        2.0739  -17.9328  -38.1735 H         1 UNK         0.0600 
    167 H167        2.3048  -19.5873  -38.7148 H         1 UNK         0.0600 
    168 H168        3.6642  -18.4694  -38.7162 H         1 UNK         0.0600 
    169 H169        2.9270  -16.2315  -39.7229 H         1 UNK         0.3000 
    170 H170        3.5301  -14.3541  -40.9131 H         1 UNK         0.0600 
    171 H171        3.9343  -14.4684  -43.3948 H         1 UNK         0.0600 
    172 H172        2.2580  -14.0117  -43.6845 H         1 UNK         0.0600 
    173 H173        3.3543  -12.8895  -42.8866 H         1 UNK         0.0600 
    174 H174        0.8484  -13.5274  -41.8157 H         1 UNK         0.3000 
    175 H175       -0.6412  -13.6591  -38.6376 H         1 UNK         0.0600 
    176 H176        0.1504  -11.1375  -40.1944 H         1 UNK         0.0600 
    177 H177       -1.1611  -11.2645  -39.0227 H         1 UNK         0.0600 
    178 H178        0.5062  -11.4380  -38.4966 H         1 UNK         0.0600 
    179 H179       -1.6541  -12.6356  -41.0675 H         1 UNK         0.3000 
    180 H180       -2.5646  -15.6514  -42.6452 H         1 UNK         0.0600 
    181 H181       -4.8930  -14.8500  -42.3673 H         1 UNK         0.0600 
    182 H182       -4.3992  -13.8048  -41.0355 H         1 UNK         0.0600 
    183 H183       -4.2889  -15.5509  -40.8743 H         1 UNK         0.0600 
    184 H184       -2.3616  -14.0337  -44.0968 H         1 UNK         0.3000 
    185 H185       -3.6178  -11.2019  -44.6508 H         1 UNK         0.0600 
    186 H186       -2.1686   -9.6039  -43.4865 H         1 UNK         0.0600 
    187 H187       -0.7270  -10.5113  -43.9117 H         1 UNK         0.0600 
    188 H188       -1.6687   -9.7038  -45.1654 H         1 UNK         0.0600 
    189 H189       -2.8843  -12.4934  -46.2763 H         1 UNK         0.3000 
    190 H190        0.3634  -20.3280  -47.6527 H         1 UNK         0.3000 
    191 H191       -1.0979  -20.6939  -50.0747 H         1 UNK         0.0600 
    192 H192       -2.7036  -19.1470  -49.0219 H         1 UNK         0.0600 
    193 H193       -1.0693  -18.6087  -48.6748 H         1 UNK         0.0600 
    194 H194       -2.0023  -19.4325  -47.4312 H         1 UNK         0.0600 
    195 H195       -1.3224  -22.2394  -46.9519 H         1 UNK         0.3000 
    196 H196       -2.3453  -24.0093  -46.1448 H         1 UNK         0.0600 
    197 H197       -3.8696  -24.4541  -48.7708 H         1 UNK         0.0600 
    198 H198       -2.2532  -25.0806  -48.4536 H         1 UNK         0.0600 
    199 H199       -3.6114  -25.6170  -47.4828 H         1 UNK         0.0600 
    200 H200       -4.7316  -24.8743  -45.7319 H         1 UNK         0.3000 
    201 H201       -6.1053  -22.8659  -44.3360 H         1 UNK         0.0600 
    202 H202       -7.0543  -25.6363  -45.2501 H         1 UNK         0.0600 
    203 H203       -7.8298  -24.6546  -44.0132 H         1 UNK         0.0600 
    204 H204       -6.2073  -25.2721  -43.7459 H         1 UNK         0.0600 
    205 H205       -7.6078  -21.4228  -44.8881 H         1 UNK         0.3000 
    206 H206       -8.9416  -20.0860  -46.0237 H         1 UNK         0.0600 
    207 H207      -10.5221  -22.0343  -45.8866 H         1 UNK         0.0600 
    208 H208      -10.8177  -21.0351  -47.2984 H         1 UNK         0.0600 
    209 H209       -9.9857  -22.5728  -47.4776 H         1 UNK         0.0600 
    210 H210       -6.2497  -20.7890  -47.1799 H         1 UNK         0.3000 
    211 H211       -4.9038  -20.2603  -48.8100 H         1 UNK         0.0600 
    212 H212       -5.3503  -18.3739  -50.3011 H         1 UNK         0.0600 
    213 H213       -5.9597  -17.9932  -48.6988 H         1 UNK         0.0600 
    214 H214       -7.0765  -18.4571  -49.9821 H         1 UNK         0.0600 
    215 H215       -6.4518  -22.6493  -49.0400 H         1 UNK         0.3000 
    216 H216       -7.5785  -23.1511  -51.5207 H         1 UNK         0.0600 
    217 H217       -6.1813  -25.0514  -49.5706 H         1 UNK         0.0600 
    218 H218       -7.1877  -25.5787  -50.9151 H         1 UNK         0.0600 
    219 H219       -7.8959  -24.6397  -49.6152 H         1 UNK         0.0600 
    220 H220       -4.1063  -22.9735  -50.8546 H         1 UNK         0.3000 
    221 H221       -3.3426  -24.5150  -53.2123 H         1 UNK         0.0600 
    222 H222       -1.0775  -23.9855  -52.5643 H         1 UNK         0.0600 
    223 H223       -1.9479  -24.3652  -51.0851 H         1 UNK         0.0600 
    224 H224       -1.5915  -22.6885  -51.5061 H         1 UNK         0.0600 
    225 H225       -4.5401  -21.3239  -52.8193 H         1 UNK         0.3000 
    226 H226       -2.9230  -19.7544  -54.4540 H         1 UNK         0.0600 
    227 H227       -4.6833  -18.8378  -53.0011 H         1 UNK         0.0600 
    228 H228       -4.9230  -18.2823  -54.6491 H         1 UNK         0.0600 
    229 H229       -5.9385  -19.5669  -54.0044 H         1 UNK         0.0600 
    230 H230       -5.3036  -22.1241  -55.4746 H         1 UNK         0.3000 
    231 H231       -5.5308  -21.3507  -58.2260 H         1 UNK         0.0600 
    232 H232       -5.9547  -24.0555  -56.8422 H         1 UNK         0.0600 
    233 H233       -6.4860  -23.6512  -58.4706 H         1 UNK         0.0600 
    234 H234       -7.1841  -22.8156  -57.0927 H         1 UNK         0.0600 
    235 H235       -2.9843  -22.9809  -56.4575 H         1 UNK         0.3000 
    236 H236       -1.6989  -23.9955  -58.9519 H         1 UNK         0.0600 
    237 H237       -2.0138  -25.6796  -57.1617 H         1 UNK         0.0600 
    238 H238       -0.3082  -25.3296  -57.3962 H         1 UNK         0.0600 
    239 H239       -1.1572  -24.6582  -56.0101 H         1 UNK         0.0600 
    240 H240       -1.0319  -22.1083  -55.9174 H         1 UNK         0.3000 
    241 H241        1.5507  -21.2824  -56.9608 H         1 UNK         0.0600 
    242 H242       -0.9460  -18.2785  -57.9272 H         1 UNK         0.3800 
    243 H243       -1.6097  -19.7870  -57.3686 H         1 UNK         0.3800 
    244 H244        1.9773  -20.2222  -54.8541 H         1 UNK         0.0800 
    245 H245        1.3595  -21.8206  -54.6009 H         1 UNK         0.0800 
    246 H246        0.9515  -18.1396  -54.3882 H         1 UNK         0.0800 
    247 H247       -0.5919  -17.8423  -53.6407 H         1 UNK         0.0800 
@<TRIPOS>BOND
     1    1    2 1    
     2    1  127 1    
     3    1  128 1    
     4    1  129 1    
     5    2    3 2    
     6    2    4 am   BACKBONE|DICT|INTERRES
     7    4    5 1    
     8    4  130 1    
     9    5    6 1    
    10    5   65 1    
    11    5  131 1    
    12    6    7 1    
    13    6  132 1    
    14    6  133 1    
    15    7    8 1    
    16    8    9 1    
    17    8  134 1    
    18    8  135 1    
    19    9   10 ar   
    20    9   14 ar   
    21   10   11 ar   
    22   10  136 1    
    23   11   12 ar   
    24   11  126 1    
    25   12   13 ar   
    26   12  137 1    
    27   13   14 ar   
    28   13   15 1    
    29   14  138 1    
    30   15   16 1    
    31   15  139 1    
    32   15  140 1    
    33   16   17 1    
    34   17   18 1    
    35   17  141 1    
    36   17  142 1    
    37   18   19 1    
    38   18   67 1    
    39   18  143 1    
    40   19   20 am   BACKBONE|DICT|INTERRES
    41   19  144 1    
    42   20   21 2    
    43   20   22 1    
    44   22   23 1    
    45   22   24 1    
    46   22  145 1    
    47   23  146 1    
    48   23  147 1    
    49   23  148 1    
    50   24   25 am   BACKBONE|DICT|INTERRES
    51   24  149 1    
    52   25   26 2    
    53   25   27 1    
    54   27   28 1    
    55   27   29 1    
    56   27  150 1    
    57   28  151 1    
    58   28  152 1    
    59   28  153 1    
    60   29   30 am   BACKBONE|DICT|INTERRES
    61   29  154 1    
    62   30   31 2    
    63   30   32 1    
    64   32   33 1    
    65   32   34 1    
    66   32  155 1    
    67   33  156 1    
    68   33  157 1    
    69   33  158 1    
    70   34   35 am   BACKBONE|DICT|INTERRES
    71   34  159 1    
    72   35   36 2    
    73   35   37 1    
    74   37   38 1    
    75   37   39 1    
    76   37  160 1    
    77   38  161 1    
    78   38  162 1    
    79   38  163 1    
    80   39   40 am   BACKBONE|DICT|INTERRES
    81   39  164 1    
    82   40   41 2    
    83   40   42 1    
    84   42   43 1    
    85   42   44 1    
    86   42  165 1    
    87   43  166 1    
    88   43  167 1    
    89   43  168 1    
    90   44   45 am   BACKBONE|DICT|INTERRES
    91   44  169 1    
    92   45   46 2    
    93   45   47 1    
    94   47   48 1    
    95   47   49 1    
    96   47  170 1    
    97   48  171 1    
    98   48  172 1    
    99   48  173 1    
   100   49   50 am   BACKBONE|DICT|INTERRES
   101   49  174 1    
   102   50   51 2    
   103   50   52 1    
   104   52   53 1    
   105   52   54 1    
   106   52  175 1    
   107   53  176 1    
   108   53  177 1    
   109   53  178 1    
   110   54   55 am   BACKBONE|DICT|INTERRES
   111   54  179 1    
   112   55   56 2    
   113   55   57 1    
   114   57   58 1    
   115   57   59 1    
   116   57  180 1    
   117   58  181 1    
   118   58  182 1    
   119   58  183 1    
   120   59   60 am   BACKBONE|DICT|INTERRES
   121   59  184 1    
   122   60   61 2    
   123   60   62 1    
   124   62   63 1    
   125   62   64 1    
   126   62  185 1    
   127   63  186 1    
   128   63  187 1    
   129   63  188 1    
   130   64   65 am   BACKBONE|DICT|INTERRES
   131   64  189 1    
   132   65   66 2    
   133   67   68 2    
   134   67   69 am   BACKBONE|DICT|INTERRES
   135   69   70 1    
   136   69  190 1    
   137   70   71 1    
   138   70   72 1    
   139   70  191 1    
   140   71  192 1    
   141   71  193 1    
   142   71  194 1    
   143   72   73 2    
   144   72   74 am   BACKBONE|DICT|INTERRES
   145   74   75 1    
   146   74  195 1    
   147   75   76 1    
   148   75   77 1    
   149   75  196 1    
   150   76  197 1    
   151   76  198 1    
   152   76  199 1    
   153   77   78 2    
   154   77   79 am   BACKBONE|DICT|INTERRES
   155   79   80 1    
   156   79  200 1    
   157   80   81 1    
   158   80   82 1    
   159   80  201 1    
   160   81  202 1    
   161   81  203 1    
   162   81  204 1    
   163   82   83 2    
   164   82   84 am   BACKBONE|DICT|INTERRES
   165   84   85 1    
   166   84  205 1    
   167   85   86 1    
   168   85   87 1    
   169   85  206 1    
   170   86  207 1    
   171   86  208 1    
   172   86  209 1    
   173   87   88 2    
   174   87   89 am   BACKBONE|DICT|INTERRES
   175   89   90 1    
   176   89  210 1    
   177   90   91 1    
   178   90   92 1    
   179   90  211 1    
   180   91  212 1    
   181   91  213 1    
   182   91  214 1    
   183   92   93 2    
   184   92   94 am   BACKBONE|DICT|INTERRES
   185   94   95 1    
   186   94  215 1    
   187   95   96 1    
   188   95   97 1    
   189   95  216 1    
   190   96  217 1    
   191   96  218 1    
   192   96  219 1    
   193   97   98 2    
   194   97   99 am   BACKBONE|DICT|INTERRES
   195   99  100 1    
   196   99  220 1    
   197  100  101 1    
   198  100  102 1    
   199  100  221 1    
   200  101  222 1    
   201  101  223 1    
   202  101  224 1    
   203  102  103 2    
   204  102  104 am   BACKBONE|DICT|INTERRES
   205  104  105 1    
   206  104  225 1    
   207  105  106 1    
   208  105  107 1    
   209  105  226 1    
   210  106  227 1    
   211  106  228 1    
   212  106  229 1    
   213  107  108 2    
   214  107  109 am   BACKBONE|DICT|INTERRES
   215  109  110 1    
   216  109  230 1    
   217  110  111 1    
   218  110  112 1    
   219  110  231 1    
   220  111  232 1    
   221  111  233 1    
   222  111  234 1    
   223  112  113 2    
   224  112  114 am   BACKBONE|DICT|INTERRES
   225  114  115 1    
   226  114  235 1    
   227  115  116 1    
   228  115  117 1    
   229  115  236 1    
   230  116  237 1    
   231  116  238 1    
   232  116  239 1    
   233  117  118 2    
   234  117  119 am   BACKBONE|DICT|INTERRES
   235  119  120 1    
   236  119  240 1    
   237  120  121 1    
   238  120  124 1    
   239  120  241 1    
   240  121  122 am   BACKBONE|DICT|INTERRES
   241  121  123 2    
   242  122  242 1    
   243  122  243 1    
   244  124  125 1    
   245  124  244 1    
   246  124  245 1    
   247  125  126 1    
   248  126  246 1    
   249  126  247 1    
@<TRIPOS>SUBSTRUCTURE
     1 UNK         1 GROUP             0       ****    0 ROOT    
