@<TRIPOS>MOLECULE
3R540
247   249    1
SMALL
USER_CHARGES


@<TRIPOS>ATOM
      1 CA         -5.0827  -14.8932  -49.3179 C.3       0 UNK        -0.1800 
      2 C          -3.8203  -14.6322  -48.5096 C.2       0 UNK         0.5000 
      3 O          -3.6759  -13.5619  -47.9188 O.2       0 UNK        -0.5000 
      4 N          -2.9161  -15.6197  -48.4599 N.am      1 UNK        -0.5000 
      5 CA         -1.6155  -15.5670  -47.7751 C.3       1 UNK         0.1400 
      6 C6         -0.7716  -16.8345  -48.0350 C.3       23 UNK        -0.0398 
      7 S7         -0.4840  -17.1838  -49.8040 S.3       23 UNK        -0.2404 
      8 C8         -0.5659  -19.0040  -49.8234 C.3       23 UNK        -0.0205 
      9 C9          0.6879  -19.6369  -50.4075 C.ar      23 UNK        -0.0193 
     10 C10         0.6218  -20.3786  -51.5899 C.ar      23 UNK        -0.1150 
     11 C11         1.7698  -20.9837  -52.1215 C.ar      23 UNK        -0.0193 
     12 C12         2.9801  -20.8608  -51.4311 C.ar      23 UNK        -0.1150 
     13 C13         3.0589  -20.1328  -50.2414 C.ar      23 UNK        -0.0193 
     14 C14         1.9105  -19.5132  -49.7432 C.ar      23 UNK        -0.1150 
     15 C15         4.3891  -19.9985  -49.5111 C.3       23 UNK        -0.0205 
     16 S16         4.7863  -21.4613  -48.4946 S.3       23 UNK        -0.2404 
     17 C17         3.5799  -21.3069  -47.1319 C.3       23 UNK        -0.0398 
     18 CA          2.7633  -22.5849  -46.8112 C.3       11 UNK         0.1400 
     19 N           1.9757  -22.3961  -45.5840 N.am      11 UNK        -0.5000 
     20 C           1.2699  -23.3361  -44.9384 C.2       10 UNK         0.5000 
     21 O           1.2014  -24.5084  -45.3050 O.2       10 UNK        -0.5000 
     22 CA          0.4609  -22.8872  -43.7052 C.3       10 UNK         0.1400 
     23 CB          1.2872  -23.0512  -42.4215 C.3       10 UNK        -0.1800 
     24 N          -0.0225  -21.5087  -43.8016 N.am      10 UNK        -0.5000 
     25 C          -0.9279  -21.0788  -44.6906 C.2       9 UNK         0.5000 
     26 O          -1.4925  -21.8123  -45.5040 O.2       9 UNK        -0.5000 
     27 CA         -1.2203  -19.5673  -44.7039 C.3       9 UNK         0.1400 
     28 CB         -2.2391  -19.2013  -43.6161 C.3       9 UNK        -0.1800 
     29 N          -0.0040  -18.7625  -44.5620 N.am      9 UNK        -0.5000 
     30 C           0.9756  -18.7412  -45.4777 C.2       8 UNK         0.5000 
     31 O           0.8801  -19.3024  -46.5661 O.2       8 UNK        -0.5000 
     32 CA          2.2981  -18.0446  -45.1054 C.3       8 UNK         0.1400 
     33 CB          2.3015  -16.5597  -45.4931 C.3       8 UNK        -0.1800 
     34 N           2.5963  -18.1797  -43.6821 N.am      8 UNK        -0.5000 
     35 C           3.0274  -19.3121  -43.1097 C.2       7 UNK         0.5000 
     36 O           3.2713  -20.3414  -43.7382 O.2       7 UNK        -0.5000 
     37 CA          3.1616  -19.3019  -41.5751 C.3       7 UNK         0.1400 
     38 CB          4.5440  -18.7792  -41.1582 C.3       7 UNK        -0.1800 
     39 N           2.1243  -18.4933  -40.9307 N.am      7 UNK        -0.5000 
     40 C           0.8164  -18.7898  -40.9419 C.2       6 UNK         0.5000 
     41 O           0.3613  -19.8233  -41.4298 O.2       6 UNK        -0.5000 
     42 CA         -0.1432  -17.7255  -40.3719 C.3       6 UNK         0.1400 
     43 CB         -0.3772  -17.9568  -38.8721 C.3       6 UNK        -0.1800 
     44 N           0.3429  -16.3580  -40.5855 N.am      6 UNK        -0.5000 
     45 C           0.4656  -15.7813  -41.7883 C.2       5 UNK         0.5000 
     46 O           0.1081  -16.3163  -42.8393 O.2       5 UNK        -0.5000 
     47 CA          1.2034  -14.4374  -41.8229 C.3       5 UNK         0.1400 
     48 CB          2.7251  -14.6877  -41.7417 C.3       5 UNK        -0.1800 
     49 N           0.8742  -13.7047  -43.0451 N.am      5 UNK        -0.5000 
     50 C           1.1962  -12.4232  -43.2731 C.2       4 UNK         0.5000 
     51 O           1.7753  -11.7066  -42.4553 O.2       4 UNK        -0.5000 
     52 CA          0.7909  -11.8288  -44.6304 C.3       4 UNK         0.1400 
     53 CB          1.5951  -12.4557  -45.7822 C.3       4 UNK        -0.1800 
     54 N          -0.6409  -11.9985  -44.8616 N.am      4 UNK        -0.5000 
     55 C          -1.5815  -11.1541  -44.4106 C.2       3 UNK         0.5000 
     56 O          -1.3270  -10.1068  -43.8142 O.2       3 UNK        -0.5000 
     57 CA         -3.0571  -11.5287  -44.6607 C.3       3 UNK         0.1400 
     58 CB         -3.5941  -10.7972  -45.9001 C.3       3 UNK        -0.1800 
     59 N          -3.2622  -12.9666  -44.8285 N.am      3 UNK        -0.5000 
     60 C          -3.1346  -13.8690  -43.8440 C.2       2 UNK         0.5000 
     61 O          -2.9460  -13.5681  -42.6650 O.2       2 UNK        -0.5000 
     62 CA         -3.1908  -15.3580  -44.2400 C.3       2 UNK         0.1400 
     63 CB         -4.5719  -15.9497  -43.9180 C.3       2 UNK        -0.1800 
     64 N          -2.8774  -15.6161  -45.6488 N.am      2 UNK        -0.5000 
     65 C          -1.7166  -15.3191  -46.2521 C.2       1 UNK         0.5000 
     66 O          -0.7590  -14.8254  -45.6586 O.2       1 UNK        -0.5000 
     67 C           1.9147  -23.0821  -48.0096 C.2       11 UNK         0.5000 
     68 O           2.4339  -23.8146  -48.8530 O.2       11 UNK        -0.5000 
     69 N           0.6140  -22.7490  -48.0321 N.am      12 UNK        -0.5000 
     70 CA         -0.3513  -23.2799  -49.0003 C.3       12 UNK         0.1400 
     71 CB         -1.6752  -22.5095  -48.8697 C.3       12 UNK        -0.1800 
     72 C          -0.6452  -24.7829  -48.8267 C.2       12 UNK         0.5000 
     73 O          -1.1287  -25.4085  -49.7697 O.2       12 UNK        -0.5000 
     74 N          -0.4249  -25.3077  -47.6094 N.am      13 UNK        -0.5000 
     75 CA         -0.8144  -26.6382  -47.1227 C.3       13 UNK         0.1400 
     76 CB         -0.0651  -27.7493  -47.8867 C.3       13 UNK        -0.1800 
     77 C          -2.3457  -26.8544  -47.0995 C.2       13 UNK         0.5000 
     78 O          -2.8057  -27.9974  -47.0802 O.2       13 UNK        -0.5000 
     79 N          -3.1067  -25.7516  -47.1034 N.am      14 UNK        -0.5000 
     80 CA         -4.5627  -25.7226  -47.2318 C.3       14 UNK         0.1400 
     81 CB         -4.9498  -25.8673  -48.7183 C.3       14 UNK        -0.1800 
     82 C          -5.1640  -24.4561  -46.5925 C.2       14 UNK         0.5000 
     83 O          -6.2475  -24.0366  -46.9973 O.2       14 UNK        -0.5000 
     84 N          -4.4553  -23.8589  -45.6188 N.am      15 UNK        -0.5000 
     85 CA         -4.8404  -22.6588  -44.8611 C.3       15 UNK         0.1400 
     86 CB         -6.0120  -22.9753  -43.9084 C.3       15 UNK        -0.1800 
     87 C          -5.1203  -21.4472  -45.7761 C.2       15 UNK         0.5000 
     88 O          -6.2396  -20.9353  -45.8156 O.2       15 UNK        -0.5000 
     89 N          -4.0835  -21.0488  -46.5256 N.am      16 UNK        -0.5000 
     90 CA         -4.0184  -19.9345  -47.4823 C.3       16 UNK         0.1400 
     91 CB         -4.3885  -18.5953  -46.8132 C.3       16 UNK        -0.1800 
     92 C          -4.8068  -20.1221  -48.7945 C.2       16 UNK         0.5000 
     93 O          -4.6464  -19.2947  -49.6914 O.2       16 UNK        -0.5000 
     94 N          -5.6109  -21.1880  -48.9206 N.am      17 UNK        -0.5000 
     95 CA         -6.5279  -21.4213  -50.0452 C.3       17 UNK         0.1400 
     96 CB         -7.3699  -22.6726  -49.7592 C.3       17 UNK        -0.1800 
     97 C          -5.8556  -21.5378  -51.4283 C.2       17 UNK         0.5000 
     98 O          -6.4984  -21.2509  -52.4389 O.2       17 UNK        -0.5000 
     99 N          -4.5748  -21.9315  -51.4533 N.am      18 UNK        -0.5000 
    100 CA        -3.7661  -22.0495  -52.6680 C.3       18 UNK         0.1400 
    101 CB        -2.5153  -22.8901  -52.3710 C.3       18 UNK        -0.1800 
    102 C         -3.3656  -20.6958  -53.2876 C.2       18 UNK         0.5000 
    103 O         -2.9122  -20.6877  -54.4311 O.2       18 UNK        -0.5000 
    104 N         -3.5411  -19.5790  -52.5599 N.am      19 UNK        -0.5000 
    105 CA        -3.1736  -18.2188  -52.9793 C.3       19 UNK         0.1400 
    106 CB        -3.6080  -17.2195  -51.8979 C.3       19 UNK        -0.1800 
    107 C         -3.7505  -17.7879  -54.3421 C.2       19 UNK         0.5000 
    108 O         -3.0867  -17.0585  -55.0789 O.2       19 UNK        -0.5000 
    109 N         -4.9528  -18.2816  -54.6689 N.am      20 UNK        -0.5000 
    110 CA        -5.6305  -18.0639  -55.9478 C.3       20 UNK         0.1400 
    111 CB        -7.0641  -18.6069  -55.8463 C.3       20 UNK        -0.1800 
    112 C         -4.9010  -18.6900  -57.1550 C.2       20 UNK         0.5000 
    113 O         -5.0521  -18.1900  -58.2706 O.2       20 UNK        -0.5000 
    114 N         -4.1291  -19.7587  -56.9171 N.am      21 UNK        -0.5000 
    115 CA        -3.2982  -20.4248  -57.9175 C.3       21 UNK         0.1400 
    116 CB        -3.3600  -21.9450  -57.6965 C.3       21 UNK        -0.1800 
    117 C         -1.8455  -19.9263  -57.8472 C.2       21 UNK         0.5000 
    118 O         -1.2366  -19.6892  -58.8914 O.2       21 UNK        -0.5000 
    119 N         -1.3157  -19.7863  -56.6251 N.am      22 UNK        -0.5000 
    120 CA         0.0708  -19.3730  -56.3556 C.3       22 UNK         0.1400 
    121 C          0.3682  -17.8769  -56.6588 C.2       22 UNK         0.5000 
    122 N         -0.6036  -16.9754  -56.5883 N.am      22 UNK        -0.7600 
    123 O          1.5038  -17.5290  -56.9704 O.2       22 UNK        -0.5000 
    124 C124        0.5085  -19.7258  -54.9125 C.3       23 UNK        -0.0398 
    125 S125        0.3408  -21.5055  -54.5339 S.3       23 UNK        -0.2404 
    126 C126        1.7576  -21.7957  -53.4190 C.3       23 UNK        -0.0205 
    127 H127       -5.9626  -14.5962  -48.7473 H         1 UNK         0.0600 
    128 H128       -5.1874  -15.9483  -49.5736 H         1 UNK         0.0600 
    129 H129       -5.0620  -14.3157  -50.2423 H         1 UNK         0.0600 
    130 H130       -3.0851  -16.4610  -48.9918 H         1 UNK         0.3000 
    131 H131       -1.0748  -14.7143  -48.1911 H         1 UNK         0.0600 
    132 H132        0.2085  -16.7359  -47.5715 H         1 UNK         0.0800 
    133 H133       -1.2505  -17.6911  -47.5596 H         1 UNK         0.0800 
    134 H134       -1.4529  -19.3070  -50.3813 H         1 UNK         0.0800 
    135 H135       -0.6889  -19.3932  -48.8136 H         1 UNK         0.0800 
    136 H136       -0.3292  -20.4793  -52.0905 H         1 UNK         0.1150 
    137 H137        3.8697  -21.3361  -51.8203 H         1 UNK         0.1150 
    138 H138        1.9624  -18.9329  -48.8339 H         1 UNK         0.1150 
    139 H139        4.3939  -19.1065  -48.8825 H         1 UNK         0.0800 
    140 H140        5.1863  -19.8551  -50.2419 H         1 UNK         0.0800 
    141 H141        2.9076  -20.4818  -47.3450 H         1 UNK         0.0800 
    142 H142        4.1429  -21.0055  -46.2478 H         1 UNK         0.0800 
    143 H143        3.4789  -23.3801  -46.5924 H         1 UNK         0.0600 
    144 H144        2.0130  -21.4736  -45.1694 H         1 UNK         0.3000 
    145 H145       -0.4115  -23.5397  -43.6309 H         1 UNK         0.0600 
    146 H146        0.7041  -22.7830  -41.5402 H         1 UNK         0.0600 
    147 H147        1.6113  -24.0850  -42.2957 H         1 UNK         0.0600 
    148 H148        2.1806  -22.4273  -42.4334 H         1 UNK         0.0600 
    149 H149        0.3338  -20.8500  -43.1156 H         1 UNK         0.3000 
    150 H150       -1.6563  -19.3264  -45.6735 H         1 UNK         0.0600 
    151 H151       -1.9079  -19.5036  -42.6239 H         1 UNK         0.0600 
    152 H152       -3.1961  -19.6908  -43.7994 H         1 UNK         0.0600 
    153 H153       -2.4212  -18.1299  -43.5923 H         1 UNK         0.0600 
    154 H154        0.1000  -18.2102  -43.7190 H         1 UNK         0.3000 
    155 H155        3.0972  -18.5314  -45.6685 H         1 UNK         0.0600 
    156 H156        1.4734  -16.0192  -45.0388 H         1 UNK         0.0600 
    157 H157        2.2269  -16.4379  -46.5732 H         1 UNK         0.0600 
    158 H158        3.2258  -16.0727  -45.1824 H         1 UNK         0.0600 
    159 H159        2.3702  -17.3915  -43.0954 H         1 UNK         0.3000 
    160 H160        3.0617  -20.3309  -41.2234 H         1 UNK         0.0600 
    161 H161        4.6942  -17.7432  -41.4651 H         1 UNK         0.0600 
    162 H162        5.3384  -19.3743  -41.6108 H         1 UNK         0.0600 
    163 H163        4.6759  -18.8321  -40.0774 H         1 UNK         0.0600 
    164 H164        2.4212  -17.6353  -40.4911 H         1 UNK         0.3000 
    165 H165       -1.0999  -17.8306  -40.8878 H         1 UNK         0.0600 
    166 H166       -1.1092  -17.2536  -38.4745 H         1 UNK         0.0600 
    167 H167        0.5432  -17.8456  -38.2974 H         1 UNK         0.0600 
    168 H168       -0.7602  -18.9615  -38.6879 H         1 UNK         0.0600 
    169 H169        0.6591  -15.8599  -39.7656 H         1 UNK         0.3000 
    170 H170        0.8795  -13.8475  -40.9630 H         1 UNK         0.0600 
    171 H171        2.9860  -15.2825  -40.8657 H         1 UNK         0.0600 
    172 H172        3.0913  -15.2182  -42.6213 H         1 UNK         0.0600 
    173 H173        3.2838  -13.7556  -41.6625 H         1 UNK         0.0600 
    174 H174        0.3701  -14.2392  -43.7461 H         1 UNK         0.3000 
    175 H175        1.0270  -10.7625  -44.6156 H         1 UNK         0.0600 
    176 H176        1.4644  -13.5356  -45.8407 H         1 UNK         0.0600 
    177 H177        1.3028  -12.0314  -46.7427 H         1 UNK         0.0600 
    178 H178        2.6615  -12.2669  -45.6544 H         1 UNK         0.0600 
    179 H179       -0.9228  -12.8734  -45.2896 H         1 UNK         0.3000 
    180 H180       -3.6343  -11.1998  -43.7939 H         1 UNK         0.0600 
    181 H181       -3.0456  -11.0772  -46.8004 H         1 UNK         0.0600 
    182 H182       -3.5059   -9.7162  -45.7847 H         1 UNK         0.0600 
    183 H183       -4.6478  -11.0219  -46.0664 H         1 UNK         0.0600 
    184 H184       -3.4195  -13.2911  -45.7761 H         1 UNK         0.3000 
    185 H185       -2.4420  -15.8684  -43.6333 H         1 UNK         0.0600 
    186 H186       -4.5970  -17.0248  -44.0925 H         1 UNK         0.0600 
    187 H187       -4.8312  -15.7889  -42.8707 H         1 UNK         0.0600 
    188 H188       -5.3551  -15.4924  -44.5239 H         1 UNK         0.0600 
    189 H189       -3.6283  -15.9759  -46.2175 H         1 UNK         0.3000 
    190 H190        0.2525  -22.1512  -47.3012 H         1 UNK         0.3000 
    191 H191        0.0457  -23.1291  -50.0066 H         1 UNK         0.0600 
    192 H192       -2.4445  -22.9306  -49.5161 H         1 UNK         0.0600 
    193 H193       -1.5574  -21.4665  -49.1464 H         1 UNK         0.0600 
    194 H194       -2.0650  -22.5541  -47.8557 H         1 UNK         0.0600 
    195 H195        0.0361  -24.7285  -46.9152 H         1 UNK         0.3000 
    196 H196       -0.4909  -26.6824  -46.0819 H         1 UNK         0.0600 
    197 H197       -0.4000  -27.8288  -48.9212 H         1 UNK         0.0600 
    198 H198        1.0093  -27.5654  -47.8943 H         1 UNK         0.0600 
    199 H199       -0.2234  -28.7212  -47.4181 H         1 UNK         0.0600 
    200 H200       -2.6381  -24.8584  -47.1286 H         1 UNK         0.3000 
    201 H201       -4.9837  -26.5662  -46.6811 H         1 UNK         0.0600 
    202 H202       -4.5734  -25.0328  -49.3113 H         1 UNK         0.0600 
    203 H203       -6.0324  -25.9037  -48.8450 H         1 UNK         0.0600 
    204 H204       -4.5486  -26.7862  -49.1457 H         1 UNK         0.0600 
    205 H205       -3.5859  -24.2878  -45.3363 H         1 UNK         0.3000 
    206 H206       -3.9829  -22.3894  -44.2425 H         1 UNK         0.0600 
    207 H207       -5.7625  -23.7974  -43.2378 H         1 UNK         0.0600 
    208 H208       -6.2532  -22.1117  -43.2875 H         1 UNK         0.0600 
    209 H209       -6.9169  -23.2497  -44.4516 H         1 UNK         0.0600 
    210 H210       -3.2049  -21.5383  -46.3799 H         1 UNK         0.3000 
    211 H211       -2.9714  -19.8672  -47.7790 H         1 UNK         0.0600 
    212 H212       -4.2388  -17.7651  -47.5003 H         1 UNK         0.0600 
    213 H213       -3.7785  -18.4046  -45.9334 H         1 UNK         0.0600 
    214 H214       -5.4342  -18.5640  -46.5074 H         1 UNK         0.0600 
    215 H215       -5.7079  -21.8094  -48.1286 H         1 UNK         0.3000 
    216 H216       -7.2029  -20.5644  -50.0914 H         1 UNK         0.0600 
    217 H217       -6.7493  -23.5668  -49.6977 H         1 UNK         0.0600 
    218 H218       -8.1067  -22.8385  -50.5462 H         1 UNK         0.0600 
    219 H219       -7.9149  -22.5768  -48.8199 H         1 UNK         0.0600 
    220 H220       -4.1239  -22.1399  -50.5765 H         1 UNK         0.3000 
    221 H221       -4.3576  -22.5831  -53.4150 H         1 UNK         0.0600 
    222 H222       -2.7704  -23.8365  -51.8935 H         1 UNK         0.0600 
    223 H223       -1.8154  -22.3593  -51.7268 H         1 UNK         0.0600 
    224 H224       -1.9839  -23.1290  -53.2930 H         1 UNK         0.0600 
    225 H225       -3.9491  -19.6607  -51.6349 H         1 UNK         0.3000 
    226 H226       -2.0853  -18.1873  -53.0575 H         1 UNK         0.0600 
    227 H227       -4.6909  -17.2152  -51.7686 H         1 UNK         0.0600 
    228 H228       -3.1611  -17.4605  -50.9359 H         1 UNK         0.0600 
    229 H229       -3.3004  -16.2044  -52.1525 H         1 UNK         0.0600 
    230 H230       -5.4161  -18.8872  -54.0062 H         1 UNK         0.3000 
    231 H231       -5.6831  -16.9869  -56.1198 H         1 UNK         0.0600 
    232 H232       -7.0740  -19.6785  -55.6426 H         1 UNK         0.0600 
    233 H233       -7.6115  -18.4434  -56.7755 H         1 UNK         0.0600 
    234 H234       -7.6195  -18.1088  -55.0514 H         1 UNK         0.0600 
    235 H235       -4.0094  -20.0726  -55.9602 H         1 UNK         0.3000 
    236 H236       -3.6776  -20.2183  -58.9205 H         1 UNK         0.0600 
    237 H237       -4.3822  -22.3134  -57.7844 H         1 UNK         0.0600 
    238 H238       -2.7592  -22.4710  -58.4394 H         1 UNK         0.0600 
    239 H239       -2.9859  -22.2288  -56.7120 H         1 UNK         0.0600 
    240 H240       -1.8679  -20.0550  -55.8148 H         1 UNK         0.3000 
    241 H241        0.7081  -19.9480  -57.0305 H         1 UNK         0.0600 
    242 H242       -0.3943  -16.0121  -56.7953 H         1 UNK         0.3800 
    243 H243       -1.5307  -17.2183  -56.2536 H         1 UNK         0.3800 
    244 H244       -0.0841  -19.1627  -54.1903 H         1 UNK         0.0800 
    245 H245        1.5477  -19.4329  -54.7514 H         1 UNK         0.0800 
    246 H246        2.6744  -21.6037  -53.9788 H         1 UNK         0.0800 
    247 H247        1.7729  -22.8544  -53.1573 H         1 UNK         0.0800 
@<TRIPOS>BOND
     1    1    2 1    
     2    1  127 1    
     3    1  128 1    
     4    1  129 1    
     5    2    3 2    
     6    2    4 am   BACKBONE|DICT|INTERRES
     7    4    5 1    
     8    4  130 1    
     9    5    6 1    
    10    5   65 1    
    11    5  131 1    
    12    6    7 1    
    13    6  132 1    
    14    6  133 1    
    15    7    8 1    
    16    8    9 1    
    17    8  134 1    
    18    8  135 1    
    19    9   10 ar   
    20    9   14 ar   
    21   10   11 ar   
    22   10  136 1    
    23   11   12 ar   
    24   11  126 1    
    25   12   13 ar   
    26   12  137 1    
    27   13   14 ar   
    28   13   15 1    
    29   14  138 1    
    30   15   16 1    
    31   15  139 1    
    32   15  140 1    
    33   16   17 1    
    34   17   18 1    
    35   17  141 1    
    36   17  142 1    
    37   18   19 1    
    38   18   67 1    
    39   18  143 1    
    40   19   20 am   BACKBONE|DICT|INTERRES
    41   19  144 1    
    42   20   21 2    
    43   20   22 1    
    44   22   23 1    
    45   22   24 1    
    46   22  145 1    
    47   23  146 1    
    48   23  147 1    
    49   23  148 1    
    50   24   25 am   BACKBONE|DICT|INTERRES
    51   24  149 1    
    52   25   26 2    
    53   25   27 1    
    54   27   28 1    
    55   27   29 1    
    56   27  150 1    
    57   28  151 1    
    58   28  152 1    
    59   28  153 1    
    60   29   30 am   BACKBONE|DICT|INTERRES
    61   29  154 1    
    62   30   31 2    
    63   30   32 1    
    64   32   33 1    
    65   32   34 1    
    66   32  155 1    
    67   33  156 1    
    68   33  157 1    
    69   33  158 1    
    70   34   35 am   BACKBONE|DICT|INTERRES
    71   34  159 1    
    72   35   36 2    
    73   35   37 1    
    74   37   38 1    
    75   37   39 1    
    76   37  160 1    
    77   38  161 1    
    78   38  162 1    
    79   38  163 1    
    80   39   40 am   BACKBONE|DICT|INTERRES
    81   39  164 1    
    82   40   41 2    
    83   40   42 1    
    84   42   43 1    
    85   42   44 1    
    86   42  165 1    
    87   43  166 1    
    88   43  167 1    
    89   43  168 1    
    90   44   45 am   BACKBONE|DICT|INTERRES
    91   44  169 1    
    92   45   46 2    
    93   45   47 1    
    94   47   48 1    
    95   47   49 1    
    96   47  170 1    
    97   48  171 1    
    98   48  172 1    
    99   48  173 1    
   100   49   50 am   BACKBONE|DICT|INTERRES
   101   49  174 1    
   102   50   51 2    
   103   50   52 1    
   104   52   53 1    
   105   52   54 1    
   106   52  175 1    
   107   53  176 1    
   108   53  177 1    
   109   53  178 1    
   110   54   55 am   BACKBONE|DICT|INTERRES
   111   54  179 1    
   112   55   56 2    
   113   55   57 1    
   114   57   58 1    
   115   57   59 1    
   116   57  180 1    
   117   58  181 1    
   118   58  182 1    
   119   58  183 1    
   120   59   60 am   BACKBONE|DICT|INTERRES
   121   59  184 1    
   122   60   61 2    
   123   60   62 1    
   124   62   63 1    
   125   62   64 1    
   126   62  185 1    
   127   63  186 1    
   128   63  187 1    
   129   63  188 1    
   130   64   65 am   BACKBONE|DICT|INTERRES
   131   64  189 1    
   132   65   66 2    
   133   67   68 2    
   134   67   69 am   BACKBONE|DICT|INTERRES
   135   69   70 1    
   136   69  190 1    
   137   70   71 1    
   138   70   72 1    
   139   70  191 1    
   140   71  192 1    
   141   71  193 1    
   142   71  194 1    
   143   72   73 2    
   144   72   74 am   BACKBONE|DICT|INTERRES
   145   74   75 1    
   146   74  195 1    
   147   75   76 1    
   148   75   77 1    
   149   75  196 1    
   150   76  197 1    
   151   76  198 1    
   152   76  199 1    
   153   77   78 2    
   154   77   79 am   BACKBONE|DICT|INTERRES
   155   79   80 1    
   156   79  200 1    
   157   80   81 1    
   158   80   82 1    
   159   80  201 1    
   160   81  202 1    
   161   81  203 1    
   162   81  204 1    
   163   82   83 2    
   164   82   84 am   BACKBONE|DICT|INTERRES
   165   84   85 1    
   166   84  205 1    
   167   85   86 1    
   168   85   87 1    
   169   85  206 1    
   170   86  207 1    
   171   86  208 1    
   172   86  209 1    
   173   87   88 2    
   174   87   89 am   BACKBONE|DICT|INTERRES
   175   89   90 1    
   176   89  210 1    
   177   90   91 1    
   178   90   92 1    
   179   90  211 1    
   180   91  212 1    
   181   91  213 1    
   182   91  214 1    
   183   92   93 2    
   184   92   94 am   BACKBONE|DICT|INTERRES
   185   94   95 1    
   186   94  215 1    
   187   95   96 1    
   188   95   97 1    
   189   95  216 1    
   190   96  217 1    
   191   96  218 1    
   192   96  219 1    
   193   97   98 2    
   194   97   99 am   BACKBONE|DICT|INTERRES
   195   99  100 1    
   196   99  220 1    
   197  100  101 1    
   198  100  102 1    
   199  100  221 1    
   200  101  222 1    
   201  101  223 1    
   202  101  224 1    
   203  102  103 2    
   204  102  104 am   BACKBONE|DICT|INTERRES
   205  104  105 1    
   206  104  225 1    
   207  105  106 1    
   208  105  107 1    
   209  105  226 1    
   210  106  227 1    
   211  106  228 1    
   212  106  229 1    
   213  107  108 2    
   214  107  109 am   BACKBONE|DICT|INTERRES
   215  109  110 1    
   216  109  230 1    
   217  110  111 1    
   218  110  112 1    
   219  110  231 1    
   220  111  232 1    
   221  111  233 1    
   222  111  234 1    
   223  112  113 2    
   224  112  114 am   BACKBONE|DICT|INTERRES
   225  114  115 1    
   226  114  235 1    
   227  115  116 1    
   228  115  117 1    
   229  115  236 1    
   230  116  237 1    
   231  116  238 1    
   232  116  239 1    
   233  117  118 2    
   234  117  119 am   BACKBONE|DICT|INTERRES
   235  119  120 1    
   236  119  240 1    
   237  120  121 1    
   238  120  124 1    
   239  120  241 1    
   240  121  122 am   BACKBONE|DICT|INTERRES
   241  121  123 2    
   242  122  242 1    
   243  122  243 1    
   244  124  125 1    
   245  124  244 1    
   246  124  245 1    
   247  125  126 1    
   248  126  246 1    
   249  126  247 1    
@<TRIPOS>SUBSTRUCTURE
     1 UNK         1 GROUP             0       ****    0 ROOT    
