@<TRIPOS>MOLECULE
3R540
247   249    1
SMALL
USER_CHARGES


@<TRIPOS>ATOM
      1 CA          1.3357  -10.4594  -50.1567 C.3       0 UNK        -0.1800 
      2 C           1.8480  -11.0220  -48.8381 C.2       0 UNK         0.5000 
      3 O           1.0410  -11.4204  -48.0000 O.2       0 UNK        -0.5000 
      4 N           3.1785  -11.0622  -48.6778 N.am      1 UNK        -0.5000 
      5 CA          3.9477  -11.5143  -47.5078 C.3       1 UNK         0.1400 
      6 C6          3.5734  -12.9246  -46.9788 C.3       23 UNK        -0.0398 
      7 S7          3.6930  -14.2318  -48.2450 S.3       23 UNK        -0.2404 
      8 C8          1.9940  -14.8817  -48.2091 C.3       23 UNK        -0.0205 
      9 C9          1.8511  -16.1277  -49.0669 C.ar      23 UNK        -0.0193 
     10 C10         1.0845  -16.1013  -50.2335 C.ar      23 UNK        -0.1150 
     11 C11         0.9262  -17.2493  -51.0152 C.ar      23 UNK        -0.0193 
     12 C12         1.5635  -18.4323  -50.6116 C.ar      23 UNK        -0.1150 
     13 C13         2.3007  -18.4899  -49.4213 C.ar      23 UNK        -0.0193 
     14 C14         2.4537  -17.3230  -48.6700 C.ar      23 UNK        -0.1150 
     15 C15         2.9430  -19.7743  -48.8886 C.3       23 UNK        -0.0205 
     16 S16         2.5438  -21.3217  -49.7761 S.3       23 UNK        -0.2404 
     17 C17         0.7878  -21.5945  -49.3545 C.3       23 UNK        -0.0398 
     18 CA          0.6176  -22.7017  -48.2876 C.3       11 UNK         0.1400 
     19 N           0.9637  -22.2419  -46.9430 N.am      11 UNK        -0.5000 
     20 C           1.3836  -23.0448  -45.9566 C.2       10 UNK         0.5000 
     21 O           1.6080  -24.2469  -46.0989 O.2       10 UNK        -0.5000 
     22 CA          1.5539  -22.4038  -44.5668 C.3       10 UNK         0.1400 
     23 CB          2.9768  -21.8516  -44.3949 C.3       10 UNK        -0.1800 
     24 N           0.5780  -21.3419  -44.3115 N.am      10 UNK        -0.5000 
     25 C          -0.7358  -21.5596  -44.1473 C.2       9 UNK         0.5000 
     26 O          -1.2466  -22.6779  -44.1823 O.2       9 UNK        -0.5000 
     27 CA         -1.6443  -20.3324  -43.9429 C.3       9 UNK         0.1400 
     28 CB         -1.7922  -20.0275  -42.4448 C.3       9 UNK        -0.1800 
     29 N          -1.1950  -19.1265  -44.6391 N.am      9 UNK        -0.5000 
     30 C          -0.9553  -19.0211  -45.9541 C.2       8 UNK         0.5000 
     31 O          -1.1098  -19.9417  -46.7569 O.2       8 UNK        -0.5000 
     32 CA         -0.3731  -17.6832  -46.4419 C.3       8 UNK         0.1400 
     33 CB         -1.4908  -16.6894  -46.7812 C.3       8 UNK        -0.1800 
     34 N           0.5620  -17.0754  -45.4882 N.am      8 UNK        -0.5000 
     35 C           1.7010  -17.6511  -45.0718 C.2       7 UNK         0.5000 
     36 O           2.0775  -18.7633  -45.4393 O.2       7 UNK        -0.5000 
     37 CA          2.5444  -16.8733  -44.0508 C.3       7 UNK         0.1400 
     38 CB          3.3956  -15.7971  -44.7392 C.3       7 UNK        -0.1800 
     39 N           1.7000  -16.2674  -43.0230 N.am      7 UNK        -0.5000 
     40 C           1.2281  -16.9361  -41.9611 C.2       6 UNK         0.5000 
     41 O           1.5549  -18.0893  -41.6796 O.2       6 UNK        -0.5000 
     42 CA          0.1923  -16.2130  -41.0794 C.3       6 UNK         0.1400 
     43 CB          0.8729  -15.5078  -39.8980 C.3       6 UNK        -0.1800 
     44 N          -0.6201  -15.2493  -41.8246 N.am      6 UNK        -0.5000 
     45 C          -1.5404  -15.5980  -42.7357 C.2       5 UNK         0.5000 
     46 O          -1.7901  -16.7640  -43.0374 O.2       5 UNK        -0.5000 
     47 CA         -2.2839  -14.4631  -43.4630 C.3       5 UNK         0.1400 
     48 CB         -3.5682  -14.0953  -42.7058 C.3       5 UNK        -0.1800 
     49 N          -1.4861  -13.2547  -43.6671 N.am      5 UNK        -0.5000 
     50 C          -0.3179  -13.1803  -44.3191 C.2       4 UNK         0.5000 
     51 O           0.2597  -14.1577  -44.8028 O.2       4 UNK        -0.5000 
     52 CA          0.3300  -11.7836  -44.4265 C.3       4 UNK         0.1400 
     53 CB         -0.5614  -10.6273  -43.9203 C.3       4 UNK        -0.1800 
     54 N           1.6377  -11.7209  -43.7723 N.am      4 UNK        -0.5000 
     55 C           1.9410  -12.0536  -42.5076 C.2       3 UNK         0.5000 
     56 O           1.1255  -12.5157  -41.7080 O.2       3 UNK        -0.5000 
     57 CA          3.4017  -11.8416  -42.0545 C.3       3 UNK         0.1400 
     58 CB          4.0450  -13.1721  -41.6345 C.3       3 UNK        -0.1800 
     59 N           4.2344  -11.2237  -43.0913 N.am      3 UNK        -0.5000 
     60 C           4.3749   -9.9032  -43.2742 C.2       2 UNK         0.5000 
     61 O           3.8586   -9.0510  -42.5511 O.2       2 UNK        -0.5000 
     62 CA          5.2097   -9.4648  -44.4939 C.3       2 UNK         0.1400 
     63 CB          6.6980   -9.3718  -44.1242 C.3       2 UNK        -0.1800 
     64 N           5.0522  -10.3547  -45.6507 N.am      2 UNK        -0.5000 
     65 C           3.9193  -10.4871  -46.3556 C.2       1 UNK         0.5000 
     66 O           2.8875   -9.8697  -46.0876 O.2       1 UNK        -0.5000 
     67 C          -0.8091  -23.2800  -48.2978 C.2       11 UNK         0.5000 
     68 O          -1.0061  -24.3835  -48.8085 O.2       11 UNK        -0.5000 
     69 N          -1.7680  -22.5567  -47.7013 N.am      12 UNK        -0.5000 
     70 CA         -3.1920  -22.9063  -47.6912 C.3       12 UNK         0.1400 
     71 CB         -4.0052  -21.7263  -47.1408 C.3       12 UNK        -0.1800 
     72 C          -3.5233  -24.2043  -46.9300 C.2       12 UNK         0.5000 
     73 O          -4.5498  -24.8205  -47.2113 O.2       12 UNK        -0.5000 
     74 N          -2.6501  -24.6191  -46.0015 N.am      13 UNK        -0.5000 
     75 CA         -2.7214  -25.9102  -45.3150 C.3       13 UNK         0.1400 
     76 CB         -1.6935  -25.9355  -44.1734 C.3       13 UNK        -0.1800 
     77 C          -2.5049  -27.1140  -46.2549 C.2       13 UNK         0.5000 
     78 O          -3.0493  -28.1867  -45.9902 O.2       13 UNK        -0.5000 
     79 N          -1.7225  -26.9195  -47.3252 N.am      14 UNK        -0.5000 
     80 CA         -1.4630  -27.9212  -48.3564 C.3       14 UNK         0.1400 
     81 CB          0.0139  -27.8471  -48.7779 C.3       14 UNK        -0.1800 
     82 C          -2.3935  -27.7020  -49.5585 C.2       14 UNK         0.5000 
     83 O          -3.0940  -28.6276  -49.9709 O.2       14 UNK        -0.5000 
     84 N          -2.4016  -26.4730  -50.0874 N.am      15 UNK        -0.5000 
     85 CA         -3.2246  -26.0403  -51.2111 C.3       15 UNK         0.1400 
     86 CB         -2.4432  -24.9851  -52.0086 C.3       15 UNK        -0.1800 
     87 C          -4.5795  -25.5332  -50.6860 C.2       15 UNK         0.5000 
     88 O          -4.8260  -24.3248  -50.6399 O.2       15 UNK        -0.5000 
     89 N          -5.4221  -26.4923  -50.2785 N.am      16 UNK        -0.5000 
     90 CA         -6.6939  -26.3269  -49.5632 C.3       16 UNK         0.1400 
     91 CB         -7.2727  -27.7223  -49.2803 C.3       16 UNK        -0.1800 
     92 C          -7.7553  -25.4301  -50.2342 C.2       16 UNK         0.5000 
     93 O          -8.7075  -25.0275  -49.5644 O.2       16 UNK        -0.5000 
     94 N          -7.5812  -25.1178  -51.5253 N.am      17 UNK        -0.5000 
     95 CA         -8.3949  -24.1567  -52.2714 C.3       17 UNK         0.1400 
     96 CB         -8.0450  -24.2611  -53.7624 C.3       17 UNK        -0.1800 
     97 C          -8.2346  -22.7010  -51.7827 C.2       17 UNK         0.5000 
     98 O          -9.1290  -21.8908  -52.0285 O.2       17 UNK        -0.5000 
     99 N          -7.1094  -22.3967  -51.1151 N.am      18 UNK        -0.5000 
    100 CA        -6.7119  -21.1371  -50.4652 C.3       18 UNK         0.1400 
    101 CB        -7.6755  -20.7843  -49.3175 C.3       18 UNK        -0.1800 
    102 C         -6.5040  -19.9286  -51.4046 C.2       18 UNK         0.5000 
    103 O         -5.5788  -19.1472  -51.1820 O.2       18 UNK        -0.5000 
    104 N         -7.3497  -19.7862  -52.4291 N.am      19 UNK        -0.5000 
    105 CA        -7.2254  -18.7895  -53.4871 C.3       19 UNK         0.1400 
    106 CB        -8.6252  -18.3954  -53.9887 C.3       19 UNK        -0.1800 
    107 C         -6.3456  -19.3377  -54.6208 C.2       19 UNK         0.5000 
    108 O         -5.2710  -18.7940  -54.8820 O.2       19 UNK        -0.5000 
    109 N         -6.8116  -20.4184  -55.2636 N.am      20 UNK        -0.5000 
    110 CA        -6.1147  -21.1040  -56.3508 C.3       20 UNK         0.1400 
    111 CB        -7.0601  -22.1231  -57.0038 C.3       20 UNK        -0.1800 
    112 C         -4.8383  -21.7892  -55.8379 C.2       20 UNK         0.5000 
    113 O         -4.9030  -22.5308  -54.8548 O.2       20 UNK        -0.5000 
    114 N         -3.7031  -21.4950  -56.4882 N.am      21 UNK        -0.5000 
    115 CA        -2.3512  -21.9764  -56.1650 C.3       21 UNK         0.1400 
    116 CB        -2.2336  -23.4822  -56.4826 C.3       21 UNK        -0.1800 
    117 C         -1.8942  -21.6425  -54.7251 C.2       21 UNK         0.5000 
    118 O         -1.0607  -22.3588  -54.1685 O.2       21 UNK        -0.5000 
    119 N         -2.4672  -20.5756  -54.1476 N.am      22 UNK        -0.5000 
    120 CA        -2.3545  -20.1874  -52.7311 C.3       22 UNK         0.1400 
    121 C         -3.0180  -21.1978  -51.7433 C.2       22 UNK         0.5000 
    122 N         -3.8973  -22.0889  -52.1859 N.am      22 UNK        -0.7600 
    123 O         -2.7363  -21.1743  -50.5498 O.2       22 UNK        -0.5000 
    124 C124       -0.9062  -19.8364  -52.2907 C.3       23 UNK        -0.0398 
    125 S125       -0.0518  -18.6138  -53.3469 S.3       23 UNK        -0.2404 
    126 C126        0.0290  -17.1489  -52.2553 C.3       23 UNK        -0.0205 
    127 H127        0.7458  -11.2117  -50.6804 H         1 UNK         0.0600 
    128 H128        2.1504  -10.1501  -50.8119 H         1 UNK         0.0600 
    129 H129        0.7000   -9.5934  -49.9727 H         1 UNK         0.0600 
    130 H130        3.7504  -10.7026  -49.4288 H         1 UNK         0.3000 
    131 H131        4.9796  -11.5651  -47.8595 H         1 UNK         0.0600 
    132 H132        4.2470  -13.2099  -46.1692 H         1 UNK         0.0800 
    133 H133        2.5735  -12.9220  -46.5421 H         1 UNK         0.0800 
    134 H134        1.7125  -15.1226  -47.1844 H         1 UNK         0.0800 
    135 H135        1.3045  -14.1041  -48.5401 H         1 UNK         0.0800 
    136 H136        0.5988  -15.1823  -50.5313 H         1 UNK         0.1150 
    137 H137        1.4716  -19.3206  -51.2129 H         1 UNK         0.1150 
    138 H138        3.0314  -17.3479  -47.7570 H         1 UNK         0.1150 
    139 H139        4.0258  -19.6456  -48.9105 H         1 UNK         0.0800 
    140 H140        2.6719  -19.9024  -47.8398 H         1 UNK         0.0800 
    141 H141        0.2880  -21.8832  -50.2805 H         1 UNK         0.0800 
    142 H142        0.3182  -20.6620  -49.0370 H         1 UNK         0.0800 
    143 H143        1.2841  -23.5245  -48.5576 H         1 UNK         0.0600 
    144 H144        0.7512  -21.2775  -46.7257 H         1 UNK         0.3000 
    145 H145        1.4024  -23.1854  -43.8192 H         1 UNK         0.0600 
    146 H146        3.1059  -21.3828  -43.4191 H         1 UNK         0.0600 
    147 H147        3.2190  -21.1124  -45.1587 H         1 UNK         0.0600 
    148 H148        3.7141  -22.6515  -44.4726 H         1 UNK         0.0600 
    149 H149        0.9242  -20.3908  -44.3231 H         1 UNK         0.3000 
    150 H150       -2.6301  -20.5858  -44.3333 H         1 UNK         0.0600 
    151 H151       -2.1065  -20.9139  -41.8922 H         1 UNK         0.0600 
    152 H152       -2.5439  -19.2575  -42.2716 H         1 UNK         0.0600 
    153 H153       -0.8527  -19.6836  -42.0106 H         1 UNK         0.0600 
    154 H154       -1.1027  -18.2918  -44.0678 H         1 UNK         0.3000 
    155 H155        0.1760  -17.8928  -47.3592 H         1 UNK         0.0600 
    156 H156       -2.1182  -17.0746  -47.5859 H         1 UNK         0.0600 
    157 H157       -1.0860  -15.7326  -47.1122 H         1 UNK         0.0600 
    158 H158       -2.1369  -16.5082  -45.9235 H         1 UNK         0.0600 
    159 H159        0.3385  -16.1423  -45.1582 H         1 UNK         0.3000 
    160 H160        3.2298  -17.5853  -43.5854 H         1 UNK         0.0600 
    161 H161        2.7978  -14.9351  -45.0303 H         1 UNK         0.0600 
    162 H162        3.8765  -16.1864  -45.6377 H         1 UNK         0.0600 
    163 H163        4.1909  -15.4499  -44.0822 H         1 UNK         0.0600 
    164 H164        1.3360  -15.3436  -43.2167 H         1 UNK         0.3000 
    165 H165       -0.4771  -16.9748  -40.6735 H         1 UNK         0.0600 
    166 H166        0.1381  -15.0547  -39.2324 H         1 UNK         0.0600 
    167 H167        1.4574  -16.2131  -39.3059 H         1 UNK         0.0600 
    168 H168        1.5488  -14.7230  -40.2339 H         1 UNK         0.0600 
    169 H169       -0.4287  -14.2675  -41.6664 H         1 UNK         0.3000 
    170 H170       -2.5688  -14.8318  -44.4485 H         1 UNK         0.0600 
    171 H171       -3.3498  -13.6796  -41.7213 H         1 UNK         0.0600 
    172 H172       -4.1567  -13.3621  -43.2579 H         1 UNK         0.0600 
    173 H173       -4.2002  -14.9724  -42.5592 H         1 UNK         0.0600 
    174 H174       -1.8630  -12.4023  -43.2793 H         1 UNK         0.3000 
    175 H175        0.5087  -11.6176  -45.4877 H         1 UNK         0.0600 
    176 H176       -0.7632  -10.6990  -42.8508 H         1 UNK         0.0600 
    177 H177       -0.0796   -9.6655  -44.0978 H         1 UNK         0.0600 
    178 H178       -1.5173  -10.6034  -44.4452 H         1 UNK         0.0600 
    179 H179        2.3728  -11.3199  -44.3366 H         1 UNK         0.3000 
    180 H180        3.3760  -11.1921  -41.1770 H         1 UNK         0.0600 
    181 H181        5.0844  -13.0325  -41.3369 H         1 UNK         0.0600 
    182 H182        4.0209  -13.9026  -42.4408 H         1 UNK         0.0600 
    183 H183        3.5243  -13.6065  -40.7816 H         1 UNK         0.0600 
    184 H184        4.7118  -11.8505  -43.7219 H         1 UNK         0.3000 
    185 H185        4.8698   -8.4684  -44.7849 H         1 UNK         0.0600 
    186 H186        7.2875   -8.9840  -44.9552 H         1 UNK         0.0600 
    187 H187        6.8488   -8.6987  -43.2791 H         1 UNK         0.0600 
    188 H188        7.1070  -10.3440  -43.8462 H         1 UNK         0.0600 
    189 H189        5.8691  -10.8843  -45.9211 H         1 UNK         0.3000 
    190 H190       -1.5282  -21.6443  -47.3196 H         1 UNK         0.3000 
    191 H191       -3.4912  -23.0614  -48.7288 H         1 UNK         0.0600 
    192 H192       -3.8168  -20.8179  -47.7139 H         1 UNK         0.0600 
    193 H193       -3.7630  -21.5257  -46.0983 H         1 UNK         0.0600 
    194 H194       -5.0752  -21.9301  -47.1983 H         1 UNK         0.0600 
    195 H195       -1.8791  -24.0114  -45.7515 H         1 UNK         0.3000 
    196 H196       -3.7180  -26.0078  -44.8798 H         1 UNK         0.0600 
    197 H197       -1.9206  -25.1783  -43.4232 H         1 UNK         0.0600 
    198 H198       -0.6819  -25.7537  -44.5392 H         1 UNK         0.0600 
    199 H199       -1.6928  -26.9009  -43.6656 H         1 UNK         0.0600 
    200 H200       -1.3598  -25.9898  -47.5002 H         1 UNK         0.3000 
    201 H201       -1.6468  -28.9246  -47.9663 H         1 UNK         0.0600 
    202 H202        0.6719  -28.0653  -47.9367 H         1 UNK         0.0600 
    203 H203        0.2814  -26.8617  -49.1613 H         1 UNK         0.0600 
    204 H204        0.2333  -28.5751  -49.5599 H         1 UNK         0.0600 
    205 H205       -1.8360  -25.7467  -49.6517 H         1 UNK         0.3000 
    206 H206       -3.4148  -26.8819  -51.8805 H         1 UNK         0.0600 
    207 H207       -2.1788  -24.1261  -51.3911 H         1 UNK         0.0600 
    208 H208       -1.5171  -25.3998  -52.4062 H         1 UNK         0.0600 
    209 H209       -3.0240  -24.6248  -52.8585 H         1 UNK         0.0600 
    210 H210       -5.0894  -27.4452  -50.3485 H         1 UNK         0.3000 
    211 H211       -6.4634  -25.8605  -48.6052 H         1 UNK         0.0600 
    212 H212       -7.4911  -28.2598  -50.2038 H         1 UNK         0.0600 
    213 H213       -8.2008  -27.6567  -48.7106 H         1 UNK         0.0600 
    214 H214       -6.5785  -28.3260  -48.6950 H         1 UNK         0.0600 
    215 H215       -6.7687  -25.4876  -51.9958 H         1 UNK         0.3000 
    216 H216       -9.4443  -24.4309  -52.1453 H         1 UNK         0.0600 
    217 H217       -8.6609  -23.5829  -54.3542 H         1 UNK         0.0600 
    218 H218       -8.2185  -25.2687  -54.1405 H         1 UNK         0.0600 
    219 H219       -7.0009  -24.0070  -53.9480 H         1 UNK         0.0600 
    220 H220       -6.4357  -23.1475  -51.0030 H         1 UNK         0.3000 
    221 H221       -5.7394  -21.3431  -50.0147 H         1 UNK         0.0600 
    222 H222       -8.6780  -20.5593  -49.6824 H         1 UNK         0.0600 
    223 H223       -7.7535  -21.6051  -48.6043 H         1 UNK         0.0600 
    224 H224       -7.3233  -19.9096  -48.7695 H         1 UNK         0.0600 
    225 H225       -8.1014  -20.4669  -52.5053 H         1 UNK         0.3000 
    226 H226       -6.7475  -17.8894  -53.0944 H         1 UNK         0.0600 
    227 H227       -9.2017  -17.9175  -53.1964 H         1 UNK         0.0600 
    228 H228       -8.5587  -17.6858  -54.8144 H         1 UNK         0.0600 
    229 H229       -9.1956  -19.2568  -54.3379 H         1 UNK         0.0600 
    230 H230       -7.6814  -20.8277  -54.9592 H         1 UNK         0.3000 
    231 H231       -5.8462  -20.3585  -57.1024 H         1 UNK         0.0600 
    232 H232       -6.5769  -22.6141  -57.8495 H         1 UNK         0.0600 
    233 H233       -7.9627  -21.6416  -57.3803 H         1 UNK         0.0600 
    234 H234       -7.3610  -22.9023  -56.3038 H         1 UNK         0.0600 
    235 H235       -3.7536  -20.8522  -57.2666 H         1 UNK         0.3000 
    236 H236       -1.6684  -21.4435  -56.8281 H         1 UNK         0.0600 
    237 H237       -2.8390  -24.0855  -55.8051 H         1 UNK         0.0600 
    238 H238       -2.5548  -23.6973  -57.5017 H         1 UNK         0.0600 
    239 H239       -1.2021  -23.8241  -56.3909 H         1 UNK         0.0600 
    240 H240       -3.1498  -20.0552  -54.6818 H         1 UNK         0.3000 
    241 H241       -2.9489  -19.2783  -52.6344 H         1 UNK         0.0600 
    242 H242       -4.1493  -22.1535  -53.1680 H         1 UNK         0.3800 
    243 H243       -4.2493  -22.7824  -51.5352 H         1 UNK         0.3800 
    244 H244       -0.2911  -20.7361  -52.2688 H         1 UNK         0.0800 
    245 H245       -0.9226  -19.4624  -51.2662 H         1 UNK         0.0800 
    246 H246        0.3717  -16.3081  -52.8600 H         1 UNK         0.0800 
    247 H247       -0.9844  -16.9019  -51.9353 H         1 UNK         0.0800 
@<TRIPOS>BOND
     1    1    2 1    
     2    1  127 1    
     3    1  128 1    
     4    1  129 1    
     5    2    3 2    
     6    2    4 am   BACKBONE|DICT|INTERRES
     7    4    5 1    
     8    4  130 1    
     9    5    6 1    
    10    5   65 1    
    11    5  131 1    
    12    6    7 1    
    13    6  132 1    
    14    6  133 1    
    15    7    8 1    
    16    8    9 1    
    17    8  134 1    
    18    8  135 1    
    19    9   10 ar   
    20    9   14 ar   
    21   10   11 ar   
    22   10  136 1    
    23   11   12 ar   
    24   11  126 1    
    25   12   13 ar   
    26   12  137 1    
    27   13   14 ar   
    28   13   15 1    
    29   14  138 1    
    30   15   16 1    
    31   15  139 1    
    32   15  140 1    
    33   16   17 1    
    34   17   18 1    
    35   17  141 1    
    36   17  142 1    
    37   18   19 1    
    38   18   67 1    
    39   18  143 1    
    40   19   20 am   BACKBONE|DICT|INTERRES
    41   19  144 1    
    42   20   21 2    
    43   20   22 1    
    44   22   23 1    
    45   22   24 1    
    46   22  145 1    
    47   23  146 1    
    48   23  147 1    
    49   23  148 1    
    50   24   25 am   BACKBONE|DICT|INTERRES
    51   24  149 1    
    52   25   26 2    
    53   25   27 1    
    54   27   28 1    
    55   27   29 1    
    56   27  150 1    
    57   28  151 1    
    58   28  152 1    
    59   28  153 1    
    60   29   30 am   BACKBONE|DICT|INTERRES
    61   29  154 1    
    62   30   31 2    
    63   30   32 1    
    64   32   33 1    
    65   32   34 1    
    66   32  155 1    
    67   33  156 1    
    68   33  157 1    
    69   33  158 1    
    70   34   35 am   BACKBONE|DICT|INTERRES
    71   34  159 1    
    72   35   36 2    
    73   35   37 1    
    74   37   38 1    
    75   37   39 1    
    76   37  160 1    
    77   38  161 1    
    78   38  162 1    
    79   38  163 1    
    80   39   40 am   BACKBONE|DICT|INTERRES
    81   39  164 1    
    82   40   41 2    
    83   40   42 1    
    84   42   43 1    
    85   42   44 1    
    86   42  165 1    
    87   43  166 1    
    88   43  167 1    
    89   43  168 1    
    90   44   45 am   BACKBONE|DICT|INTERRES
    91   44  169 1    
    92   45   46 2    
    93   45   47 1    
    94   47   48 1    
    95   47   49 1    
    96   47  170 1    
    97   48  171 1    
    98   48  172 1    
    99   48  173 1    
   100   49   50 am   BACKBONE|DICT|INTERRES
   101   49  174 1    
   102   50   51 2    
   103   50   52 1    
   104   52   53 1    
   105   52   54 1    
   106   52  175 1    
   107   53  176 1    
   108   53  177 1    
   109   53  178 1    
   110   54   55 am   BACKBONE|DICT|INTERRES
   111   54  179 1    
   112   55   56 2    
   113   55   57 1    
   114   57   58 1    
   115   57   59 1    
   116   57  180 1    
   117   58  181 1    
   118   58  182 1    
   119   58  183 1    
   120   59   60 am   BACKBONE|DICT|INTERRES
   121   59  184 1    
   122   60   61 2    
   123   60   62 1    
   124   62   63 1    
   125   62   64 1    
   126   62  185 1    
   127   63  186 1    
   128   63  187 1    
   129   63  188 1    
   130   64   65 am   BACKBONE|DICT|INTERRES
   131   64  189 1    
   132   65   66 2    
   133   67   68 2    
   134   67   69 am   BACKBONE|DICT|INTERRES
   135   69   70 1    
   136   69  190 1    
   137   70   71 1    
   138   70   72 1    
   139   70  191 1    
   140   71  192 1    
   141   71  193 1    
   142   71  194 1    
   143   72   73 2    
   144   72   74 am   BACKBONE|DICT|INTERRES
   145   74   75 1    
   146   74  195 1    
   147   75   76 1    
   148   75   77 1    
   149   75  196 1    
   150   76  197 1    
   151   76  198 1    
   152   76  199 1    
   153   77   78 2    
   154   77   79 am   BACKBONE|DICT|INTERRES
   155   79   80 1    
   156   79  200 1    
   157   80   81 1    
   158   80   82 1    
   159   80  201 1    
   160   81  202 1    
   161   81  203 1    
   162   81  204 1    
   163   82   83 2    
   164   82   84 am   BACKBONE|DICT|INTERRES
   165   84   85 1    
   166   84  205 1    
   167   85   86 1    
   168   85   87 1    
   169   85  206 1    
   170   86  207 1    
   171   86  208 1    
   172   86  209 1    
   173   87   88 2    
   174   87   89 am   BACKBONE|DICT|INTERRES
   175   89   90 1    
   176   89  210 1    
   177   90   91 1    
   178   90   92 1    
   179   90  211 1    
   180   91  212 1    
   181   91  213 1    
   182   91  214 1    
   183   92   93 2    
   184   92   94 am   BACKBONE|DICT|INTERRES
   185   94   95 1    
   186   94  215 1    
   187   95   96 1    
   188   95   97 1    
   189   95  216 1    
   190   96  217 1    
   191   96  218 1    
   192   96  219 1    
   193   97   98 2    
   194   97   99 am   BACKBONE|DICT|INTERRES
   195   99  100 1    
   196   99  220 1    
   197  100  101 1    
   198  100  102 1    
   199  100  221 1    
   200  101  222 1    
   201  101  223 1    
   202  101  224 1    
   203  102  103 2    
   204  102  104 am   BACKBONE|DICT|INTERRES
   205  104  105 1    
   206  104  225 1    
   207  105  106 1    
   208  105  107 1    
   209  105  226 1    
   210  106  227 1    
   211  106  228 1    
   212  106  229 1    
   213  107  108 2    
   214  107  109 am   BACKBONE|DICT|INTERRES
   215  109  110 1    
   216  109  230 1    
   217  110  111 1    
   218  110  112 1    
   219  110  231 1    
   220  111  232 1    
   221  111  233 1    
   222  111  234 1    
   223  112  113 2    
   224  112  114 am   BACKBONE|DICT|INTERRES
   225  114  115 1    
   226  114  235 1    
   227  115  116 1    
   228  115  117 1    
   229  115  236 1    
   230  116  237 1    
   231  116  238 1    
   232  116  239 1    
   233  117  118 2    
   234  117  119 am   BACKBONE|DICT|INTERRES
   235  119  120 1    
   236  119  240 1    
   237  120  121 1    
   238  120  124 1    
   239  120  241 1    
   240  121  122 am   BACKBONE|DICT|INTERRES
   241  121  123 2    
   242  122  242 1    
   243  122  243 1    
   244  124  125 1    
   245  124  244 1    
   246  124  245 1    
   247  125  126 1    
   248  126  246 1    
   249  126  247 1    
@<TRIPOS>SUBSTRUCTURE
     1 UNK         1 GROUP             0       ****    0 ROOT    
