@<TRIPOS>MOLECULE
3R540
247   249    1
SMALL
USER_CHARGES


@<TRIPOS>ATOM
      1 CA         -3.2085  -14.8789  -51.2687 C.3       0 UNK        -0.1800 
      2 C          -1.7724  -15.1643  -50.8303 C.2       0 UNK         0.5000 
      3 O          -0.9015  -14.3284  -51.0593 O.2       0 UNK        -0.5000 
      4 N          -1.4594  -16.3156  -50.2165 N.am      1 UNK        -0.5000 
      5 CA         -2.3420  -17.4238  -49.8264 C.3       1 UNK         0.1400 
      6 C6         -3.0586  -18.1001  -51.0297 C.3       23 UNK        -0.0398 
      7 S7         -3.1618  -19.9144  -50.8473 S.3       23 UNK        -0.2404 
      8 C8         -1.8349  -20.4996  -51.9578 C.3       23 UNK        -0.0205 
      9 C9         -0.5214  -19.7759  -51.7160 C.ar      23 UNK        -0.0193 
     10 C10        -0.0243  -18.8900  -52.6724 C.ar      23 UNK        -0.1150 
     11 C11         1.1506  -18.1743  -52.4384 C.ar      23 UNK        -0.0193 
     12 C12         1.8378  -18.3531  -51.2331 C.ar      23 UNK        -0.1150 
     13 C13         1.3506  -19.2442  -50.2706 C.ar      23 UNK        -0.0193 
     14 C14         0.1790  -19.9613  -50.5243 C.ar      23 UNK        -0.1150 
     15 C15         2.0497  -19.4123  -48.9340 C.3       23 UNK        -0.0205 
     16 S16         2.8455  -21.0444  -48.7952 S.3       23 UNK        -0.2404 
     17 C17         2.7412  -21.2990  -46.9900 C.3       23 UNK        -0.0398 
     18 CA          1.6979  -22.3383  -46.4967 C.3       11 UNK         0.1400 
     19 N           1.5834  -22.2797  -45.0382 N.am      11 UNK        -0.5000 
     20 C           0.9300  -23.1588  -44.2675 C.2       10 UNK         0.5000 
     21 O           0.3850  -24.1779  -44.6933 O.2       10 UNK        -0.5000 
     22 CA          0.8386  -22.8079  -42.7700 C.3       10 UNK         0.1400 
     23 CB          2.1404  -23.1722  -42.0406 C.3       10 UNK        -0.1800 
     24 N           0.5321  -21.3934  -42.5420 N.am      10 UNK        -0.5000 
     25 C          -0.6098  -20.7995  -42.9180 C.2       9 UNK         0.5000 
     26 O          -1.5395  -21.3890  -43.4647 O.2       9 UNK        -0.5000 
     27 CA         -0.7183  -19.2843  -42.6866 C.3       9 UNK         0.1400 
     28 CB         -1.0099  -18.9863  -41.2074 C.3       9 UNK        -0.1800 
     29 N           0.4828  -18.5661  -43.1097 N.am      9 UNK        -0.5000 
     30 C           0.9623  -18.5263  -44.3612 C.2       8 UNK         0.5000 
     31 O           0.4230  -19.0705  -45.3206 O.2       8 UNK        -0.5000 
     32 CA          2.3100  -17.8164  -44.5678 C.3       8 UNK         0.1400 
     33 CB          2.1211  -16.2988  -44.7005 C.3       8 UNK        -0.1800 
     34 N           3.2531  -18.1154  -43.4905 N.am      8 UNK        -0.5000 
     35 C           3.7801  -19.3275  -43.2615 C.2       7 UNK         0.5000 
     36 O           3.5513  -20.3178  -43.9570 O.2       7 UNK        -0.5000 
     37 CA          4.6779  -19.4601  -42.0188 C.3       7 UNK         0.1400 
     38 CB          6.1043  -18.9800  -42.3251 C.3       7 UNK        -0.1800 
     39 N           4.1490  -18.7183  -40.8728 N.am      7 UNK        -0.5000 
     40 C           3.0268  -19.0468  -40.2173 C.2       6 UNK         0.5000 
     41 O           2.3431  -20.0354  -40.4865 O.2       6 UNK        -0.5000 
     42 CA          2.5682  -18.0752  -39.1109 C.3       6 UNK         0.1400 
     43 CB          3.2978  -18.3722  -37.7924 C.3       6 UNK        -0.1800 
     44 N           2.7489  -16.6604  -39.4631 N.am      6 UNK        -0.5000 
     45 C           2.1438  -16.0643  -40.4980 C.2       5 UNK         0.5000 
     46 O           1.3871  -16.6590  -41.2708 O.2       5 UNK        -0.5000 
     47 CA          2.4489  -14.5781  -40.7432 C.3       5 UNK         0.1400 
     48 CB          3.8929  -14.3830  -41.2414 C.3       5 UNK        -0.1800 
     49 N           1.5069  -14.1224  -41.7562 N.am      5 UNK        -0.5000 
     50 C           1.1708  -12.8733  -42.0863 C.2       4 UNK         0.5000 
     51 O           1.6564  -11.8699  -41.5631 O.2       4 UNK        -0.5000 
     52 CA          0.1052  -12.7258  -43.1955 C.3       4 UNK         0.1400 
     53 CB          0.7726  -12.3847  -44.5367 C.3       4 UNK        -0.1800 
     54 N          -0.7144  -13.9300  -43.3757 N.am      4 UNK        -0.5000 
     55 C          -1.6493  -14.3600  -42.5199 C.2       3 UNK         0.5000 
     56 O          -1.9867  -13.7316  -41.5152 O.2       3 UNK        -0.5000 
     57 CA         -2.3011  -15.7209  -42.8459 C.3       3 UNK         0.1400 
     58 CB         -3.2604  -16.1988  -41.7405 C.3       3 UNK        -0.1800 
     59 N          -3.0256  -15.7213  -44.1173 N.am      3 UNK        -0.5000 
     60 C          -2.4756  -15.7702  -45.3355 C.2       2 UNK         0.5000 
     61 O          -1.2582  -15.7728  -45.5395 O.2       2 UNK        -0.5000 
     62 CA         -3.4569  -15.8040  -46.5161 C.3       2 UNK         0.1400 
     63 CB         -4.0500  -14.4110  -46.7871 C.3       2 UNK        -0.1800 
     64 N          -2.7600  -16.2674  -47.7097 N.am      2 UNK        -0.5000 
     65 C          -3.2831  -17.0484  -48.6605 C.2       1 UNK         0.5000 
     66 O          -4.4475  -17.4521  -48.6482 O.2       1 UNK        -0.5000 
     67 C           0.3097  -22.2303  -47.1755 C.2       11 UNK         0.5000 
     68 O           0.0014  -23.0328  -48.0570 O.2       11 UNK        -0.5000 
     69 N          -0.5174  -21.2754  -46.7261 N.am      12 UNK        -0.5000 
     70 CA         -1.8912  -21.0697  -47.1814 C.3       12 UNK         0.1400 
     71 CB         -2.4554  -19.7815  -46.5649 C.3       12 UNK        -0.1800 
     72 C          -2.8043  -22.2642  -46.8709 C.2       12 UNK         0.5000 
     73 O          -3.5142  -22.7239  -47.7642 O.2       12 UNK        -0.5000 
     74 N          -2.7499  -22.7669  -45.6291 N.am      13 UNK        -0.5000 
     75 CA         -3.5539  -23.8867  -45.1312 C.3       13 UNK         0.1400 
     76 CB         -3.2492  -24.1220  -43.6448 C.3       13 UNK        -0.1800 
     77 C          -3.3749  -25.1905  -45.9286 C.2       13 UNK         0.5000 
     78 O          -4.3460  -25.9278  -46.0985 O.2       13 UNK        -0.5000 
     79 N          -2.1665  -25.4208  -46.4607 N.am      14 UNK        -0.5000 
     80 CA         -1.8463  -26.5411  -47.3498 C.3       14 UNK         0.1400 
     81 CB         -0.3271  -26.5867  -47.5719 C.3       14 UNK        -0.1800 
     82 C          -2.5945  -26.4978  -48.7010 C.2       14 UNK         0.5000 
     83 O          -2.7816  -27.5469  -49.3180 O.2       14 UNK        -0.5000 
     84 N          -3.0254  -25.3013  -49.1219 N.am      15 UNK        -0.5000 
     85 CA         -3.8310  -25.0527  -50.3187 C.3       15 UNK         0.1400 
     86 CB         -3.1822  -23.8962  -51.0960 C.3       15 UNK        -0.1800 
     87 C          -5.2978  -24.7173  -49.9720 C.2       15 UNK         0.5000 
     88 O          -6.0613  -24.3750  -50.8750 O.2       15 UNK        -0.5000 
     89 N          -5.6598  -24.7950  -48.6807 N.am      16 UNK        -0.5000 
     90 CA         -6.9447  -24.4146  -48.0775 C.3       16 UNK         0.1400 
     91 CB         -8.0949  -25.2889  -48.6198 C.3       16 UNK        -0.1800 
     92 C          -7.2553  -22.8999  -48.1492 C.2       16 UNK         0.5000 
     93 O          -8.4152  -22.5135  -47.9938 O.2       16 UNK        -0.5000 
     94 N          -6.2068  -22.0827  -48.3326 N.am      17 UNK        -0.5000 
     95 CA         -6.1657  -20.6216  -48.4496 C.3       17 UNK         0.1400 
     96 CB         -6.6641  -19.9550  -47.1524 C.3       17 UNK        -0.1800 
     97 C          -6.8798  -20.0496  -49.6930 C.2       17 UNK         0.5000 
     98 O          -7.7061  -20.7122  -50.3220 O.2       17 UNK        -0.5000 
     99 N          -6.5220  -18.8012  -50.0264 N.am      18 UNK        -0.5000 
    100 CA        -7.0791  -17.9484  -51.0855 C.3       18 UNK         0.1400 
    101 CB        -8.5509  -17.6052  -50.7765 C.3       18 UNK        -0.1800 
    102 C         -6.8967  -18.4640  -52.5326 C.2       18 UNK         0.5000 
    103 O         -7.4884  -17.8922  -53.4494 O.2       18 UNK        -0.5000 
    104 N         -6.0808  -19.5092  -52.7326 N.am      19 UNK        -0.5000 
    105 CA        -5.8276  -20.1242  -54.0387 C.3       19 UNK         0.1400 
    106 CB        -5.2016  -21.5126  -53.8347 C.3       19 UNK        -0.1800 
    107 C         -4.9537  -19.2489  -54.9585 C.2       19 UNK         0.5000 
    108 O         -5.1819  -19.2323  -56.1687 O.2       19 UNK        -0.5000 
    109 N         -3.9985  -18.5225  -54.3561 N.am      20 UNK        -0.5000 
    110 CA        -3.0687  -17.5749  -54.9836 C.3       20 UNK         0.1400 
    111 CB        -3.8269  -16.2941  -55.3988 C.3       20 UNK        -0.1800 
    112 C         -2.2330  -18.2199  -56.1152 C.2       20 UNK         0.5000 
    113 O         -1.6931  -19.3084  -55.9128 O.2       20 UNK        -0.5000 
    114 N         -2.1378  -17.5388  -57.2665 N.am      21 UNK        -0.5000 
    115 CA        -1.5007  -17.9740  -58.5165 C.3       21 UNK         0.1400 
    116 CB        -2.1703  -19.2535  -59.0636 C.3       21 UNK        -0.1800 
    117 C          0.0402  -18.0796  -58.4676 C.2       21 UNK         0.5000 
    118 O          0.6259  -18.7565  -59.3155 O.2       21 UNK        -0.5000 
    119 N          0.6812  -17.3842  -57.5186 N.am      22 UNK        -0.5000 
    120 CA         2.1419  -17.1922  -57.4904 C.3       22 UNK         0.1400 
    121 C          2.6089  -16.1753  -58.5695 C.2       22 UNK         0.5000 
    122 N          3.7882  -16.3685  -59.1442 N.am      22 UNK        -0.7600 
    123 O          1.9312  -15.1921  -58.8626 O.2       22 UNK        -0.5000 
    124 C124        2.6554  -16.7675  -56.0916 C.3       23 UNK        -0.0398 
    125 S125        2.4518  -18.0957  -54.8595 S.3       23 UNK        -0.2404 
    126 C126        1.6514  -17.2035  -53.4938 C.3       23 UNK        -0.0205 
    127 H127       -3.4784  -15.4944  -52.1260 H         1 UNK         0.0600 
    128 H128       -3.3087  -13.8362  -51.5706 H         1 UNK         0.0600 
    129 H129       -3.9251  -15.0509  -50.4675 H         1 UNK         0.0600 
    130 H130       -0.4888  -16.4576  -49.9752 H         1 UNK         0.3000 
    131 H131       -1.6579  -18.1547  -49.3942 H         1 UNK         0.0600 
    132 H132       -2.5203  -17.8822  -51.9494 H         1 UNK         0.0800 
    133 H133       -4.0587  -17.6969  -51.1864 H         1 UNK         0.0800 
    134 H134       -2.1500  -20.3794  -52.9951 H         1 UNK         0.0800 
    135 H135       -1.6830  -21.5681  -51.8079 H         1 UNK         0.0800 
    136 H136       -0.5526  -18.7511  -53.6031 H         1 UNK         0.1150 
    137 H137        2.7439  -17.7952  -51.0426 H         1 UNK         0.1150 
    138 H138       -0.1995  -20.6496  -49.7833 H         1 UNK         0.1150 
    139 H139        2.7980  -18.6334  -48.7806 H         1 UNK         0.0800 
    140 H140        1.3057  -19.2848  -48.1456 H         1 UNK         0.0800 
    141 H141        2.5577  -20.3363  -46.5145 H         1 UNK         0.0800 
    142 H142        3.7313  -21.5991  -46.6442 H         1 UNK         0.0800 
    143 H143        2.0858  -23.3281  -46.7467 H         1 UNK         0.0600 
    144 H144        2.0375  -21.4921  -44.5868 H         1 UNK         0.3000 
    145 H145        0.0288  -23.4001  -42.3388 H         1 UNK         0.0600 
    146 H146        2.0531  -22.9946  -40.9685 H         1 UNK         0.0600 
    147 H147        2.9855  -22.5882  -42.4066 H         1 UNK         0.0600 
    148 H148        2.3837  -24.2264  -42.1780 H         1 UNK         0.0600 
    149 H149        1.2346  -20.8428  -42.0596 H         1 UNK         0.3000 
    150 H150       -1.5525  -18.9109  -43.2838 H         1 UNK         0.0600 
    151 H151       -1.9715  -19.4057  -40.9097 H         1 UNK         0.0600 
    152 H152       -1.0455  -17.9159  -41.0126 H         1 UNK         0.0600 
    153 H153       -0.2513  -19.4109  -40.5505 H         1 UNK         0.0600 
    154 H154        0.9726  -18.0441  -42.3871 H         1 UNK         0.3000 
    155 H155        2.7435  -18.1799  -45.5013 H         1 UNK         0.0600 
    156 H156        1.5127  -16.0616  -45.5740 H         1 UNK         0.0600 
    157 H157        3.0755  -15.7861  -44.8202 H         1 UNK         0.0600 
    158 H158        1.6175  -15.8780  -43.8332 H         1 UNK         0.0600 
    159 H159        3.4600  -17.3694  -42.8450 H         1 UNK         0.3000 
    160 H160        4.7233  -20.5181  -41.7515 H         1 UNK         0.0600 
    161 H161        6.1296  -17.9189  -42.5765 H         1 UNK         0.0600 
    162 H162        6.5269  -19.5277  -43.1685 H         1 UNK         0.0600 
    163 H163        6.7647  -19.1389  -41.4724 H         1 UNK         0.0600 
    164 H164        4.6522  -17.8917  -40.5867 H         1 UNK         0.3000 
    165 H165        1.5008  -18.2433  -38.9524 H         1 UNK         0.0600 
    166 H166        2.9108  -17.7564  -36.9803 H         1 UNK         0.0600 
    167 H167        3.1651  -19.4146  -37.4992 H         1 UNK         0.0600 
    168 H168        4.3696  -18.1876  -37.8732 H         1 UNK         0.0600 
    169 H169        3.3606  -16.1195  -38.8688 H         1 UNK         0.3000 
    170 H170        2.2856  -14.0241  -39.8171 H         1 UNK         0.0600 
    171 H171        4.0760  -14.9303  -42.1669 H         1 UNK         0.0600 
    172 H172        4.1079  -13.3312  -41.4299 H         1 UNK         0.0600 
    173 H173        4.6168  -14.7300  -40.5034 H         1 UNK         0.0600 
    174 H174        1.0110  -14.8879  -42.1949 H         1 UNK         0.3000 
    175 H175       -0.5507  -11.8986  -42.9166 H         1 UNK         0.0600 
    176 H176        1.4346  -13.1846  -44.8710 H         1 UNK         0.0600 
    177 H177        0.0288  -12.2172  -45.3160 H         1 UNK         0.0600 
    178 H178        1.3697  -11.4753  -44.4569 H         1 UNK         0.0600 
    179 H179       -0.5490  -14.4851  -44.2101 H         1 UNK         0.3000 
    180 H180       -1.4869  -16.4436  -42.9149 H         1 UNK         0.0600 
    181 H181       -4.1274  -15.5435  -41.6486 H         1 UNK         0.0600 
    182 H182       -2.7641  -16.2216  -40.7695 H         1 UNK         0.0600 
    183 H183       -3.6215  -17.2076  -41.9417 H         1 UNK         0.0600 
    184 H184       -4.0319  -15.6766  -44.0449 H         1 UNK         0.3000 
    185 H185       -4.2603  -16.4992  -46.2622 H         1 UNK         0.0600 
    186 H186       -3.2733  -13.6863  -47.0348 H         1 UNK         0.0600 
    187 H187       -4.7566  -14.4398  -47.6169 H         1 UNK         0.0600 
    188 H188       -4.5881  -14.0334  -45.9169 H         1 UNK         0.0600 
    189 H189       -1.7802  -16.0166  -47.7459 H         1 UNK         0.3000 
    190 H190       -0.1738  -20.6120  -46.0339 H         1 UNK         0.3000 
    191 H191       -1.8718  -20.9456  -48.2645 H         1 UNK         0.0600 
    192 H192       -1.8404  -18.9212  -46.8263 H         1 UNK         0.0600 
    193 H193       -2.4978  -19.8363  -45.4774 H         1 UNK         0.0600 
    194 H194       -3.4665  -19.5846  -46.9212 H         1 UNK         0.0600 
    195 H195       -2.1587  -22.3036  -44.9416 H         1 UNK         0.3000 
    196 H196       -4.6024  -23.5951  -45.2206 H         1 UNK         0.0600 
    197 H197       -3.5021  -23.2461  -43.0475 H         1 UNK         0.0600 
    198 H198       -2.1943  -24.3458  -43.4825 H         1 UNK         0.0600 
    199 H199       -3.8284  -24.9587  -43.2520 H         1 UNK         0.0600 
    200 H200       -1.4204  -24.7650  -46.2658 H         1 UNK         0.3000 
    201 H201       -2.1429  -27.4613  -46.8424 H         1 UNK         0.0600 
    202 H202        0.2096  -26.6542  -46.6253 H         1 UNK         0.0600 
    203 H203        0.0291  -25.7001  -48.0966 H         1 UNK         0.0600 
    204 H204       -0.0460  -27.4551  -48.1689 H         1 UNK         0.0600 
    205 H205       -2.8468  -24.4865  -48.5440 H         1 UNK         0.3000 
    206 H206       -3.8433  -25.9342  -50.9624 H         1 UNK         0.0600 
    207 H207       -2.1463  -24.1225  -51.3489 H         1 UNK         0.0600 
    208 H208       -3.1917  -22.9748  -50.5133 H         1 UNK         0.0600 
    209 H209       -3.7094  -23.7008  -52.0304 H         1 UNK         0.0600 
    210 H210       -4.9600  -25.1110  -48.0209 H         1 UNK         0.3000 
    211 H211       -6.8431  -24.6403  -47.0151 H         1 UNK         0.0600 
    212 H212       -8.3242  -25.0584  -49.6603 H         1 UNK         0.0600 
    213 H213       -9.0083  -25.1341  -48.0445 H         1 UNK         0.0600 
    214 H214       -7.8493  -26.3488  -48.5554 H         1 UNK         0.0600 
    215 H215       -5.2929  -22.5234  -48.3909 H         1 UNK         0.3000 
    216 H216       -5.1086  -20.3775  -48.5590 H         1 UNK         0.0600 
    217 H217       -6.4966  -18.8775  -47.1754 H         1 UNK         0.0600 
    218 H218       -6.1352  -20.3440  -46.2822 H         1 UNK         0.0600 
    219 H219       -7.7314  -20.1143  -46.9976 H         1 UNK         0.0600 
    220 H220       -5.8087  -18.3475  -49.4560 H         1 UNK         0.3000 
    221 H221       -6.5142  -17.0166  -51.0352 H         1 UNK         0.0600 
    222 H222       -8.6588  -17.2065  -49.7677 H         1 UNK         0.0600 
    223 H223       -8.9328  -16.8491  -51.4634 H         1 UNK         0.0600 
    224 H224       -9.1965  -18.4797  -50.8625 H         1 UNK         0.0600 
    225 H225       -5.6497  -19.9424  -51.9289 H         1 UNK         0.3000 
    226 H226       -6.7890  -20.2642  -54.5376 H         1 UNK         0.0600 
    227 H227       -5.8574  -22.1585  -53.2499 H         1 UNK         0.0600 
    228 H228       -5.0278  -22.0066  -54.7915 H         1 UNK         0.0600 
    229 H229       -4.2452  -21.4565  -53.3176 H         1 UNK         0.0600 
    230 H230       -3.8955  -18.6509  -53.3621 H         1 UNK         0.3000 
    231 H231       -2.3516  -17.2864  -54.2154 H         1 UNK         0.0600 
    232 H232       -3.1416  -15.5128  -55.7295 H         1 UNK         0.0600 
    233 H233       -4.3880  -15.8855  -54.5581 H         1 UNK         0.0600 
    234 H234       -4.5381  -16.4834  -56.2039 H         1 UNK         0.0600 
    235 H235       -2.6113  -16.6475  -57.3180 H         1 UNK         0.3000 
    236 H236       -1.7068  -17.1792  -59.2346 H         1 UNK         0.0600 
    237 H237       -1.9388  -20.1257  -58.4518 H         1 UNK         0.0600 
    238 H238       -3.2547  -19.1474  -59.0990 H         1 UNK         0.0600 
    239 H239       -1.8343  -19.4699  -60.0783 H         1 UNK         0.0600 
    240 H240        0.1380  -16.8309  -56.8745 H         1 UNK         0.3000 
    241 H241        2.6057  -18.1516  -57.7304 H         1 UNK         0.0600 
    242 H242        4.1102  -15.7090  -59.8360 H         1 UNK         0.3800 
    243 H243        4.3648  -17.1644  -58.9165 H         1 UNK         0.3800 
    244 H244        2.1532  -15.8574  -55.7596 H         1 UNK         0.0800 
    245 H245        3.7200  -16.5290  -56.1283 H         1 UNK         0.0800 
    246 H246        2.3555  -16.4909  -53.0615 H         1 UNK         0.0800 
    247 H247        0.8105  -16.6213  -53.8741 H         1 UNK         0.0800 
@<TRIPOS>BOND
     1    1    2 1    
     2    1  127 1    
     3    1  128 1    
     4    1  129 1    
     5    2    3 2    
     6    2    4 am   BACKBONE|DICT|INTERRES
     7    4    5 1    
     8    4  130 1    
     9    5    6 1    
    10    5   65 1    
    11    5  131 1    
    12    6    7 1    
    13    6  132 1    
    14    6  133 1    
    15    7    8 1    
    16    8    9 1    
    17    8  134 1    
    18    8  135 1    
    19    9   10 ar   
    20    9   14 ar   
    21   10   11 ar   
    22   10  136 1    
    23   11   12 ar   
    24   11  126 1    
    25   12   13 ar   
    26   12  137 1    
    27   13   14 ar   
    28   13   15 1    
    29   14  138 1    
    30   15   16 1    
    31   15  139 1    
    32   15  140 1    
    33   16   17 1    
    34   17   18 1    
    35   17  141 1    
    36   17  142 1    
    37   18   19 1    
    38   18   67 1    
    39   18  143 1    
    40   19   20 am   BACKBONE|DICT|INTERRES
    41   19  144 1    
    42   20   21 2    
    43   20   22 1    
    44   22   23 1    
    45   22   24 1    
    46   22  145 1    
    47   23  146 1    
    48   23  147 1    
    49   23  148 1    
    50   24   25 am   BACKBONE|DICT|INTERRES
    51   24  149 1    
    52   25   26 2    
    53   25   27 1    
    54   27   28 1    
    55   27   29 1    
    56   27  150 1    
    57   28  151 1    
    58   28  152 1    
    59   28  153 1    
    60   29   30 am   BACKBONE|DICT|INTERRES
    61   29  154 1    
    62   30   31 2    
    63   30   32 1    
    64   32   33 1    
    65   32   34 1    
    66   32  155 1    
    67   33  156 1    
    68   33  157 1    
    69   33  158 1    
    70   34   35 am   BACKBONE|DICT|INTERRES
    71   34  159 1    
    72   35   36 2    
    73   35   37 1    
    74   37   38 1    
    75   37   39 1    
    76   37  160 1    
    77   38  161 1    
    78   38  162 1    
    79   38  163 1    
    80   39   40 am   BACKBONE|DICT|INTERRES
    81   39  164 1    
    82   40   41 2    
    83   40   42 1    
    84   42   43 1    
    85   42   44 1    
    86   42  165 1    
    87   43  166 1    
    88   43  167 1    
    89   43  168 1    
    90   44   45 am   BACKBONE|DICT|INTERRES
    91   44  169 1    
    92   45   46 2    
    93   45   47 1    
    94   47   48 1    
    95   47   49 1    
    96   47  170 1    
    97   48  171 1    
    98   48  172 1    
    99   48  173 1    
   100   49   50 am   BACKBONE|DICT|INTERRES
   101   49  174 1    
   102   50   51 2    
   103   50   52 1    
   104   52   53 1    
   105   52   54 1    
   106   52  175 1    
   107   53  176 1    
   108   53  177 1    
   109   53  178 1    
   110   54   55 am   BACKBONE|DICT|INTERRES
   111   54  179 1    
   112   55   56 2    
   113   55   57 1    
   114   57   58 1    
   115   57   59 1    
   116   57  180 1    
   117   58  181 1    
   118   58  182 1    
   119   58  183 1    
   120   59   60 am   BACKBONE|DICT|INTERRES
   121   59  184 1    
   122   60   61 2    
   123   60   62 1    
   124   62   63 1    
   125   62   64 1    
   126   62  185 1    
   127   63  186 1    
   128   63  187 1    
   129   63  188 1    
   130   64   65 am   BACKBONE|DICT|INTERRES
   131   64  189 1    
   132   65   66 2    
   133   67   68 2    
   134   67   69 am   BACKBONE|DICT|INTERRES
   135   69   70 1    
   136   69  190 1    
   137   70   71 1    
   138   70   72 1    
   139   70  191 1    
   140   71  192 1    
   141   71  193 1    
   142   71  194 1    
   143   72   73 2    
   144   72   74 am   BACKBONE|DICT|INTERRES
   145   74   75 1    
   146   74  195 1    
   147   75   76 1    
   148   75   77 1    
   149   75  196 1    
   150   76  197 1    
   151   76  198 1    
   152   76  199 1    
   153   77   78 2    
   154   77   79 am   BACKBONE|DICT|INTERRES
   155   79   80 1    
   156   79  200 1    
   157   80   81 1    
   158   80   82 1    
   159   80  201 1    
   160   81  202 1    
   161   81  203 1    
   162   81  204 1    
   163   82   83 2    
   164   82   84 am   BACKBONE|DICT|INTERRES
   165   84   85 1    
   166   84  205 1    
   167   85   86 1    
   168   85   87 1    
   169   85  206 1    
   170   86  207 1    
   171   86  208 1    
   172   86  209 1    
   173   87   88 2    
   174   87   89 am   BACKBONE|DICT|INTERRES
   175   89   90 1    
   176   89  210 1    
   177   90   91 1    
   178   90   92 1    
   179   90  211 1    
   180   91  212 1    
   181   91  213 1    
   182   91  214 1    
   183   92   93 2    
   184   92   94 am   BACKBONE|DICT|INTERRES
   185   94   95 1    
   186   94  215 1    
   187   95   96 1    
   188   95   97 1    
   189   95  216 1    
   190   96  217 1    
   191   96  218 1    
   192   96  219 1    
   193   97   98 2    
   194   97   99 am   BACKBONE|DICT|INTERRES
   195   99  100 1    
   196   99  220 1    
   197  100  101 1    
   198  100  102 1    
   199  100  221 1    
   200  101  222 1    
   201  101  223 1    
   202  101  224 1    
   203  102  103 2    
   204  102  104 am   BACKBONE|DICT|INTERRES
   205  104  105 1    
   206  104  225 1    
   207  105  106 1    
   208  105  107 1    
   209  105  226 1    
   210  106  227 1    
   211  106  228 1    
   212  106  229 1    
   213  107  108 2    
   214  107  109 am   BACKBONE|DICT|INTERRES
   215  109  110 1    
   216  109  230 1    
   217  110  111 1    
   218  110  112 1    
   219  110  231 1    
   220  111  232 1    
   221  111  233 1    
   222  111  234 1    
   223  112  113 2    
   224  112  114 am   BACKBONE|DICT|INTERRES
   225  114  115 1    
   226  114  235 1    
   227  115  116 1    
   228  115  117 1    
   229  115  236 1    
   230  116  237 1    
   231  116  238 1    
   232  116  239 1    
   233  117  118 2    
   234  117  119 am   BACKBONE|DICT|INTERRES
   235  119  120 1    
   236  119  240 1    
   237  120  121 1    
   238  120  124 1    
   239  120  241 1    
   240  121  122 am   BACKBONE|DICT|INTERRES
   241  121  123 2    
   242  122  242 1    
   243  122  243 1    
   244  124  125 1    
   245  124  244 1    
   246  124  245 1    
   247  125  126 1    
   248  126  246 1    
   249  126  247 1    
@<TRIPOS>SUBSTRUCTURE
     1 UNK         1 GROUP             0       ****    0 ROOT    
