@<TRIPOS>MOLECULE
3R540
247   249    1
SMALL
USER_CHARGES


@<TRIPOS>ATOM
      1 CA         -0.8607  -17.1981  -47.9400 C.3       0 UNK        -0.1800 
      2 C          -0.2364  -15.8251  -48.1437 C.2       0 UNK         0.5000 
      3 O          -0.9425  -14.8177  -48.1304 O.2       0 UNK        -0.5000 
      4 N           1.0834  -15.7869  -48.3405 N.am      1 UNK        -0.5000 
      5 CA          1.8938  -14.5716  -48.4200 C.3       1 UNK         0.1400 
      6 C6          3.1299  -14.7709  -49.3380 C.3       23 UNK        -0.0398 
      7 S7          4.1360  -16.2550  -48.9660 S.3       23 UNK        -0.2404 
      8 C8          4.1274  -17.1209  -50.5693 C.3       23 UNK        -0.0205 
      9 C9          2.9220  -18.0368  -50.7348 C.ar      23 UNK        -0.0193 
     10 C10         1.6806  -17.5227  -51.1199 C.ar      23 UNK        -0.1150 
     11 C11         0.5864  -18.3696  -51.3213 C.ar      23 UNK        -0.0193 
     12 C12         0.7400  -19.7439  -51.1133 C.ar      23 UNK        -0.1150 
     13 C13         1.9785  -20.2778  -50.7444 C.ar      23 UNK        -0.0193 
     14 C14         3.0639  -19.4151  -50.5547 C.ar      23 UNK        -0.1150 
     15 C15         2.1384  -21.7917  -50.6333 C.3       23 UNK        -0.0205 
     16 S16         3.2223  -22.3495  -49.2744 S.3       23 UNK        -0.2404 
     17 C17         2.2852  -21.8419  -47.7966 C.3       23 UNK        -0.0398 
     18 CA          1.3021  -22.9422  -47.3181 C.3       11 UNK         0.1400 
     19 N           1.2747  -23.0729  -45.8615 N.am      11 UNK        -0.5000 
     20 C           0.7374  -24.1058  -45.1977 C.2       10 UNK         0.5000 
     21 O           0.2506  -25.0961  -45.7445 O.2       10 UNK        -0.5000 
     22 CA          0.7007  -23.9841  -43.6630 C.3       10 UNK         0.1400 
     23 CB          2.0203  -24.4738  -43.0486 C.3       10 UNK        -0.1800 
     24 N           0.4351  -22.6142  -43.2165 N.am      10 UNK        -0.5000 
     25 C          -0.7254  -21.9740  -43.4150 C.2       9 UNK         0.5000 
     26 O          -1.7016  -22.4872  -43.9600 O.2       9 UNK        -0.5000 
     27 CA         -0.7978  -20.5043  -42.9632 C.3       9 UNK         0.1400 
     28 CB         -1.1640  -20.4414  -41.4726 C.3       9 UNK        -0.1800 
     29 N           0.4245  -19.7282  -43.2149 N.am      9 UNK        -0.5000 
     30 C           1.0109  -19.5741  -44.4146 C.2       8 UNK         0.5000 
     31 O           0.6083  -20.1303  -45.4374 O.2       8 UNK        -0.5000 
     32 CA          2.2534  -18.6662  -44.4858 C.3       8 UNK         0.1400 
     33 CB          2.4986  -18.1190  -45.9026 C.3       8 UNK        -0.1800 
     34 N           2.1199  -17.5465  -43.5586 N.am      8 UNK        -0.5000 
     35 C           3.0218  -17.1836  -42.6368 C.2       7 UNK         0.5000 
     36 O           4.1135  -17.7366  -42.4979 O.2       7 UNK        -0.5000 
     37 CA          2.6440  -16.0268  -41.6837 C.3       7 UNK         0.1400 
     38 CB          3.3250  -14.7233  -42.1173 C.3       7 UNK        -0.1800 
     39 N           1.2057  -15.7796  -41.5754 N.am      7 UNK        -0.5000 
     40 C           0.2990  -16.6623  -41.1372 C.2       6 UNK         0.5000 
     41 O           0.5920  -17.7622  -40.6685 O.2       6 UNK        -0.5000 
     42 CA         -1.1826  -16.2798  -41.3089 C.3       6 UNK         0.1400 
     43 CB         -1.7337  -15.6721  -40.0110 C.3       6 UNK        -0.1800 
     44 N          -1.4331  -15.3474  -42.4084 N.am      6 UNK        -0.5000 
     45 C          -1.1478  -15.5203  -43.7063 C.2       5 UNK         0.5000 
     46 O          -0.6160  -16.5385  -44.1483 O.2       5 UNK        -0.5000 
     47 CA         -1.4755  -14.3574  -44.6702 C.3       5 UNK         0.1400 
     48 CB         -2.8007  -14.6178  -45.4120 C.3       5 UNK        -0.1800 
     49 N          -1.4560  -13.0200  -44.0533 N.am      5 UNK        -0.5000 
     50 C          -2.2671  -12.5184  -43.1075 C.2       4 UNK         0.5000 
     51 O          -3.2514  -13.1184  -42.6741 O.2       4 UNK        -0.5000 
     52 CA         -1.8881  -11.1533  -42.4924 C.3       4 UNK         0.1400 
     53 CB         -2.3045  -11.0499  -41.0099 C.3       4 UNK        -0.1800 
     54 N          -0.4733  -10.7913  -42.6370 N.am      4 UNK        -0.5000 
     55 C           0.6042  -11.4703  -42.2140 C.2       3 UNK         0.5000 
     56 O           0.5706  -12.5737  -41.6632 O.2       3 UNK        -0.5000 
     57 CA          1.9564  -10.7894  -42.4970 C.3       3 UNK         0.1400 
     58 CB          2.8154  -10.7075  -41.2248 C.3       3 UNK        -0.1800 
     59 N           2.7345  -11.4206  -43.5667 N.am      3 UNK        -0.5000 
     60 C           2.3086  -11.7446  -44.7969 C.2       2 UNK         0.5000 
     61 O           1.1351  -11.6494  -45.1685 O.2       2 UNK        -0.5000 
     62 CA          3.4010  -12.1556  -45.8101 C.3       2 UNK         0.1400 
     63 CB          4.5888  -12.9325  -45.1965 C.3       2 UNK        -0.1800 
     64 N           2.8728  -12.8564  -46.9838 N.am      2 UNK        -0.5000 
     65 C           2.2880  -14.0625  -47.0141 C.2       1 UNK         0.5000 
     66 O           2.0857  -14.7547  -46.0129 O.2       1 UNK        -0.5000 
     67 C          -0.1166  -22.7053  -47.8638 C.2       11 UNK         0.5000 
     68 O          -0.5193  -23.3701  -48.8163 O.2       11 UNK        -0.5000 
     69 N          -0.8641  -21.7988  -47.2169 N.am      12 UNK        -0.5000 
     70 CA         -2.2600  -21.4984  -47.5267 C.3       12 UNK         0.1400 
     71 CB         -2.7624  -20.3489  -46.6428 C.3       12 UNK        -0.1800 
     72 C          -3.1707  -22.7294  -47.3922 C.2       12 UNK         0.5000 
     73 O          -3.9799  -22.9710  -48.2855 O.2       12 UNK        -0.5000 
     74 N          -2.9954  -23.5066  -46.3148 N.am      13 UNK        -0.5000 
     75 CA         -3.6983  -24.7673  -46.0740 C.3       13 UNK         0.1400 
     76 CB         -3.3367  -25.3045  -44.6812 C.3       13 UNK        -0.1800 
     77 C          -3.4181  -25.8217  -47.1603 C.2       13 UNK         0.5000 
     78 O          -4.3616  -26.4236  -47.6752 O.2       13 UNK        -0.5000 
     79 N          -2.1381  -25.9881  -47.5261 N.am      14 UNK        -0.5000 
     80 CA         -1.6920  -26.8732  -48.6066 C.3       14 UNK         0.1400 
     81 CB         -0.1575  -26.9438  -48.6089 C.3       14 UNK        -0.1800 
     82 C          -2.2220  -26.4481  -49.9907 C.2       14 UNK         0.5000 
     83 O          -2.5629  -27.3064  -50.8047 O.2       14 UNK        -0.5000 
     84 N          -2.3224  -25.1320  -50.2102 N.am      15 UNK        -0.5000 
     85 CA         -2.8667  -24.4965  -51.4088 C.3       15 UNK         0.1400 
     86 CB         -2.1468  -23.1541  -51.6200 C.3       15 UNK        -0.1800 
     87 C          -4.4034  -24.3313  -51.3841 C.2       15 UNK         0.5000 
     88 O          -4.9280  -23.5525  -52.1804 O.2       15 UNK        -0.5000 
     89 N          -5.1012  -25.0593  -50.4980 N.am      16 UNK        -0.5000 
     90 CA         -6.5616  -25.1390  -50.3742 C.3       16 UNK         0.1400 
     91 CB         -7.1716  -25.8182  -51.6190 C.3       16 UNK        -0.1800 
     92 C          -7.2069  -23.7749  -50.0556 C.2       16 UNK         0.5000 
     93 O          -8.0522  -23.2903  -50.8097 O.2       16 UNK        -0.5000 
     94 N          -6.7605  -23.1772  -48.9426 N.am      17 UNK        -0.5000 
     95 CA         -7.0820  -21.8276  -48.4649 C.3       17 UNK         0.1400 
     96 CB         -8.5870  -21.6690  -48.1617 C.3       17 UNK        -0.1800 
     97 C          -6.5233  -20.7514  -49.4165 C.2       17 UNK         0.5000 
     98 O          -7.2277  -19.8105  -49.7831 O.2       17 UNK        -0.5000 
     99 N          -5.2607  -20.9525  -49.8211 N.am      18 UNK        -0.5000 
    100 CA        -4.4266  -20.1476  -50.7228 C.3       18 UNK         0.1400 
    101 CB        -4.2634  -18.7100  -50.1918 C.3       18 UNK        -0.1800 
    102 C         -4.8535  -20.1517  -52.2046 C.2       18 UNK         0.5000 
    103 O         -4.0412  -19.7769  -53.0501 O.2       18 UNK        -0.5000 
    104 N         -6.0867  -20.5763  -52.5044 N.am      19 UNK        -0.5000 
    105 CA        -6.7465  -20.4912  -53.8068 C.3       19 UNK         0.1400 
    106 CB        -8.1668  -21.0612  -53.6798 C.3       19 UNK        -0.1800 
    107 C         -6.0026  -21.1669  -54.9725 C.2       19 UNK         0.5000 
    108 O         -6.0298  -20.6374  -56.0841 O.2       19 UNK        -0.5000 
    109 N         -5.3399  -22.3017  -54.7139 N.am      20 UNK        -0.5000 
    110 CA        -4.6036  -23.0568  -55.7309 C.3       20 UNK         0.1400 
    111 CB        -4.3639  -24.4891  -55.2299 C.3       20 UNK        -0.1800 
    112 C         -3.2690  -22.4000  -56.1338 C.2       20 UNK         0.5000 
    113 O         -2.7569  -22.7029  -57.2125 O.2       20 UNK        -0.5000 
    114 N         -2.7259  -21.5345  -55.2682 N.am      21 UNK        -0.5000 
    115 CA        -1.4465  -20.8556  -55.4670 C.3       21 UNK         0.1400 
    116 CB        -0.6090  -20.9923  -54.1866 C.3       21 UNK        -0.1800 
    117 C         -1.6370  -19.3735  -55.8225 C.2       21 UNK         0.5000 
    118 O         -0.9572  -18.8767  -56.7217 O.2       21 UNK        -0.5000 
    119 N         -2.5401  -18.6978  -55.1039 N.am      22 UNK        -0.5000 
    120 CA        -2.7428  -17.2412  -55.1374 C.3       22 UNK         0.1400 
    121 C         -4.1745  -16.8242  -55.5815 C.2       22 UNK         0.5000 
    122 N         -5.0446  -17.7359  -55.9972 N.am      22 UNK        -0.7600 
    123 O         -4.5021  -15.6406  -55.5733 O.2       22 UNK        -0.5000 
    124 C124       -2.3548  -16.5903  -53.7807 C.3       23 UNK        -0.0398 
    125 S125       -0.6041  -16.8735  -53.3383 S.3       23 UNK        -0.2404 
    126 C126       -0.7537  -17.8044  -51.7783 C.3       23 UNK        -0.0205 
    127 H127       -0.1848  -17.9998  -48.2402 H         1 UNK         0.0600 
    128 H128       -1.1046  -17.3352  -46.8866 H         1 UNK         0.0600 
    129 H129       -1.7779  -17.2909  -48.5210 H         1 UNK         0.0600 
    130 H130        1.6171  -16.6442  -48.3244 H         1 UNK         0.3000 
    131 H131        1.2855  -13.7841  -48.8703 H         1 UNK         0.0600 
    132 H132        2.7898  -14.8153  -50.3716 H         1 UNK         0.0800 
    133 H133        3.7895  -13.9025  -49.3090 H         1 UNK         0.0800 
    134 H134        4.1691  -16.4032  -51.3897 H         1 UNK         0.0800 
    135 H135        5.0466  -17.7039  -50.6436 H         1 UNK         0.0800 
    136 H136        1.5632  -16.4627  -51.2880 H         1 UNK         0.1150 
    137 H137       -0.0995  -20.4067  -51.2653 H         1 UNK         0.1150 
    138 H138        4.0300  -19.8188  -50.2871 H         1 UNK         0.1150 
    139 H139        1.1664  -22.2750  -50.5344 H         1 UNK         0.0800 
    140 H140        2.5578  -22.1536  -51.5726 H         1 UNK         0.0800 
    141 H141        1.7935  -20.8820  -47.9686 H         1 UNK         0.0800 
    142 H142        3.0301  -21.6437  -47.0248 H         1 UNK         0.0800 
    143 H143        1.6390  -23.9069  -47.7046 H         1 UNK         0.0600 
    144 H144        1.5719  -22.2655  -45.3334 H         1 UNK         0.3000 
    145 H145       -0.1052  -24.6244  -43.2978 H         1 UNK         0.0600 
    146 H146        1.9768  -24.4603  -41.9594 H         1 UNK         0.0600 
    147 H147        2.2340  -25.4997  -43.3516 H         1 UNK         0.0600 
    148 H148        2.8645  -23.8570  -43.3593 H         1 UNK         0.0600 
    149 H149        1.1871  -22.1239  -42.7549 H         1 UNK         0.3000 
    150 H150       -1.6019  -20.0305  -43.5292 H         1 UNK         0.0600 
    151 H151       -2.0253  -21.0737  -41.2515 H         1 UNK         0.0600 
    152 H152       -1.4306  -19.4313  -41.1703 H         1 UNK         0.0600 
    153 H153       -0.3405  -20.7751  -40.8403 H         1 UNK         0.0600 
    154 H154        0.8037  -19.2217  -42.4248 H         1 UNK         0.3000 
    155 H155        3.1043  -19.2916  -44.2102 H         1 UNK         0.0600 
    156 H156        3.3682  -17.4621  -45.9291 H         1 UNK         0.0600 
    157 H157        1.6393  -17.5473  -46.2508 H         1 UNK         0.0600 
    158 H158        2.6763  -18.9223  -46.6180 H         1 UNK         0.0600 
    159 H159        1.2378  -17.0446  -43.6172 H         1 UNK         0.3000 
    160 H160        3.0131  -16.2943  -40.6916 H         1 UNK         0.0600 
    161 H161        2.8822  -14.3396  -43.0361 H         1 UNK         0.0600 
    162 H162        4.3924  -14.8658  -42.2908 H         1 UNK         0.0600 
    163 H163        3.2187  -13.9578  -41.3503 H         1 UNK         0.0600 
    164 H164        0.8753  -14.8809  -41.9051 H         1 UNK         0.3000 
    165 H165       -1.7392  -17.1912  -41.5288 H         1 UNK         0.0600 
    166 H166       -1.2363  -14.7322  -39.7670 H         1 UNK         0.0600 
    167 H167       -2.8029  -15.4744  -40.0903 H         1 UNK         0.0600 
    168 H168       -1.5901  -16.3502  -39.1687 H         1 UNK         0.0600 
    169 H169       -1.9216  -14.4932  -42.1661 H         1 UNK         0.3000 
    170 H170       -0.6760  -14.3437  -45.4120 H         1 UNK         0.0600 
    171 H171       -2.7579  -15.5597  -45.9598 H         1 UNK         0.0600 
    172 H172       -3.6498  -14.6804  -44.7316 H         1 UNK         0.0600 
    173 H173       -3.0055  -13.8314  -46.1383 H         1 UNK         0.0600 
    174 H174       -0.6555  -12.4536  -44.3163 H         1 UNK         0.3000 
    175 H175       -2.4543  -10.4059  -43.0497 H         1 UNK         0.0600 
    176 H176       -2.0425  -10.0774  -40.5932 H         1 UNK         0.0600 
    177 H177       -3.3823  -11.1690  -40.8927 H         1 UNK         0.0600 
    178 H178       -1.8222  -11.8161  -40.4017 H         1 UNK         0.0600 
    179 H179       -0.3106   -9.9239  -43.1295 H         1 UNK         0.3000 
    180 H180        1.7606   -9.7645  -42.8182 H         1 UNK         0.0600 
    181 H181        3.1122  -11.6940  -40.8700 H         1 UNK         0.0600 
    182 H182        2.2677  -10.2220  -40.4160 H         1 UNK         0.0600 
    183 H183        3.7215  -10.1261  -41.3955 H         1 UNK         0.0600 
    184 H184        3.7148  -11.5492  -43.3656 H         1 UNK         0.3000 
    185 H185        3.8009  -11.2148  -46.1906 H         1 UNK         0.0600 
    186 H186        5.3468  -13.1348  -45.9533 H         1 UNK         0.0600 
    187 H187        5.0818  -12.3691  -44.4043 H         1 UNK         0.0600 
    188 H188        4.2834  -13.8921  -44.7829 H         1 UNK         0.0600 
    189 H189        2.9478  -12.3410  -47.8491 H         1 UNK         0.3000 
    190 H190       -0.4361  -21.2669  -46.4622 H         1 UNK         0.3000 
    191 H191       -2.2954  -21.1663  -48.5656 H         1 UNK         0.0600 
    192 H192       -2.1198  -19.4748  -46.7303 H         1 UNK         0.0600 
    193 H193       -3.7692  -20.0464  -46.9331 H         1 UNK         0.0600 
    194 H194       -2.7963  -20.6312  -45.5911 H         1 UNK         0.0600 
    195 H195       -2.3492  -23.2013  -45.5915 H         1 UNK         0.3000 
    196 H196       -4.7693  -24.5554  -46.0870 H         1 UNK         0.0600 
    197 H197       -3.8570  -26.2407  -44.4754 H         1 UNK         0.0600 
    198 H198       -3.6197  -24.5970  -43.9016 H         1 UNK         0.0600 
    199 H199       -2.2672  -25.4941  -44.5867 H         1 UNK         0.0600 
    200 H200       -1.4170  -25.4646  -47.0421 H         1 UNK         0.3000 
    201 H201       -2.0779  -27.8731  -48.3981 H         1 UNK         0.0600 
    202 H202        0.2213  -27.3127  -47.6556 H         1 UNK         0.0600 
    203 H203        0.2914  -25.9669  -48.7903 H         1 UNK         0.0600 
    204 H204        0.2016  -27.6198  -49.3859 H         1 UNK         0.0600 
    205 H205       -1.9569  -24.5011  -49.5025 H         1 UNK         0.3000 
    206 H206       -2.6410  -25.1272  -52.2703 H         1 UNK         0.0600 
    207 H207       -1.0788  -23.3051  -51.7771 H         1 UNK         0.0600 
    208 H208       -2.5289  -22.6222  -52.4913 H         1 UNK         0.0600 
    209 H209       -2.2609  -22.5062  -50.7529 H         1 UNK         0.0600 
    210 H210       -4.5791  -25.6260  -49.8423 H         1 UNK         0.3000 
    211 H211       -6.7626  -25.7843  -49.5176 H         1 UNK         0.0600 
    212 H212       -7.0317  -25.2201  -52.5203 H         1 UNK         0.0600 
    213 H213       -8.2440  -25.9707  -51.4926 H         1 UNK         0.0600 
    214 H214       -6.7229  -26.7960  -51.7934 H         1 UNK         0.0600 
    215 H215       -5.9824  -23.6173  -48.4654 H         1 UNK         0.3000 
    216 H216       -6.5469  -21.7048  -47.5221 H         1 UNK         0.0600 
    217 H217       -8.9394  -22.4548  -47.4936 H         1 UNK         0.0600 
    218 H218       -9.1943  -21.6994  -49.0664 H         1 UNK         0.0600 
    219 H219       -8.7841  -20.7145  -47.6726 H         1 UNK         0.0600 
    220 H220       -4.8091  -21.7888  -49.4583 H         1 UNK         0.3000 
    221 H221       -3.4391  -20.6044  -50.7013 H         1 UNK         0.0600 
    222 H222       -5.2066  -18.1638  -50.1946 H         1 UNK         0.0600 
    223 H223       -3.8761  -18.7073  -49.1732 H         1 UNK         0.0600 
    224 H224       -3.5653  -18.1413  -50.8049 H         1 UNK         0.0600 
    225 H225       -6.6654  -20.8854  -51.7358 H         1 UNK         0.3000 
    226 H226       -6.8283  -19.4301  -54.0503 H         1 UNK         0.0600 
    227 H227       -8.7424  -20.5243  -52.9254 H         1 UNK         0.0600 
    228 H228       -8.7092  -20.9793  -54.6226 H         1 UNK         0.0600 
    229 H229       -8.1497  -22.1154  -53.3995 H         1 UNK         0.0600 
    230 H230       -5.3291  -22.6730  -53.7649 H         1 UNK         0.3000 
    231 H231       -5.2247  -23.1169  -56.6272 H         1 UNK         0.0600 
    232 H232       -5.2918  -24.9572  -54.9006 H         1 UNK         0.0600 
    233 H233       -3.6615  -24.5089  -54.3976 H         1 UNK         0.0600 
    234 H234       -3.9463  -25.1125  -56.0214 H         1 UNK         0.0600 
    235 H235       -3.2447  -21.2998  -54.4317 H         1 UNK         0.3000 
    236 H236       -0.8853  -21.3203  -56.2803 H         1 UNK         0.0600 
    237 H237       -0.3591  -22.0345  -53.9887 H         1 UNK         0.0600 
    238 H238        0.3290  -20.4407  -54.2655 H         1 UNK         0.0600 
    239 H239       -1.1464  -20.6060  -53.3213 H         1 UNK         0.0600 
    240 H240       -3.0698  -19.1813  -54.3806 H         1 UNK         0.3000 
    241 H241       -2.0914  -16.8064  -55.8971 H         1 UNK         0.0600 
    242 H242       -5.9598  -17.4390  -56.2956 H         1 UNK         0.3800 
    243 H243       -4.8056  -18.7160  -56.0374 H         1 UNK         0.3800 
    244 H244       -2.5044  -15.5100  -53.8167 H         1 UNK         0.0800 
    245 H245       -3.0045  -16.9592  -52.9857 H         1 UNK         0.0800 
    246 H246       -1.1519  -17.1479  -51.0042 H         1 UNK         0.0800 
    247 H247       -1.4773  -18.6087  -51.9167 H         1 UNK         0.0800 
@<TRIPOS>BOND
     1    1    2 1    
     2    1  127 1    
     3    1  128 1    
     4    1  129 1    
     5    2    3 2    
     6    2    4 am   BACKBONE|DICT|INTERRES
     7    4    5 1    
     8    4  130 1    
     9    5    6 1    
    10    5   65 1    
    11    5  131 1    
    12    6    7 1    
    13    6  132 1    
    14    6  133 1    
    15    7    8 1    
    16    8    9 1    
    17    8  134 1    
    18    8  135 1    
    19    9   10 ar   
    20    9   14 ar   
    21   10   11 ar   
    22   10  136 1    
    23   11   12 ar   
    24   11  126 1    
    25   12   13 ar   
    26   12  137 1    
    27   13   14 ar   
    28   13   15 1    
    29   14  138 1    
    30   15   16 1    
    31   15  139 1    
    32   15  140 1    
    33   16   17 1    
    34   17   18 1    
    35   17  141 1    
    36   17  142 1    
    37   18   19 1    
    38   18   67 1    
    39   18  143 1    
    40   19   20 am   BACKBONE|DICT|INTERRES
    41   19  144 1    
    42   20   21 2    
    43   20   22 1    
    44   22   23 1    
    45   22   24 1    
    46   22  145 1    
    47   23  146 1    
    48   23  147 1    
    49   23  148 1    
    50   24   25 am   BACKBONE|DICT|INTERRES
    51   24  149 1    
    52   25   26 2    
    53   25   27 1    
    54   27   28 1    
    55   27   29 1    
    56   27  150 1    
    57   28  151 1    
    58   28  152 1    
    59   28  153 1    
    60   29   30 am   BACKBONE|DICT|INTERRES
    61   29  154 1    
    62   30   31 2    
    63   30   32 1    
    64   32   33 1    
    65   32   34 1    
    66   32  155 1    
    67   33  156 1    
    68   33  157 1    
    69   33  158 1    
    70   34   35 am   BACKBONE|DICT|INTERRES
    71   34  159 1    
    72   35   36 2    
    73   35   37 1    
    74   37   38 1    
    75   37   39 1    
    76   37  160 1    
    77   38  161 1    
    78   38  162 1    
    79   38  163 1    
    80   39   40 am   BACKBONE|DICT|INTERRES
    81   39  164 1    
    82   40   41 2    
    83   40   42 1    
    84   42   43 1    
    85   42   44 1    
    86   42  165 1    
    87   43  166 1    
    88   43  167 1    
    89   43  168 1    
    90   44   45 am   BACKBONE|DICT|INTERRES
    91   44  169 1    
    92   45   46 2    
    93   45   47 1    
    94   47   48 1    
    95   47   49 1    
    96   47  170 1    
    97   48  171 1    
    98   48  172 1    
    99   48  173 1    
   100   49   50 am   BACKBONE|DICT|INTERRES
   101   49  174 1    
   102   50   51 2    
   103   50   52 1    
   104   52   53 1    
   105   52   54 1    
   106   52  175 1    
   107   53  176 1    
   108   53  177 1    
   109   53  178 1    
   110   54   55 am   BACKBONE|DICT|INTERRES
   111   54  179 1    
   112   55   56 2    
   113   55   57 1    
   114   57   58 1    
   115   57   59 1    
   116   57  180 1    
   117   58  181 1    
   118   58  182 1    
   119   58  183 1    
   120   59   60 am   BACKBONE|DICT|INTERRES
   121   59  184 1    
   122   60   61 2    
   123   60   62 1    
   124   62   63 1    
   125   62   64 1    
   126   62  185 1    
   127   63  186 1    
   128   63  187 1    
   129   63  188 1    
   130   64   65 am   BACKBONE|DICT|INTERRES
   131   64  189 1    
   132   65   66 2    
   133   67   68 2    
   134   67   69 am   BACKBONE|DICT|INTERRES
   135   69   70 1    
   136   69  190 1    
   137   70   71 1    
   138   70   72 1    
   139   70  191 1    
   140   71  192 1    
   141   71  193 1    
   142   71  194 1    
   143   72   73 2    
   144   72   74 am   BACKBONE|DICT|INTERRES
   145   74   75 1    
   146   74  195 1    
   147   75   76 1    
   148   75   77 1    
   149   75  196 1    
   150   76  197 1    
   151   76  198 1    
   152   76  199 1    
   153   77   78 2    
   154   77   79 am   BACKBONE|DICT|INTERRES
   155   79   80 1    
   156   79  200 1    
   157   80   81 1    
   158   80   82 1    
   159   80  201 1    
   160   81  202 1    
   161   81  203 1    
   162   81  204 1    
   163   82   83 2    
   164   82   84 am   BACKBONE|DICT|INTERRES
   165   84   85 1    
   166   84  205 1    
   167   85   86 1    
   168   85   87 1    
   169   85  206 1    
   170   86  207 1    
   171   86  208 1    
   172   86  209 1    
   173   87   88 2    
   174   87   89 am   BACKBONE|DICT|INTERRES
   175   89   90 1    
   176   89  210 1    
   177   90   91 1    
   178   90   92 1    
   179   90  211 1    
   180   91  212 1    
   181   91  213 1    
   182   91  214 1    
   183   92   93 2    
   184   92   94 am   BACKBONE|DICT|INTERRES
   185   94   95 1    
   186   94  215 1    
   187   95   96 1    
   188   95   97 1    
   189   95  216 1    
   190   96  217 1    
   191   96  218 1    
   192   96  219 1    
   193   97   98 2    
   194   97   99 am   BACKBONE|DICT|INTERRES
   195   99  100 1    
   196   99  220 1    
   197  100  101 1    
   198  100  102 1    
   199  100  221 1    
   200  101  222 1    
   201  101  223 1    
   202  101  224 1    
   203  102  103 2    
   204  102  104 am   BACKBONE|DICT|INTERRES
   205  104  105 1    
   206  104  225 1    
   207  105  106 1    
   208  105  107 1    
   209  105  226 1    
   210  106  227 1    
   211  106  228 1    
   212  106  229 1    
   213  107  108 2    
   214  107  109 am   BACKBONE|DICT|INTERRES
   215  109  110 1    
   216  109  230 1    
   217  110  111 1    
   218  110  112 1    
   219  110  231 1    
   220  111  232 1    
   221  111  233 1    
   222  111  234 1    
   223  112  113 2    
   224  112  114 am   BACKBONE|DICT|INTERRES
   225  114  115 1    
   226  114  235 1    
   227  115  116 1    
   228  115  117 1    
   229  115  236 1    
   230  116  237 1    
   231  116  238 1    
   232  116  239 1    
   233  117  118 2    
   234  117  119 am   BACKBONE|DICT|INTERRES
   235  119  120 1    
   236  119  240 1    
   237  120  121 1    
   238  120  124 1    
   239  120  241 1    
   240  121  122 am   BACKBONE|DICT|INTERRES
   241  121  123 2    
   242  122  242 1    
   243  122  243 1    
   244  124  125 1    
   245  124  244 1    
   246  124  245 1    
   247  125  126 1    
   248  126  246 1    
   249  126  247 1    
@<TRIPOS>SUBSTRUCTURE
     1 UNK         1 GROUP             0       ****    0 ROOT    
