@<TRIPOS>MOLECULE
3R540
247   249    1
SMALL
USER_CHARGES


@<TRIPOS>ATOM
      1 CA         -3.4505  -16.4964  -47.0212 C.3       0 UNK        -0.1800 
      2 C          -2.5118  -15.3114  -46.8483 C.2       0 UNK         0.5000 
      3 O          -1.5261  -15.4131  -46.1189 O.2       0 UNK        -0.5000 
      4 N          -2.8174  -14.1896  -47.5129 N.am      1 UNK        -0.5000 
      5 CA         -2.0950  -12.9069  -47.5047 C.3       1 UNK         0.1400 
      6 C6         -0.6378  -12.9750  -48.0410 C.3       23 UNK        -0.0398 
      7 S7         -0.5324  -13.6737  -49.7246 S.3       23 UNK        -0.2404 
      8 C8          0.4417  -15.1879  -49.4436 C.3       23 UNK        -0.0205 
      9 C9         -0.0571  -16.3213  -50.3230 C.ar      23 UNK        -0.0193 
     10 C10         0.4499  -16.5042  -51.6144 C.ar      23 UNK        -0.1150 
     11 C11        -0.0385  -17.5339  -52.4262 C.ar      23 UNK        -0.0193 
     12 C12        -1.0391  -18.3746  -51.9360 C.ar      23 UNK        -0.1150 
     13 C13        -1.5412  -18.2115  -50.6440 C.ar      23 UNK        -0.0193 
     14 C14        -1.0409  -17.1877  -49.8396 C.ar      23 UNK        -0.1150 
     15 C15        -2.6260  -19.1433  -50.1339 C.3       23 UNK        -0.0205 
     16 S16        -1.9851  -20.8283  -49.9260 S.3       23 UNK        -0.2404 
     17 C17        -1.2928  -20.7876  -48.2449 C.3       23 UNK        -0.0398 
     18 CA         -2.0676  -21.7390  -47.3020 C.3       11 UNK         0.1400 
     19 N          -1.2472  -22.1867  -46.1772 N.am      11 UNK        -0.5000 
     20 C          -1.5394  -23.2327  -45.3923 C.2       10 UNK         0.5000 
     21 O          -2.5171  -23.9608  -45.5580 O.2       10 UNK        -0.5000 
     22 CA         -0.5976  -23.4843  -44.2011 C.3       10 UNK         0.1400 
     23 CB          0.5986  -24.3437  -44.6358 C.3       10 UNK        -0.1800 
     24 N          -0.1123  -22.2413  -43.5974 N.am      10 UNK        -0.5000 
     25 C          -0.8962  -21.3593  -42.9614 C.2       9 UNK         0.5000 
     26 O          -2.1002  -21.5260  -42.7774 O.2       9 UNK        -0.5000 
     27 CA         -0.2389  -20.0440  -42.5081 C.3       9 UNK         0.1400 
     28 CB          0.4046  -20.2127  -41.1246 C.3       9 UNK        -0.1800 
     29 N           0.7555  -19.5259  -43.4529 N.am      9 UNK        -0.5000 
     30 C           0.5138  -19.2001  -44.7321 C.2       8 UNK         0.5000 
     31 O          -0.5885  -19.3383  -45.2647 O.2       8 UNK        -0.5000 
     32 CA          1.6956  -18.6383  -45.5430 C.3       8 UNK         0.1400 
     33 CB          1.2352  -17.6646  -46.6414 C.3       8 UNK        -0.1800 
     34 N           2.6418  -17.9456  -44.6706 N.am      8 UNK        -0.5000 
     35 C           3.9617  -18.1603  -44.6049 C.2       7 UNK         0.5000 
     36 O           4.5421  -19.0494  -45.2300 O.2       7 UNK        -0.5000 
     37 CA          4.7554  -17.2070  -43.6822 C.3       7 UNK         0.1400 
     38 CB          6.2717  -17.2028  -43.9664 C.3       7 UNK        -0.1800 
     39 N           4.2108  -15.8441  -43.6899 N.am      7 UNK        -0.5000 
     40 C           4.1015  -15.0135  -44.7399 C.2       6 UNK         0.5000 
     41 O           4.5946  -15.2369  -45.8459 O.2       6 UNK        -0.5000 
     42 CA          3.2678  -13.7319  -44.5394 C.3       6 UNK         0.1400 
     43 CB          2.0247  -13.7602  -45.4441 C.3       6 UNK        -0.1800 
     44 N           2.8299  -13.5642  -43.1517 N.am      6 UNK        -0.5000 
     45 C           3.4598  -12.8199  -42.2323 C.2       5 UNK         0.5000 
     46 O           4.4427  -12.1200  -42.4772 O.2       5 UNK        -0.5000 
     47 CA          2.9219  -12.8835  -40.7879 C.3       5 UNK         0.1400 
     48 CB          2.0523  -11.6589  -40.4702 C.3       5 UNK        -0.1800 
     49 N           2.1610  -14.1052  -40.5107 N.am      5 UNK        -0.5000 
     50 C           2.7195  -15.3140  -40.3521 C.2       4 UNK         0.5000 
     51 O           3.9325  -15.5143  -40.4082 O.2       4 UNK        -0.5000 
     52 CA          1.7729  -16.5131  -40.1544 C.3       4 UNK         0.1400 
     53 CB          1.5386  -16.7784  -38.6604 C.3       4 UNK        -0.1800 
     54 N           0.4789  -16.3716  -40.8257 N.am      4 UNK        -0.5000 
     55 C           0.3065  -16.2268  -42.1456 C.2       3 UNK         0.5000 
     56 O           1.2398  -16.1750  -42.9483 O.2       3 UNK        -0.5000 
     57 CA         -1.1353  -16.0977  -42.6713 C.3       3 UNK         0.1400 
     58 CB         -2.2294  -16.3505  -41.6110 C.3       3 UNK        -0.1800 
     59 N          -1.3470  -14.8105  -43.3348 N.am      3 UNK        -0.5000 
     60 C          -1.1733  -13.5837  -42.8136 C.2       2 UNK         0.5000 
     61 O          -0.8010  -13.3867  -41.6556 O.2       2 UNK        -0.5000 
     62 CA         -1.4463  -12.3780  -43.7372 C.3       2 UNK         0.1400 
     63 CB         -0.4491  -11.2249  -43.5163 C.3       2 UNK        -0.1800 
     64 N          -1.4488  -12.7779  -45.1434 N.am      2 UNK        -0.5000 
     65 C          -2.1673  -12.2201  -46.1232 C.2       1 UNK         0.5000 
     66 O          -2.8838  -11.2298  -45.9706 O.2       1 UNK        -0.5000 
     67 C          -3.3887  -21.1184  -46.8108 C.2       11 UNK         0.5000 
     68 O          -4.4497  -21.4400  -47.3457 O.2       11 UNK        -0.5000 
     69 N          -3.3035  -20.2845  -45.7650 N.am      12 UNK        -0.5000 
     70 CA         -4.4536  -19.6871  -45.0872 C.3       12 UNK         0.1400 
     71 CB         -3.9564  -18.6896  -44.0279 C.3       12 UNK        -0.1800 
     72 C          -5.3860  -20.7398  -44.4543 C.2       12 UNK         0.5000 
     73 O          -6.6066  -20.6000  -44.5400 O.2       12 UNK        -0.5000 
     74 N          -4.7939  -21.7721  -43.8397 N.am      13 UNK        -0.5000 
     75 CA         -5.5081  -22.8495  -43.1623 C.3       13 UNK         0.1400 
     76 CB         -4.5692  -23.5219  -42.1481 C.3       13 UNK        -0.1800 
     77 C          -6.0965  -23.9028  -44.1172 C.2       13 UNK         0.5000 
     78 O          -7.2404  -24.3130  -43.9135 O.2       13 UNK        -0.5000 
     79 N          -5.3043  -24.3667  -45.0950 N.am      14 UNK        -0.5000 
     80 CA         -5.5704  -25.6135  -45.8185 C.3       14 UNK         0.1400 
     81 CB         -4.8443  -26.7660  -45.0966 C.3       14 UNK        -0.1800 
     82 C          -5.2202  -25.5575  -47.3168 C.2       14 UNK         0.5000 
     83 O          -5.0249  -26.6127  -47.9224 O.2       14 UNK        -0.5000 
     84 N          -5.1504  -24.3547  -47.9059 N.am      15 UNK        -0.5000 
     85 CA         -4.9555  -24.0484  -49.3357 C.3       15 UNK         0.1400 
     86 CB         -6.0775  -24.6633  -50.1955 C.3       15 UNK        -0.1800 
     87 C          -3.5671  -24.3902  -49.9181 C.2       15 UNK         0.5000 
     88 O          -3.1172  -23.6877  -50.8225 O.2       15 UNK        -0.5000 
     89 N          -2.9188  -25.4469  -49.4066 N.am      16 UNK        -0.5000 
     90 CA         -1.5235  -25.8630  -49.6154 C.3       16 UNK         0.1400 
     91 CB         -0.5951  -24.9428  -48.7972 C.3       16 UNK        -0.1800 
     92 C          -1.0711  -25.9717  -51.0902 C.2       16 UNK         0.5000 
     93 O           0.1119  -25.7849  -51.3795 O.2       16 UNK        -0.5000 
     94 N          -2.0228  -26.2140  -52.0036 N.am      17 UNK        -0.5000 
     95 CA         -1.9332  -26.1683  -53.4716 C.3       17 UNK         0.1400 
     96 CB         -0.9306  -27.2048  -54.0125 C.3       17 UNK        -0.1800 
     97 C          -1.6551  -24.7655  -54.0591 C.2       17 UNK         0.5000 
     98 O          -2.2009  -24.4404  -55.1134 O.2       17 UNK        -0.5000 
     99 N          -0.8465  -23.9485  -53.3712 N.am      18 UNK        -0.5000 
    100 CA        -0.4460  -22.5895  -53.7426 C.3       18 UNK         0.1400 
    101 CB         0.5300  -22.0479  -52.6882 C.3       18 UNK        -0.1800 
    102 C         -1.6163  -21.6109  -53.9474 C.2       18 UNK         0.5000 
    103 O         -1.4945  -20.6906  -54.7581 O.2       18 UNK        -0.5000 
    104 N         -2.7460  -21.8370  -53.2615 N.am      19 UNK        -0.5000 
    105 CA        -3.9820  -21.0715  -53.4388 C.3       19 UNK         0.1400 
    106 CB        -5.0302  -21.5462  -52.4243 C.3       19 UNK        -0.1800 
    107 C         -4.5512  -21.1427  -54.8701 C.2       19 UNK         0.5000 
    108 O         -5.1716  -20.1787  -55.3162 O.2       19 UNK        -0.5000 
    109 N         -4.2992  -22.2498  -55.5845 N.am      20 UNK        -0.5000 
    110 CA        -4.6792  -22.4166  -56.9883 C.3       20 UNK         0.1400 
    111 CB        -4.6674  -23.9107  -57.3464 C.3       20 UNK        -0.1800 
    112 C         -3.7765  -21.6207  -57.9520 C.2       20 UNK         0.5000 
    113 O         -4.2111  -21.3188  -59.0641 O.2       20 UNK        -0.5000 
    114 N         -2.5485  -21.2950  -57.5223 N.am      21 UNK        -0.5000 
    115 CA        -1.5980  -20.4884  -58.2847 C.3       21 UNK         0.1400 
    116 CB        -0.1589  -20.8493  -57.8801 C.3       21 UNK        -0.1800 
    117 C         -1.8711  -18.9872  -58.0980 C.2       21 UNK         0.5000 
    118 O         -1.9462  -18.2613  -59.0906 O.2       21 UNK        -0.5000 
    119 N         -2.0246  -18.5509  -56.8397 N.am      22 UNK        -0.5000 
    120 CA        -2.3368  -17.1521  -56.4961 C.3       22 UNK         0.1400 
    121 C         -3.8258  -16.7536  -56.7080 C.2       22 UNK         0.5000 
    122 N         -4.7819  -17.6728  -56.6965 N.am      22 UNK        -0.7600 
    123 O         -4.1203  -15.5773  -56.9023 O.2       22 UNK        -0.5000 
    124 C124       -1.8577  -16.7790  -55.0707 C.3       23 UNK        -0.0398 
    125 S125       -0.0538  -16.4972  -55.0077 S.3       23 UNK        -0.2404 
    126 C126        0.5173  -17.7560  -53.8257 C.3       23 UNK        -0.0205 
    127 H127       -3.9339  -16.4816  -47.9982 H         1 UNK         0.0600 
    128 H128       -4.2230  -16.4774  -46.2530 H         1 UNK         0.0600 
    129 H129       -2.8999  -17.4331  -46.9296 H         1 UNK         0.0600 
    130 H130       -3.6542  -14.1866  -48.0790 H         1 UNK         0.3000 
    131 H131       -2.6508  -12.2643  -48.1898 H         1 UNK         0.0600 
    132 H132       -0.2062  -11.9732  -48.0765 H         1 UNK         0.0800 
    133 H133       -0.0013  -13.5469  -47.3685 H         1 UNK         0.0800 
    134 H134        1.4950  -14.9848  -49.6421 H         1 UNK         0.0800 
    135 H135        0.3799  -15.4943  -48.3990 H         1 UNK         0.0800 
    136 H136        1.2151  -15.8406  -51.9919 H         1 UNK         0.1150 
    137 H137       -1.4255  -19.1684  -52.5558 H         1 UNK         0.1150 
    138 H138       -1.4201  -17.0585  -48.8385 H         1 UNK         0.1150 
    139 H139       -3.0577  -18.7860  -49.1980 H         1 UNK         0.0800 
    140 H140       -3.4417  -19.1649  -50.8572 H         1 UNK         0.0800 
    141 H141       -0.2537  -21.1084  -48.3295 H         1 UNK         0.0800 
    142 H142       -1.2606  -19.7665  -47.8616 H         1 UNK         0.0800 
    143 H143       -2.3273  -22.6369  -47.8658 H         1 UNK         0.0600 
    144 H144       -0.4693  -21.5955  -45.9249 H         1 UNK         0.3000 
    145 H145       -1.1590  -24.0354  -43.4435 H         1 UNK         0.0600 
    146 H146        1.2358  -24.5911  -43.7866 H         1 UNK         0.0600 
    147 H147        0.2633  -25.2847  -45.0743 H         1 UNK         0.0600 
    148 H148        1.2124  -23.8356  -45.3807 H         1 UNK         0.0600 
    149 H149        0.8687  -22.0293  -43.7043 H         1 UNK         0.3000 
    150 H150       -1.0318  -19.2988  -42.4251 H         1 UNK         0.0600 
    151 H151       -0.3181  -20.5934  -40.4015 H         1 UNK         0.0600 
    152 H152        0.7718  -19.2631  -40.7401 H         1 UNK         0.0600 
    153 H153        1.2419  -20.9111  -41.1511 H         1 UNK         0.0600 
    154 H154        1.6911  -19.3890  -43.1001 H         1 UNK         0.3000 
    155 H155        2.1740  -19.4940  -46.0226 H         1 UNK         0.0600 
    156 H156        2.0831  -17.2842  -47.2113 H         1 UNK         0.0600 
    157 H157        0.7104  -16.8096  -46.2158 H         1 UNK         0.0600 
    158 H158        0.5615  -18.1487  -47.3486 H         1 UNK         0.0600 
    159 H159        2.2396  -17.2083  -44.0937 H         1 UNK         0.3000 
    160 H160        4.6136  -17.5820  -42.6676 H         1 UNK         0.0600 
    161 H161        6.4934  -16.9078  -44.9922 H         1 UNK         0.0600 
    162 H162        6.6998  -18.1941  -43.8132 H         1 UNK         0.0600 
    163 H163        6.7951  -16.5180  -43.2992 H         1 UNK         0.0600 
    164 H164        3.7768  -15.5514  -42.8259 H         1 UNK         0.3000 
    165 H165        3.8902  -12.8885  -44.8451 H         1 UNK         0.0600 
    166 H166        1.3347  -14.5559  -45.1610 H         1 UNK         0.0600 
    167 H167        1.4883  -12.8136  -45.4013 H         1 UNK         0.0600 
    168 H168        2.3007  -13.9231  -46.4867 H         1 UNK         0.0600 
    169 H169        2.0518  -14.1423  -42.8603 H         1 UNK         0.3000 
    170 H170        3.7860  -12.8593  -40.1204 H         1 UNK         0.0600 
    171 H171        2.5998  -10.7324  -40.6479 H         1 UNK         0.0600 
    172 H172        1.1552  -11.6328  -41.0859 H         1 UNK         0.0600 
    173 H173        1.7409  -11.6572  -39.4256 H         1 UNK         0.0600 
    174 H174        1.1517  -14.0216  -40.4984 H         1 UNK         0.3000 
    175 H175        2.2717  -17.3856  -40.5811 H         1 UNK         0.0600 
    176 H176        1.0124  -15.9508  -38.1830 H         1 UNK         0.0600 
    177 H177        0.9513  -17.6840  -38.5074 H         1 UNK         0.0600 
    178 H178        2.4845  -16.9137  -38.1340 H         1 UNK         0.0600 
    179 H179       -0.3378  -16.3669  -40.2322 H         1 UNK         0.3000 
    180 H180       -1.2408  -16.8601  -43.4444 H         1 UNK         0.0600 
    181 H181       -2.2085  -15.6111  -40.8097 H         1 UNK         0.0600 
    182 H182       -2.1249  -17.3383  -41.1606 H         1 UNK         0.0600 
    183 H183       -3.2202  -16.3123  -42.0639 H         1 UNK         0.0600 
    184 H184       -1.6049  -14.8938  -44.3133 H         1 UNK         0.3000 
    185 H185       -2.4448  -12.0212  -43.4767 H         1 UNK         0.0600 
    186 H186       -0.6235  -10.4067  -44.2148 H         1 UNK         0.0600 
    187 H187        0.5830  -11.5536  -43.6351 H         1 UNK         0.0600 
    188 H188       -0.5508  -10.8125  -42.5123 H         1 UNK         0.0600 
    189 H189       -0.9550  -13.6354  -45.3642 H         1 UNK         0.3000 
    190 H190       -2.3827  -20.0435  -45.4092 H         1 UNK         0.3000 
    191 H191       -5.0274  -19.1355  -45.8347 H         1 UNK         0.0600 
    192 H192       -3.2843  -17.9493  -44.4606 H         1 UNK         0.0600 
    193 H193       -4.7915  -18.1504  -43.5797 H         1 UNK         0.0600 
    194 H194       -3.4208  -19.1899  -43.2214 H         1 UNK         0.0600 
    195 H195       -3.7827  -21.7699  -43.7469 H         1 UNK         0.3000 
    196 H196       -6.3373  -22.4116  -42.6022 H         1 UNK         0.0600 
    197 H197       -5.0775  -24.3273  -41.6165 H         1 UNK         0.0600 
    198 H198       -4.2214  -22.8085  -41.4008 H         1 UNK         0.0600 
    199 H199       -3.6919  -23.9507  -42.6342 H         1 UNK         0.0600 
    200 H200       -4.3624  -23.9958  -45.2010 H         1 UNK         0.3000 
    201 H201       -6.6399  -25.8313  -45.7966 H         1 UNK         0.0600 
    202 H202       -5.1504  -26.8345  -44.0526 H         1 UNK         0.0600 
    203 H203       -3.7625  -26.6288  -45.1194 H         1 UNK         0.0600 
    204 H204       -5.0659  -27.7294  -45.5573 H         1 UNK         0.0600 
    205 H205       -5.2607  -23.5371  -47.3178 H         1 UNK         0.3000 
    206 H206       -5.0515  -22.9651  -49.4162 H         1 UNK         0.0600 
    207 H207       -7.0594  -24.3394  -49.8506 H         1 UNK         0.0600 
    208 H208       -5.9845  -24.3596  -51.2377 H         1 UNK         0.0600 
    209 H209       -6.0583  -25.7530  -50.1794 H         1 UNK         0.0600 
    210 H210       -3.4469  -26.0034  -48.7396 H         1 UNK         0.3000 
    211 H211       -1.4413  -26.8692  -49.2027 H         1 UNK         0.0600 
    212 H212       -0.6072  -23.9208  -49.1781 H         1 UNK         0.0600 
    213 H213        0.4376  -25.2922  -48.8236 H         1 UNK         0.0600 
    214 H214       -0.8951  -24.9169  -47.7506 H         1 UNK         0.0600 
    215 H215       -2.9620  -26.3085  -51.6441 H         1 UNK         0.3000 
    216 H216       -2.9224  -26.4571  -53.8300 H         1 UNK         0.0600 
    217 H217       -1.1563  -28.2039  -53.6398 H         1 UNK         0.0600 
    218 H218        0.0963  -26.9661  -53.7350 H         1 UNK         0.0600 
    219 H219       -0.9689  -27.2476  -55.1016 H         1 UNK         0.0600 
    220 H220       -0.4321  -24.3275  -52.5260 H         1 UNK         0.3000 
    221 H221        0.0831  -22.6560  -54.6951 H         1 UNK         0.0600 
    222 H222        0.0818  -22.0412  -51.6945 H         1 UNK         0.0600 
    223 H223        1.4347  -22.6542  -52.6413 H         1 UNK         0.0600 
    224 H224        0.8343  -21.0260  -52.9191 H         1 UNK         0.0600 
    225 H225       -2.7618  -22.5793  -52.5686 H         1 UNK         0.3000 
    226 H226       -3.7543  -20.0244  -53.2304 H         1 UNK         0.0600 
    227 H227       -4.6740  -21.4262  -51.4014 H         1 UNK         0.0600 
    228 H228       -5.9535  -20.9730  -52.5157 H         1 UNK         0.0600 
    229 H229       -5.2772  -22.5966  -52.5756 H         1 UNK         0.0600 
    230 H230       -3.7348  -22.9874  -55.1773 H         1 UNK         0.3000 
    231 H231       -5.7005  -22.0506  -57.1146 H         1 UNK         0.0600 
    232 H232       -5.0474  -24.0703  -58.3561 H         1 UNK         0.0600 
    233 H233       -5.2961  -24.4867  -56.6674 H         1 UNK         0.0600 
    234 H234       -3.6606  -24.3272  -57.3092 H         1 UNK         0.0600 
    235 H235       -2.2838  -21.5286  -56.5742 H         1 UNK         0.3000 
    236 H236       -1.7063  -20.7210  -59.3464 H         1 UNK         0.0600 
    237 H237        0.0332  -21.9137  -58.0159 H         1 UNK         0.0600 
    238 H238        0.5613  -20.3081  -58.4947 H         1 UNK         0.0600 
    239 H239        0.0530  -20.6010  -56.8405 H         1 UNK         0.0600 
    240 H240       -1.9259  -19.2079  -56.0729 H         1 UNK         0.3000 
    241 H241       -1.7832  -16.5162  -57.1906 H         1 UNK         0.0600 
    242 H242       -5.7346  -17.3823  -56.8462 H         1 UNK         0.3800 
    243 H243       -4.6011  -18.6353  -56.4363 H         1 UNK         0.3800 
    244 H244       -2.1604  -17.5461  -54.3580 H         1 UNK         0.0800 
    245 H245       -2.3220  -15.8526  -54.7273 H         1 UNK         0.0800 
    246 H246        1.6069  -17.7311  -53.7847 H         1 UNK         0.0800 
    247 H247        0.2512  -18.7451  -54.2003 H         1 UNK         0.0800 
@<TRIPOS>BOND
     1    1    2 1    
     2    1  127 1    
     3    1  128 1    
     4    1  129 1    
     5    2    3 2    
     6    2    4 am   BACKBONE|DICT|INTERRES
     7    4    5 1    
     8    4  130 1    
     9    5    6 1    
    10    5   65 1    
    11    5  131 1    
    12    6    7 1    
    13    6  132 1    
    14    6  133 1    
    15    7    8 1    
    16    8    9 1    
    17    8  134 1    
    18    8  135 1    
    19    9   10 ar   
    20    9   14 ar   
    21   10   11 ar   
    22   10  136 1    
    23   11   12 ar   
    24   11  126 1    
    25   12   13 ar   
    26   12  137 1    
    27   13   14 ar   
    28   13   15 1    
    29   14  138 1    
    30   15   16 1    
    31   15  139 1    
    32   15  140 1    
    33   16   17 1    
    34   17   18 1    
    35   17  141 1    
    36   17  142 1    
    37   18   19 1    
    38   18   67 1    
    39   18  143 1    
    40   19   20 am   BACKBONE|DICT|INTERRES
    41   19  144 1    
    42   20   21 2    
    43   20   22 1    
    44   22   23 1    
    45   22   24 1    
    46   22  145 1    
    47   23  146 1    
    48   23  147 1    
    49   23  148 1    
    50   24   25 am   BACKBONE|DICT|INTERRES
    51   24  149 1    
    52   25   26 2    
    53   25   27 1    
    54   27   28 1    
    55   27   29 1    
    56   27  150 1    
    57   28  151 1    
    58   28  152 1    
    59   28  153 1    
    60   29   30 am   BACKBONE|DICT|INTERRES
    61   29  154 1    
    62   30   31 2    
    63   30   32 1    
    64   32   33 1    
    65   32   34 1    
    66   32  155 1    
    67   33  156 1    
    68   33  157 1    
    69   33  158 1    
    70   34   35 am   BACKBONE|DICT|INTERRES
    71   34  159 1    
    72   35   36 2    
    73   35   37 1    
    74   37   38 1    
    75   37   39 1    
    76   37  160 1    
    77   38  161 1    
    78   38  162 1    
    79   38  163 1    
    80   39   40 am   BACKBONE|DICT|INTERRES
    81   39  164 1    
    82   40   41 2    
    83   40   42 1    
    84   42   43 1    
    85   42   44 1    
    86   42  165 1    
    87   43  166 1    
    88   43  167 1    
    89   43  168 1    
    90   44   45 am   BACKBONE|DICT|INTERRES
    91   44  169 1    
    92   45   46 2    
    93   45   47 1    
    94   47   48 1    
    95   47   49 1    
    96   47  170 1    
    97   48  171 1    
    98   48  172 1    
    99   48  173 1    
   100   49   50 am   BACKBONE|DICT|INTERRES
   101   49  174 1    
   102   50   51 2    
   103   50   52 1    
   104   52   53 1    
   105   52   54 1    
   106   52  175 1    
   107   53  176 1    
   108   53  177 1    
   109   53  178 1    
   110   54   55 am   BACKBONE|DICT|INTERRES
   111   54  179 1    
   112   55   56 2    
   113   55   57 1    
   114   57   58 1    
   115   57   59 1    
   116   57  180 1    
   117   58  181 1    
   118   58  182 1    
   119   58  183 1    
   120   59   60 am   BACKBONE|DICT|INTERRES
   121   59  184 1    
   122   60   61 2    
   123   60   62 1    
   124   62   63 1    
   125   62   64 1    
   126   62  185 1    
   127   63  186 1    
   128   63  187 1    
   129   63  188 1    
   130   64   65 am   BACKBONE|DICT|INTERRES
   131   64  189 1    
   132   65   66 2    
   133   67   68 2    
   134   67   69 am   BACKBONE|DICT|INTERRES
   135   69   70 1    
   136   69  190 1    
   137   70   71 1    
   138   70   72 1    
   139   70  191 1    
   140   71  192 1    
   141   71  193 1    
   142   71  194 1    
   143   72   73 2    
   144   72   74 am   BACKBONE|DICT|INTERRES
   145   74   75 1    
   146   74  195 1    
   147   75   76 1    
   148   75   77 1    
   149   75  196 1    
   150   76  197 1    
   151   76  198 1    
   152   76  199 1    
   153   77   78 2    
   154   77   79 am   BACKBONE|DICT|INTERRES
   155   79   80 1    
   156   79  200 1    
   157   80   81 1    
   158   80   82 1    
   159   80  201 1    
   160   81  202 1    
   161   81  203 1    
   162   81  204 1    
   163   82   83 2    
   164   82   84 am   BACKBONE|DICT|INTERRES
   165   84   85 1    
   166   84  205 1    
   167   85   86 1    
   168   85   87 1    
   169   85  206 1    
   170   86  207 1    
   171   86  208 1    
   172   86  209 1    
   173   87   88 2    
   174   87   89 am   BACKBONE|DICT|INTERRES
   175   89   90 1    
   176   89  210 1    
   177   90   91 1    
   178   90   92 1    
   179   90  211 1    
   180   91  212 1    
   181   91  213 1    
   182   91  214 1    
   183   92   93 2    
   184   92   94 am   BACKBONE|DICT|INTERRES
   185   94   95 1    
   186   94  215 1    
   187   95   96 1    
   188   95   97 1    
   189   95  216 1    
   190   96  217 1    
   191   96  218 1    
   192   96  219 1    
   193   97   98 2    
   194   97   99 am   BACKBONE|DICT|INTERRES
   195   99  100 1    
   196   99  220 1    
   197  100  101 1    
   198  100  102 1    
   199  100  221 1    
   200  101  222 1    
   201  101  223 1    
   202  101  224 1    
   203  102  103 2    
   204  102  104 am   BACKBONE|DICT|INTERRES
   205  104  105 1    
   206  104  225 1    
   207  105  106 1    
   208  105  107 1    
   209  105  226 1    
   210  106  227 1    
   211  106  228 1    
   212  106  229 1    
   213  107  108 2    
   214  107  109 am   BACKBONE|DICT|INTERRES
   215  109  110 1    
   216  109  230 1    
   217  110  111 1    
   218  110  112 1    
   219  110  231 1    
   220  111  232 1    
   221  111  233 1    
   222  111  234 1    
   223  112  113 2    
   224  112  114 am   BACKBONE|DICT|INTERRES
   225  114  115 1    
   226  114  235 1    
   227  115  116 1    
   228  115  117 1    
   229  115  236 1    
   230  116  237 1    
   231  116  238 1    
   232  116  239 1    
   233  117  118 2    
   234  117  119 am   BACKBONE|DICT|INTERRES
   235  119  120 1    
   236  119  240 1    
   237  120  121 1    
   238  120  124 1    
   239  120  241 1    
   240  121  122 am   BACKBONE|DICT|INTERRES
   241  121  123 2    
   242  122  242 1    
   243  122  243 1    
   244  124  125 1    
   245  124  244 1    
   246  124  245 1    
   247  125  126 1    
   248  126  246 1    
   249  126  247 1    
@<TRIPOS>SUBSTRUCTURE
     1 UNK         1 GROUP             0       ****    0 ROOT    
