@<TRIPOS>MOLECULE
3R540
247   249    1
SMALL
USER_CHARGES


@<TRIPOS>ATOM
      1 CA          5.1778  -11.6992  -49.3219 C.3       0 UNK        -0.1800 
      2 C           4.6829  -12.6193  -50.4287 C.2       0 UNK         0.5000 
      3 O           4.7560  -12.2560  -51.6023 O.2       0 UNK        -0.5000 
      4 N           4.1785  -13.8029  -50.0535 N.am      1 UNK        -0.5000 
      5 CA          3.6488  -14.8492  -50.9417 C.3       1 UNK         0.1400 
      6 C6          4.7381  -15.5190  -51.8273 C.3       23 UNK        -0.0398 
      7 S7          5.8635  -16.5628  -50.8389 S.3       23 UNK        -0.2404 
      8 C8          5.1923  -18.2300  -51.1596 C.3       23 UNK        -0.0205 
      9 C9          3.8472  -18.4476  -50.4791 C.ar      23 UNK        -0.0193 
     10 C10         2.6581  -18.1328  -51.1437 C.ar      23 UNK        -0.1150 
     11 C11         1.4194  -18.2716  -50.5116 C.ar      23 UNK        -0.0193 
     12 C12         1.3806  -18.8037  -49.2154 C.ar      23 UNK        -0.1150 
     13 C13         2.5591  -19.1504  -48.5473 C.ar      23 UNK        -0.0193 
     14 C14         3.7902  -18.9545  -49.1788 C.ar      23 UNK        -0.1150 
     15 C15         2.4998  -19.6969  -47.1287 C.3       23 UNK        -0.0205 
     16 S16         3.1160  -21.4025  -47.0141 S.3       23 UNK        -0.2404 
     17 C17         2.5014  -21.8672  -45.3588 C.3       23 UNK        -0.0398 
     18 CA          1.5453  -23.0819  -45.4004 C.3       11 UNK         0.1400 
     19 N           1.5876  -23.8477  -44.1524 N.am      11 UNK        -0.5000 
     20 C           1.0678  -25.0740  -43.9946 C.2       10 UNK         0.5000 
     21 O           0.5394  -25.7035  -44.9120 O.2       10 UNK        -0.5000 
     22 CA          1.0816  -25.6775  -42.5763 C.3       10 UNK         0.1400 
     23 CB          2.2138  -26.7067  -42.4445 C.3       10 UNK        -0.1800 
     24 N           1.2071  -24.6908  -41.4992 N.am      10 UNK        -0.5000 
     25 C           0.3539  -23.6875  -41.2476 C.2       9 UNK         0.5000 
     26 O          -0.6541  -23.4676  -41.9209 O.2       9 UNK        -0.5000 
     27 CA          0.6934  -22.7464  -40.0727 C.3       9 UNK         0.1400 
     28 CB          1.8780  -23.2244  -39.2021 C.3       9 UNK        -0.1800 
     29 N           0.9232  -21.3670  -40.5153 N.am      9 UNK        -0.5000 
     30 C           1.8059  -20.9409  -41.4315 C.2       8 UNK         0.5000 
     31 O           2.5158  -21.6883  -42.1080 O.2       8 UNK        -0.5000 
     32 CA          1.8719  -19.4169  -41.6189 C.3       8 UNK         0.1400 
     33 CB          2.9204  -18.9522  -42.6480 C.3       8 UNK        -0.1800 
     34 N           0.5524  -18.9244  -41.9961 N.am      8 UNK        -0.5000 
     35 C           0.0314  -17.7394  -41.6668 C.2       7 UNK         0.5000 
     36 O           0.6167  -16.9089  -40.9690 O.2       7 UNK        -0.5000 
     37 CA         -1.3775  -17.4416  -42.2262 C.3       7 UNK         0.1400 
     38 CB         -1.9542  -16.1116  -41.7088 C.3       7 UNK        -0.1800 
     39 N          -1.3953  -17.4284  -43.6908 N.am      7 UNK        -0.5000 
     40 C          -1.3521  -18.5143  -44.4773 C.2       6 UNK         0.5000 
     41 O          -1.3072  -19.6628  -44.0371 O.2       6 UNK        -0.5000 
     42 CA         -1.3563  -18.3001  -46.0041 C.3       6 UNK         0.1400 
     43 CB         -2.7881  -18.4332  -46.5351 C.3       6 UNK        -0.1800 
     44 N          -0.8191  -17.0101  -46.4385 N.am      6 UNK        -0.5000 
     45 C           0.4168  -16.5516  -46.1948 C.2       5 UNK         0.5000 
     46 O           1.2873  -17.2011  -45.6175 O.2       5 UNK        -0.5000 
     47 CA          0.7249  -15.1049  -46.6320 C.3       5 UNK         0.1400 
     48 CB          1.4292  -15.1114  -47.9959 C.3       5 UNK        -0.1800 
     49 N          -0.4345  -14.2032  -46.6928 N.am      5 UNK        -0.5000 
     50 C          -1.3216  -13.9867  -45.7079 C.2       4 UNK         0.5000 
     51 O          -1.2694  -14.5534  -44.6158 O.2       4 UNK        -0.5000 
     52 CA         -2.4704  -12.9888  -45.9640 C.3       4 UNK         0.1400 
     53 CB         -2.3758  -11.7972  -44.9973 C.3       4 UNK        -0.1800 
     54 N          -2.5530  -12.4698  -47.3303 N.am      4 UNK        -0.5000 
     55 C          -2.9080  -13.1614  -48.4208 C.2       3 UNK         0.5000 
     56 O          -3.1510  -14.3681  -48.4147 O.2       3 UNK        -0.5000 
     57 CA         -2.9925  -12.3762  -49.7479 C.3       3 UNK         0.1400 
     58 CB         -3.0530  -10.8427  -49.5677 C.3       3 UNK        -0.1800 
     59 N          -1.9168  -12.7251  -50.6783 N.am      3 UNK        -0.5000 
     60 C          -0.5985  -12.7022  -50.4452 C.2       2 UNK         0.5000 
     61 O          -0.0856  -12.4018  -49.3629 O.2       2 UNK        -0.5000 
     62 CA          0.2987  -13.0716  -51.6333 C.3       2 UNK         0.1400 
     63 CB          0.5170  -11.8634  -52.5597 C.3       2 UNK        -0.1800 
     64 N           1.5790  -13.5394  -51.1201 N.am      2 UNK        -0.5000 
     65 C           2.3976  -14.3994  -51.7350 C.2       1 UNK         0.5000 
     66 O           2.1735  -14.8548  -52.8577 O.2       1 UNK        -0.5000 
     67 C           0.1074  -22.6933  -45.8265 C.2       11 UNK         0.5000 
     68 O          -0.1036  -22.3790  -46.9958 O.2       11 UNK        -0.5000 
     69 N          -0.8786  -22.7936  -44.9198 N.am      12 UNK        -0.5000 
     70 CA         -2.3013  -22.6643  -45.2439 C.3       12 UNK         0.1400 
     71 CB         -3.1306  -22.6548  -43.9526 C.3       12 UNK        -0.1800 
     72 C          -2.8072  -23.7676  -46.1954 C.2       12 UNK         0.5000 
     73 O          -3.7205  -23.5082  -46.9805 O.2       12 UNK        -0.5000 
     74 N          -2.1965  -24.9615  -46.1376 N.am      13 UNK        -0.5000 
     75 CA         -2.4630  -26.0597  -47.0665 C.3       13 UNK         0.1400 
     76 CB         -2.0069  -27.3903  -46.4499 C.3       13 UNK        -0.1800 
     77 C          -1.7824  -25.8202  -48.4250 C.2       13 UNK         0.5000 
     78 O          -2.4065  -26.0477  -49.4615 O.2       13 UNK        -0.5000 
     79 N          -0.5394  -25.3125  -48.3986 N.am      14 UNK        -0.5000 
     80 CA          0.2349  -24.9197  -49.5839 C.3       14 UNK         0.1400 
     81 CB          1.6694  -24.5627  -49.1684 C.3       14 UNK        -0.1800 
     82 C          -0.4118  -23.7565  -50.3629 C.2       14 UNK         0.5000 
     83 O          -0.3115  -23.7085  -51.5884 O.2       14 UNK        -0.5000 
     84 N          -1.1271  -22.8877  -49.6375 N.am      15 UNK        -0.5000 
     85 CA         -1.9874  -21.8186  -50.1418 C.3       15 UNK         0.1400 
     86 CB         -2.2748  -20.8547  -48.9842 C.3       15 UNK        -0.1800 
     87 C          -3.3096  -22.3079  -50.7787 C.2       15 UNK         0.5000 
     88 O          -4.1647  -21.4745  -51.0877 O.2       15 UNK        -0.5000 
     89 N          -3.4623  -23.6286  -50.9551 N.am      16 UNK        -0.5000 
     90 CA         -4.6045  -24.3369  -51.5347 C.3       16 UNK         0.1400 
     91 CB         -4.8156  -23.9504  -53.0137 C.3       16 UNK        -0.1800 
     92 C          -5.8677  -24.2186  -50.6624 C.2       16 UNK         0.5000 
     93 O          -6.9565  -23.9640  -51.1763 O.2       16 UNK        -0.5000 
     94 N          -5.6783  -24.4325  -49.3528 N.am      17 UNK        -0.5000 
     95 CA         -6.6733  -24.3689  -48.2815 C.3       17 UNK         0.1400 
     96 CB         -7.8517  -25.3373  -48.5225 C.3       17 UNK        -0.1800 
     97 C          -7.1125  -22.9196  -48.0055 C.2       17 UNK         0.5000 
     98 O          -8.2320  -22.5275  -48.3380 O.2       17 UNK        -0.5000 
     99 N          -6.2012  -22.1752  -47.3661 N.am      18 UNK        -0.5000 
    100 CA        -6.3717  -20.8364  -46.7987 C.3       18 UNK         0.1400 
    101 CB        -7.4570  -20.8327  -45.7014 C.3       18 UNK        -0.1800 
    102 C         -6.5875  -19.7404  -47.8602 C.2       18 UNK         0.5000 
    103 O         -7.7000  -19.2391  -48.0309 O.2       18 UNK        -0.5000 
    104 N         -5.4803  -19.3607  -48.5113 N.am      19 UNK        -0.5000 
    105 CA        -5.3115  -18.1712  -49.3564 C.3       19 UNK         0.1400 
    106 CB        -5.5835  -16.8760  -48.5598 C.3       19 UNK        -0.1800 
    107 C         -6.0671  -18.2026  -50.6976 C.2       19 UNK         0.5000 
    108 O         -6.3070  -17.1443  -51.2803 O.2       19 UNK        -0.5000 
    109 N         -6.3870  -19.4008  -51.2008 N.am      20 UNK        -0.5000 
    110 CA        -6.9853  -19.5801  -52.5238 C.3       20 UNK         0.1400 
    111 CB        -7.6449  -20.9605  -52.6135 C.3       20 UNK        -0.1800 
    112 C         -5.9458  -19.3839  -53.6421 C.2       20 UNK         0.5000 
    113 O         -6.2419  -18.7219  -54.6373 O.2       20 UNK        -0.5000 
    114 N         -4.7337  -19.9213  -53.4401 N.am      21 UNK        -0.5000 
    115 CA        -3.5966  -19.7447  -54.3478 C.3       21 UNK         0.1400 
    116 CB        -2.5827  -20.8765  -54.1249 C.3       21 UNK        -0.1800 
    117 C         -2.9102  -18.3766  -54.1749 C.2       21 UNK         0.5000 
    118 O         -2.2722  -17.8978  -55.1127 O.2       21 UNK        -0.5000 
    119 N         -3.0470  -17.7780  -52.9844 N.am      22 UNK        -0.5000 
    120 CA        -2.4670  -16.4738  -52.6248 C.3       22 UNK         0.1400 
    121 C         -3.2337  -15.2403  -53.1876 C.2       22 UNK         0.5000 
    122 N         -4.3813  -15.3995  -53.8343 N.am      22 UNK        -0.7600 
    123 O         -2.7731  -14.1122  -53.0321 O.2       22 UNK        -0.5000 
    124 C124       -2.2582  -16.3280  -51.0938 C.3       23 UNK        -0.0398 
    125 S125       -1.3572  -17.6883  -50.2788 S.3       23 UNK        -0.2404 
    126 C126        0.1732  -17.8046  -51.2679 C.3       23 UNK        -0.0205 
    127 H127        5.0488  -12.1443  -48.3350 H         1 UNK         0.0600 
    128 H128        4.6292  -10.7575  -49.3440 H         1 UNK         0.0600 
    129 H129        6.2368  -11.4815  -49.4607 H         1 UNK         0.0600 
    130 H130        4.1743  -14.0357  -49.0707 H         1 UNK         0.3000 
    131 H131        3.2649  -15.6138  -50.2675 H         1 UNK         0.0600 
    132 H132        4.3057  -16.1410  -52.6109 H         1 UNK         0.0800 
    133 H133        5.3273  -14.7667  -52.3522 H         1 UNK         0.0800 
    134 H134        5.1069  -18.3958  -52.2346 H         1 UNK         0.0800 
    135 H135        5.9085  -18.9696  -50.7985 H         1 UNK         0.0800 
    136 H136        2.6963  -17.7404  -52.1500 H         1 UNK         0.1150 
    137 H137        0.4383  -18.9362  -48.7068 H         1 UNK         0.1150 
    138 H138        4.7040  -19.2008  -48.6563 H         1 UNK         0.1150 
    139 H139        3.0859  -19.0565  -46.4682 H         1 UNK         0.0800 
    140 H140        1.4748  -19.6709  -46.7599 H         1 UNK         0.0800 
    141 H141        2.0242  -21.0206  -44.8656 H         1 UNK         0.0800 
    142 H142        3.3821  -22.1014  -44.7590 H         1 UNK         0.0800 
    143 H143        1.9151  -23.7633  -46.1690 H         1 UNK         0.0600 
    144 H144        1.9734  -23.3705  -43.3448 H         1 UNK         0.3000 
    145 H145        0.1300  -26.1949  -42.4388 H         1 UNK         0.0600 
    146 H146        2.1783  -27.2122  -41.4792 H         1 UNK         0.0600 
    147 H147        2.1355  -27.4755  -43.2146 H         1 UNK         0.0600 
    148 H148        3.1945  -26.2400  -42.5449 H         1 UNK         0.0600 
    149 H149        2.0238  -24.7746  -40.9115 H         1 UNK         0.3000 
    150 H150       -0.1940  -22.7259  -39.4385 H         1 UNK         0.0600 
    151 H151        1.6996  -24.2243  -38.8044 H         1 UNK         0.0600 
    152 H152        2.0192  -22.5644  -38.3461 H         1 UNK         0.0600 
    153 H153        2.8170  -23.2446  -39.7565 H         1 UNK         0.0600 
    154 H154        0.3491  -20.6695  -40.0630 H         1 UNK         0.3000 
    155 H155        2.1513  -19.0054  -40.6467 H         1 UNK         0.0600 
    156 H156        2.6413  -19.2258  -43.6641 H         1 UNK         0.0600 
    157 H157        3.8997  -19.3852  -42.4408 H         1 UNK         0.0600 
    158 H158        3.0345  -17.8684  -42.6238 H         1 UNK         0.0600 
    159 H159       -0.0005  -19.5290  -42.5989 H         1 UNK         0.3000 
    160 H160       -2.0371  -18.2401  -41.8797 H         1 UNK         0.0600 
    161 H161       -1.3338  -15.2630  -41.9992 H         1 UNK         0.0600 
    162 H162       -2.0215  -16.1119  -40.6203 H         1 UNK         0.0600 
    163 H163       -2.9584  -15.9391  -42.0963 H         1 UNK         0.0600 
    164 H164       -1.3768  -16.5108  -44.1252 H         1 UNK         0.3000 
    165 H165       -0.7481  -19.0865  -46.4527 H         1 UNK         0.0600 
    166 H166       -2.8218  -18.2765  -47.6118 H         1 UNK         0.0600 
    167 H167       -3.1901  -19.4254  -46.3305 H         1 UNK         0.0600 
    168 H168       -3.4542  -17.7063  -46.0691 H         1 UNK         0.0600 
    169 H169       -1.4587  -16.3956  -46.9219 H         1 UNK         0.3000 
    170 H170        1.4142  -14.6908  -45.8938 H         1 UNK         0.0600 
    171 H171        2.2840  -15.7895  -47.9928 H         1 UNK         0.0600 
    172 H172        0.7579  -15.4340  -48.7932 H         1 UNK         0.0600 
    173 H173        1.8022  -14.1185  -48.2436 H         1 UNK         0.0600 
    174 H174       -0.5449  -13.6732  -47.5487 H         1 UNK         0.3000 
    175 H175       -3.4002  -13.5216  -45.7549 H         1 UNK         0.0600 
    176 H176       -1.4678  -11.2165  -45.1645 H         1 UNK         0.0600 
    177 H177       -3.2291  -11.1281  -45.1099 H         1 UNK         0.0600 
    178 H178       -2.3649  -12.1316  -43.9589 H         1 UNK         0.0600 
    179 H179       -2.3248  -11.4934  -47.4479 H         1 UNK         0.3000 
    180 H180       -3.9235  -12.6885  -50.2233 H         1 UNK         0.0600 
    181 H181       -2.1269  -10.4364  -49.1595 H         1 UNK         0.0600 
    182 H182       -3.8687  -10.5543  -48.9033 H         1 UNK         0.0600 
    183 H183       -3.2316  -10.3491  -50.5232 H         1 UNK         0.0600 
    184 H184       -2.2323  -13.0445  -51.5924 H         1 UNK         0.3000 
    185 H185       -0.1817  -13.8772  -52.1918 H         1 UNK         0.0600 
    186 H186       -0.4314  -11.4958  -52.9533 H         1 UNK         0.0600 
    187 H187        0.9997  -11.0382  -52.0345 H         1 UNK         0.0600 
    188 H188        1.1414  -12.1274  -53.4133 H         1 UNK         0.0600 
    189 H189        1.7968  -13.2129  -50.1875 H         1 UNK         0.3000 
    190 H190       -0.6552  -23.0394  -43.9612 H         1 UNK         0.3000 
    191 H191       -2.4417  -21.7051  -45.7447 H         1 UNK         0.0600 
    192 H192       -2.8154  -21.8509  -43.2872 H         1 UNK         0.0600 
    193 H193       -4.1889  -22.5023  -44.1685 H         1 UNK         0.0600 
    194 H194       -3.0367  -23.5950  -43.4078 H         1 UNK         0.0600 
    195 H195       -1.4318  -25.0949  -45.4865 H         1 UNK         0.3000 
    196 H196       -3.5405  -26.1219  -47.2346 H         1 UNK         0.0600 
    197 H197       -2.2672  -28.2271  -47.0992 H         1 UNK         0.0600 
    198 H198       -2.4873  -27.5642  -45.4869 H         1 UNK         0.0600 
    199 H199       -0.9280  -27.4208  -46.2970 H         1 UNK         0.0600 
    200 H200       -0.1078  -25.1505  -47.5005 H         1 UNK         0.3000 
    201 H201        0.2775  -25.7829  -50.2512 H         1 UNK         0.0600 
    202 H202        2.1336  -25.3691  -48.6005 H         1 UNK         0.0600 
    203 H203        1.6987  -23.6590  -48.5608 H         1 UNK         0.0600 
    204 H204        2.2920  -24.3813  -50.0453 H         1 UNK         0.0600 
    205 H205       -1.0473  -22.9486  -48.6274 H         1 UNK         0.3000 
    206 H206       -1.4355  -21.2731  -50.9088 H         1 UNK         0.0600 
    207 H207       -1.3516  -20.4785  -48.5449 H         1 UNK         0.0600 
    208 H208       -2.8385  -19.9938  -49.3344 H         1 UNK         0.0600 
    209 H209       -2.8529  -21.3317  -48.1947 H         1 UNK         0.0600 
    210 H210       -2.7188  -24.2315  -50.6259 H         1 UNK         0.3000 
    211 H211       -4.3385  -25.3948  -51.5199 H         1 UNK         0.0600 
    212 H212       -5.0536  -22.8955  -53.1357 H         1 UNK         0.0600 
    213 H213       -5.6311  -24.5231  -53.4564 H         1 UNK         0.0600 
    214 H214       -3.9211  -24.1579  -53.6006 H         1 UNK         0.0600 
    215 H215       -4.7279  -24.5822  -49.0424 H         1 UNK         0.3000 
    216 H216       -6.1662  -24.7205  -47.3813 H         1 UNK         0.0600 
    217 H217       -8.5077  -25.3665  -47.6519 H         1 UNK         0.0600 
    218 H218       -7.4975  -26.3532  -48.6968 H         1 UNK         0.0600 
    219 H219       -8.4644  -25.0444  -49.3750 H         1 UNK         0.0600 
    220 H220       -5.2952  -22.6092  -47.1964 H         1 UNK         0.3000 
    221 H221       -5.4297  -20.6056  -46.2986 H         1 UNK         0.0600 
    222 H222       -8.4469  -21.0556  -46.1003 H         1 UNK         0.0600 
    223 H223       -7.2353  -21.5661  -44.9261 H         1 UNK         0.0600 
    224 H224       -7.5151  -19.8569  -45.2180 H         1 UNK         0.0600 
    225 H225       -4.6386  -19.8914  -48.3472 H         1 UNK         0.3000 
    226 H226       -4.2581  -18.1575  -49.6294 H         1 UNK         0.0600 
    227 H227       -5.0089  -16.8444  -47.6358 H         1 UNK         0.0600 
    228 H228       -5.3036  -15.9933  -49.1357 H         1 UNK         0.0600 
    229 H229       -6.6376  -16.7717  -48.3024 H         1 UNK         0.0600 
    230 H230       -6.1050  -20.2351  -50.7028 H         1 UNK         0.3000 
    231 H231       -7.7686  -18.8307  -52.6580 H         1 UNK         0.0600 
    232 H232       -6.9121  -21.7557  -52.4995 H         1 UNK         0.0600 
    233 H233       -8.1342  -21.0996  -53.5780 H         1 UNK         0.0600 
    234 H234       -8.4012  -21.0903  -51.8390 H         1 UNK         0.0600 
    235 H235       -4.5700  -20.4634  -52.5941 H         1 UNK         0.3000 
    236 H236       -3.9549  -19.8111  -55.3773 H         1 UNK         0.0600 
    237 H237       -3.0452  -21.8552  -54.2469 H         1 UNK         0.0600 
    238 H238       -1.7654  -20.8131  -54.8443 H         1 UNK         0.0600 
    239 H239       -2.1422  -20.8307  -53.1299 H         1 UNK         0.0600 
    240 H240       -3.5901  -18.2427  -52.2746 H         1 UNK         0.3000 
    241 H241       -1.4824  -16.4214  -53.0917 H         1 UNK         0.0600 
    242 H242       -4.7832  -16.3159  -53.9546 H         1 UNK         0.3800 
    243 H243       -4.8631  -14.5901  -54.1920 H         1 UNK         0.3800 
    244 H244       -1.7036  -15.4184  -50.8730 H         1 UNK         0.0800 
    245 H245       -3.2194  -16.2145  -50.5914 H         1 UNK         0.0800 
    246 H246        0.3873  -16.8210  -51.6872 H         1 UNK         0.0800 
    247 H247       -0.0053  -18.4735  -52.1107 H         1 UNK         0.0800 
@<TRIPOS>BOND
     1    1    2 1    
     2    1  127 1    
     3    1  128 1    
     4    1  129 1    
     5    2    3 2    
     6    2    4 am   BACKBONE|DICT|INTERRES
     7    4    5 1    
     8    4  130 1    
     9    5    6 1    
    10    5   65 1    
    11    5  131 1    
    12    6    7 1    
    13    6  132 1    
    14    6  133 1    
    15    7    8 1    
    16    8    9 1    
    17    8  134 1    
    18    8  135 1    
    19    9   10 ar   
    20    9   14 ar   
    21   10   11 ar   
    22   10  136 1    
    23   11   12 ar   
    24   11  126 1    
    25   12   13 ar   
    26   12  137 1    
    27   13   14 ar   
    28   13   15 1    
    29   14  138 1    
    30   15   16 1    
    31   15  139 1    
    32   15  140 1    
    33   16   17 1    
    34   17   18 1    
    35   17  141 1    
    36   17  142 1    
    37   18   19 1    
    38   18   67 1    
    39   18  143 1    
    40   19   20 am   BACKBONE|DICT|INTERRES
    41   19  144 1    
    42   20   21 2    
    43   20   22 1    
    44   22   23 1    
    45   22   24 1    
    46   22  145 1    
    47   23  146 1    
    48   23  147 1    
    49   23  148 1    
    50   24   25 am   BACKBONE|DICT|INTERRES
    51   24  149 1    
    52   25   26 2    
    53   25   27 1    
    54   27   28 1    
    55   27   29 1    
    56   27  150 1    
    57   28  151 1    
    58   28  152 1    
    59   28  153 1    
    60   29   30 am   BACKBONE|DICT|INTERRES
    61   29  154 1    
    62   30   31 2    
    63   30   32 1    
    64   32   33 1    
    65   32   34 1    
    66   32  155 1    
    67   33  156 1    
    68   33  157 1    
    69   33  158 1    
    70   34   35 am   BACKBONE|DICT|INTERRES
    71   34  159 1    
    72   35   36 2    
    73   35   37 1    
    74   37   38 1    
    75   37   39 1    
    76   37  160 1    
    77   38  161 1    
    78   38  162 1    
    79   38  163 1    
    80   39   40 am   BACKBONE|DICT|INTERRES
    81   39  164 1    
    82   40   41 2    
    83   40   42 1    
    84   42   43 1    
    85   42   44 1    
    86   42  165 1    
    87   43  166 1    
    88   43  167 1    
    89   43  168 1    
    90   44   45 am   BACKBONE|DICT|INTERRES
    91   44  169 1    
    92   45   46 2    
    93   45   47 1    
    94   47   48 1    
    95   47   49 1    
    96   47  170 1    
    97   48  171 1    
    98   48  172 1    
    99   48  173 1    
   100   49   50 am   BACKBONE|DICT|INTERRES
   101   49  174 1    
   102   50   51 2    
   103   50   52 1    
   104   52   53 1    
   105   52   54 1    
   106   52  175 1    
   107   53  176 1    
   108   53  177 1    
   109   53  178 1    
   110   54   55 am   BACKBONE|DICT|INTERRES
   111   54  179 1    
   112   55   56 2    
   113   55   57 1    
   114   57   58 1    
   115   57   59 1    
   116   57  180 1    
   117   58  181 1    
   118   58  182 1    
   119   58  183 1    
   120   59   60 am   BACKBONE|DICT|INTERRES
   121   59  184 1    
   122   60   61 2    
   123   60   62 1    
   124   62   63 1    
   125   62   64 1    
   126   62  185 1    
   127   63  186 1    
   128   63  187 1    
   129   63  188 1    
   130   64   65 am   BACKBONE|DICT|INTERRES
   131   64  189 1    
   132   65   66 2    
   133   67   68 2    
   134   67   69 am   BACKBONE|DICT|INTERRES
   135   69   70 1    
   136   69  190 1    
   137   70   71 1    
   138   70   72 1    
   139   70  191 1    
   140   71  192 1    
   141   71  193 1    
   142   71  194 1    
   143   72   73 2    
   144   72   74 am   BACKBONE|DICT|INTERRES
   145   74   75 1    
   146   74  195 1    
   147   75   76 1    
   148   75   77 1    
   149   75  196 1    
   150   76  197 1    
   151   76  198 1    
   152   76  199 1    
   153   77   78 2    
   154   77   79 am   BACKBONE|DICT|INTERRES
   155   79   80 1    
   156   79  200 1    
   157   80   81 1    
   158   80   82 1    
   159   80  201 1    
   160   81  202 1    
   161   81  203 1    
   162   81  204 1    
   163   82   83 2    
   164   82   84 am   BACKBONE|DICT|INTERRES
   165   84   85 1    
   166   84  205 1    
   167   85   86 1    
   168   85   87 1    
   169   85  206 1    
   170   86  207 1    
   171   86  208 1    
   172   86  209 1    
   173   87   88 2    
   174   87   89 am   BACKBONE|DICT|INTERRES
   175   89   90 1    
   176   89  210 1    
   177   90   91 1    
   178   90   92 1    
   179   90  211 1    
   180   91  212 1    
   181   91  213 1    
   182   91  214 1    
   183   92   93 2    
   184   92   94 am   BACKBONE|DICT|INTERRES
   185   94   95 1    
   186   94  215 1    
   187   95   96 1    
   188   95   97 1    
   189   95  216 1    
   190   96  217 1    
   191   96  218 1    
   192   96  219 1    
   193   97   98 2    
   194   97   99 am   BACKBONE|DICT|INTERRES
   195   99  100 1    
   196   99  220 1    
   197  100  101 1    
   198  100  102 1    
   199  100  221 1    
   200  101  222 1    
   201  101  223 1    
   202  101  224 1    
   203  102  103 2    
   204  102  104 am   BACKBONE|DICT|INTERRES
   205  104  105 1    
   206  104  225 1    
   207  105  106 1    
   208  105  107 1    
   209  105  226 1    
   210  106  227 1    
   211  106  228 1    
   212  106  229 1    
   213  107  108 2    
   214  107  109 am   BACKBONE|DICT|INTERRES
   215  109  110 1    
   216  109  230 1    
   217  110  111 1    
   218  110  112 1    
   219  110  231 1    
   220  111  232 1    
   221  111  233 1    
   222  111  234 1    
   223  112  113 2    
   224  112  114 am   BACKBONE|DICT|INTERRES
   225  114  115 1    
   226  114  235 1    
   227  115  116 1    
   228  115  117 1    
   229  115  236 1    
   230  116  237 1    
   231  116  238 1    
   232  116  239 1    
   233  117  118 2    
   234  117  119 am   BACKBONE|DICT|INTERRES
   235  119  120 1    
   236  119  240 1    
   237  120  121 1    
   238  120  124 1    
   239  120  241 1    
   240  121  122 am   BACKBONE|DICT|INTERRES
   241  121  123 2    
   242  122  242 1    
   243  122  243 1    
   244  124  125 1    
   245  124  244 1    
   246  124  245 1    
   247  125  126 1    
   248  126  246 1    
   249  126  247 1    
@<TRIPOS>SUBSTRUCTURE
     1 UNK         1 GROUP             0       ****    0 ROOT    
