@<TRIPOS>MOLECULE
3R540
247   249    1
SMALL
USER_CHARGES


@<TRIPOS>ATOM
      1 CA         -2.3936   -8.2956  -51.2988 C.3       0 UNK        -0.1800 
      2 C          -1.9270   -9.3427  -50.2978 C.2       0 UNK         0.5000 
      3 O          -0.7239   -9.4878  -50.0766 O.2       0 UNK        -0.5000 
      4 N          -2.8703  -10.0710  -49.6866 N.am      1 UNK        -0.5000 
      5 CA         -2.6228  -11.1000  -48.6718 C.3       1 UNK         0.1400 
      6 C6         -3.7586  -12.1596  -48.6517 C.3       23 UNK        -0.0398 
      7 S7         -3.1386  -13.8078  -48.1747 S.3       23 UNK        -0.2404 
      8 C8         -3.2936  -14.6869  -49.7585 C.3       23 UNK        -0.0205 
      9 C9         -2.6069  -16.0421  -49.7287 C.ar      23 UNK        -0.0193 
     10 C10        -1.3660  -16.2124  -50.3476 C.ar      23 UNK        -0.1150 
     11 C11        -0.7522  -17.4671  -50.3752 C.ar      23 UNK        -0.0193 
     12 C12        -1.3876  -18.5586  -49.7777 C.ar      23 UNK        -0.1150 
     13 C13        -2.6280  -18.3999  -49.1544 C.ar      23 UNK        -0.0193 
     14 C14        -3.2302  -17.1382  -49.1266 C.ar      23 UNK        -0.1150 
     15 C15        -3.3565  -19.6023  -48.5802 C.3       23 UNK        -0.0205 
     16 S16        -3.1681  -19.7584  -46.7780 S.3       23 UNK        -0.2404 
     17 C17        -1.4708  -20.4070  -46.6056 C.3       23 UNK        -0.0398 
     18 CA         -1.3547  -21.9393  -46.8103 C.3       11 UNK         0.1400 
     19 N           0.0452  -22.3610  -46.9000 N.am      11 UNK        -0.5000 
     20 C           0.4599  -23.5761  -47.2858 C.2       10 UNK         0.5000 
     21 O          -0.2957  -24.4810  -47.6345 O.2       10 UNK        -0.5000 
     22 CA          1.9752  -23.8339  -47.2274 C.3       10 UNK         0.1400 
     23 CB          2.6782  -23.1967  -48.4359 C.3       10 UNK        -0.1800 
     24 N           2.5778  -23.3363  -45.9895 N.am      10 UNK        -0.5000 
     25 C           2.2966  -23.8106  -44.7670 C.2       9 UNK         0.5000 
     26 O           1.5280  -24.7463  -44.5557 O.2       9 UNK        -0.5000 
     27 CA          2.9406  -23.0856  -43.5726 C.3       9 UNK         0.1400 
     28 CB          4.3315  -23.6649  -43.2752 C.3       9 UNK        -0.1800 
     29 N           3.0452  -21.6361  -43.7555 N.am      9 UNK        -0.5000 
     30 C           2.0082  -20.8111  -43.9511 C.2       8 UNK         0.5000 
     31 O           0.8386  -21.1890  -44.0637 O.2       8 UNK        -0.5000 
     32 CA          2.3568  -19.3203  -44.1035 C.3       8 UNK         0.1400 
     33 CB          2.5830  -18.9850  -45.5853 C.3       8 UNK        -0.1800 
     34 N           1.3213  -18.4400  -43.5649 N.am      8 UNK        -0.5000 
     35 C           0.9386  -18.3869  -42.2808 C.2       7 UNK         0.5000 
     36 O           1.4387  -19.0815  -41.3943 O.2       7 UNK        -0.5000 
     37 CA         -0.1596  -17.3718  -41.8996 C.3       7 UNK         0.1400 
     38 CB          0.4066  -16.2893  -40.9664 C.3       7 UNK        -0.1800 
     39 N          -0.7770  -16.7121  -43.0498 N.am      7 UNK        -0.5000 
     40 C          -1.6977  -17.2575  -43.8543 C.2       6 UNK         0.5000 
     41 O          -2.1651  -18.3832  -43.6885 O.2       6 UNK        -0.5000 
     42 CA         -2.1595  -16.3984  -45.0464 C.3       6 UNK         0.1400 
     43 CB         -3.3469  -15.5110  -44.6422 C.3       6 UNK        -0.1800 
     44 N          -1.0782  -15.5614  -45.5715 N.am      6 UNK        -0.5000 
     45 C          -0.0709  -16.0220  -46.3271 C.2       5 UNK         0.5000 
     46 O           0.0294  -17.1933  -46.6865 O.2       5 UNK        -0.5000 
     47 CA          1.0399  -15.0209  -46.7006 C.3       5 UNK         0.1400 
     48 CB          0.6949  -14.2527  -47.9834 C.3       5 UNK        -0.1800 
     49 N           1.3151  -14.0622  -45.6315 N.am      5 UNK        -0.5000 
     50 C           1.9489  -14.3633  -44.4905 C.2       4 UNK         0.5000 
     51 O           2.4035  -15.4766  -44.2316 O.2       4 UNK        -0.5000 
     52 CA          2.0701  -13.2340  -43.4513 C.3       4 UNK         0.1400 
     53 CB          3.3567  -12.4272  -43.6794 C.3       4 UNK        -0.1800 
     54 N           0.9269  -12.3186  -43.4400 N.am      4 UNK        -0.5000 
     55 C          -0.3394  -12.6520  -43.1667 C.2       3 UNK         0.5000 
     56 O          -0.7039  -13.8084  -42.9594 O.2       3 UNK        -0.5000 
     57 CA         -1.3811  -11.5185  -43.1385 C.3       3 UNK         0.1400 
     58 CB         -1.2792  -10.7068  -41.8338 C.3       3 UNK        -0.1800 
     59 N          -1.3741  -10.6411  -44.3163 N.am      3 UNK        -0.5000 
     60 C          -0.4351   -9.7926  -44.7548 C.2       2 UNK         0.5000 
     61 O           0.6647   -9.6524  -44.2158 O.2       2 UNK        -0.5000 
     62 CA         -0.7927   -8.9714  -46.0147 C.3       2 UNK         0.1400 
     63 CB          0.3581   -8.0561  -46.4709 C.3       2 UNK        -0.1800 
     64 N          -1.2083   -9.7920  -47.1563 N.am      2 UNK        -0.5000 
     65 C          -2.3759  -10.4320  -47.2999 C.2       1 UNK         0.5000 
     66 O          -3.2435  -10.4550  -46.4245 O.2       1 UNK        -0.5000 
     67 C          -2.1186  -22.7574  -45.7485 C.2       11 UNK         0.5000 
     68 O          -3.2220  -23.2322  -46.0269 O.2       11 UNK        -0.5000 
     69 N          -1.4894  -22.9609  -44.5829 N.am      12 UNK        -0.5000 
     70 CA         -2.0091  -23.7865  -43.4951 C.3       12 UNK         0.1400 
     71 CB         -1.1121  -23.6269  -42.2580 C.3       12 UNK        -0.1800 
     72 C          -2.1592  -25.2692  -43.8877 C.2       12 UNK         0.5000 
     73 O          -3.2316  -25.8404  -43.6873 O.2       12 UNK        -0.5000 
     74 N          -1.0986  -25.8581  -44.4596 N.am      13 UNK        -0.5000 
     75 CA         -1.0434  -27.2648  -44.8664 C.3       13 UNK         0.1400 
     76 CB          0.3967  -27.6351  -45.2517 C.3       13 UNK        -0.1800 
     77 C          -2.0080  -27.6125  -46.0130 C.2       13 UNK         0.5000 
     78 O          -2.6132  -28.6849  -45.9908 O.2       13 UNK        -0.5000 
     79 N          -2.1477  -26.7003  -46.9837 N.am      14 UNK        -0.5000 
     80 CA         -3.0423  -26.8506  -48.1325 C.3       14 UNK         0.1400 
     81 CB         -2.5536  -25.9322  -49.2611 C.3       14 UNK        -0.1800 
     82 C          -4.5181  -26.5492  -47.8092 C.2       14 UNK         0.5000 
     83 O          -5.3655  -26.7557  -48.6771 O.2       14 UNK        -0.5000 
     84 N          -4.8017  -26.0329  -46.6030 N.am      15 UNK        -0.5000 
     85 CA         -6.1088  -25.5587  -46.1351 C.3       15 UNK         0.1400 
     86 CB         -7.0988  -26.7311  -45.9745 C.3       15 UNK        -0.1800 
     87 C          -6.6452  -24.4188  -47.0262 C.2       15 UNK         0.5000 
     88 O          -7.7701  -24.4817  -47.5238 O.2       15 UNK        -0.5000 
     89 N          -5.7814  -23.4171  -47.2358 N.am      16 UNK        -0.5000 
     90 CA         -5.9496  -22.2039  -48.0394 C.3       16 UNK         0.1400 
     91 CB         -7.2011  -21.4034  -47.6287 C.3       16 UNK        -0.1800 
     92 C          -5.8622  -22.4003  -49.5663 C.2       16 UNK         0.5000 
     93 O          -5.8134  -21.4027  -50.2868 O.2       16 UNK        -0.5000 
     94 N          -5.7897  -23.6482  -50.0529 N.am      17 UNK        -0.5000 
     95 CA         -5.7431  -23.9723  -51.4849 C.3       17 UNK         0.1400 
     96 CB         -6.0092  -25.4720  -51.6798 C.3       17 UNK        -0.1800 
     97 C          -4.4367  -23.5538  -52.1926 C.2       17 UNK         0.5000 
     98 O          -4.4210  -23.4638  -53.4210 O.2       17 UNK        -0.5000 
     99 N          -3.3735  -23.2803  -51.4198 N.am      18 UNK        -0.5000 
    100 CA        -2.0690  -22.8269  -51.9138 C.3       18 UNK         0.1400 
    101 CB        -1.0525  -22.8066  -50.7626 C.3       18 UNK        -0.1800 
    102 C         -2.1022  -21.4487  -52.5992 C.2       18 UNK         0.5000 
    103 O         -1.2136  -21.1688  -53.4026 O.2       18 UNK        -0.5000 
    104 N         -3.1282  -20.6330  -52.3066 N.am      19 UNK        -0.5000 
    105 CA        -3.3466  -19.2833  -52.8441 C.3       19 UNK         0.1400 
    106 CB        -4.6491  -18.7247  -52.2502 C.3       19 UNK        -0.1800 
    107 C         -3.4007  -19.1978  -54.3839 C.2       19 UNK         0.5000 
    108 O         -3.1895  -18.1207  -54.9417 O.2       19 UNK        -0.5000 
    109 N         -3.6784  -20.3306  -55.0420 N.am      20 UNK        -0.5000 
    110 CA        -3.7019  -20.4837  -56.4934 C.3       20 UNK         0.1400 
    111 CB        -4.3847  -21.8196  -56.8270 C.3       20 UNK        -0.1800 
    112 C         -2.3135  -20.4086  -57.1643 C.2       20 UNK         0.5000 
    113 O         -2.2650  -20.2166  -58.3807 O.2       20 UNK        -0.5000 
    114 N         -1.2211  -20.5759  -56.4017 N.am      21 UNK        -0.5000 
    115 CA         0.1417  -20.6056  -56.9425 C.3       21 UNK         0.1400 
    116 CB         0.5071  -22.0453  -57.3452 C.3       21 UNK        -0.1800 
    117 C          1.1989  -20.0245  -55.9904 C.2       21 UNK         0.5000 
    118 O          2.1237  -19.3628  -56.4639 O.2       21 UNK        -0.5000 
    119 N          1.0682  -20.2884  -54.6836 N.am      22 UNK        -0.5000 
    120 CA         1.9987  -19.8815  -53.6123 C.3       22 UNK         0.1400 
    121 C          3.4289  -20.5002  -53.7091 C.2       22 UNK         0.5000 
    122 N          3.6262  -21.5937  -54.4357 N.am      22 UNK        -0.7600 
    123 O          4.3707  -20.0088  -53.0928 O.2       22 UNK        -0.5000 
    124 C124        2.0155  -18.3451  -53.3746 C.3       23 UNK        -0.0398 
    125 S125        0.3750  -17.7233  -52.8773 S.3       23 UNK        -0.2404 
    126 C126        0.5848  -17.6474  -51.0717 C.3       23 UNK        -0.0205 
    127 H127       -3.4796   -8.2816  -51.3950 H         1 UNK         0.0600 
    128 H128       -1.9677   -8.4999  -52.2811 H         1 UNK         0.0600 
    129 H129       -2.0671   -7.3045  -50.9838 H         1 UNK         0.0600 
    130 H130       -3.8421   -9.8791  -49.8856 H         1 UNK         0.3000 
    131 H131       -1.6988  -11.6126  -48.9504 H         1 UNK         0.0600 
    132 H132       -4.2080  -12.2418  -49.6423 H         1 UNK         0.0800 
    133 H133       -4.5846  -11.8797  -47.9960 H         1 UNK         0.0800 
    134 H134       -2.8703  -14.0732  -50.5554 H         1 UNK         0.0800 
    135 H135       -4.3501  -14.8172  -49.9976 H         1 UNK         0.0800 
    136 H136       -0.8825  -15.3723  -50.8260 H         1 UNK         0.1150 
    137 H137       -0.9260  -19.5347  -49.8167 H         1 UNK         0.1150 
    138 H138       -4.1958  -17.0139  -48.6571 H         1 UNK         0.1150 
    139 H139       -4.4195  -19.5029  -48.8032 H         1 UNK         0.0800 
    140 H140       -3.0330  -20.5199  -49.0716 H         1 UNK         0.0800 
    141 H141       -1.1028  -20.1251  -45.6178 H         1 UNK         0.0800 
    142 H142       -0.8299  -19.8813  -47.3135 H         1 UNK         0.0800 
    143 H143       -1.8155  -22.1802  -47.7683 H         1 UNK         0.0600 
    144 H144        0.7330  -21.7064  -46.5590 H         1 UNK         0.3000 
    145 H145        2.1310  -24.9140  -47.2701 H         1 UNK         0.0600 
    146 H146        3.7394  -23.4459  -48.4505 H         1 UNK         0.0600 
    147 H147        2.2480  -23.5570  -49.3715 H         1 UNK         0.0600 
    148 H148        2.5887  -22.1096  -48.4312 H         1 UNK         0.0600 
    149 H149        3.2236  -22.5651  -46.0698 H         1 UNK         0.3000 
    150 H150        2.3058  -23.2612  -42.7018 H         1 UNK         0.0600 
    151 H151        4.2790  -24.7428  -43.1154 H         1 UNK         0.0600 
    152 H152        4.7578  -23.2253  -42.3733 H         1 UNK         0.0600 
    153 H153        5.0266  -23.4884  -44.0969 H         1 UNK         0.0600 
    154 H154        3.9741  -21.2452  -43.6910 H         1 UNK         0.3000 
    155 H155        3.2779  -19.1148  -43.5546 H         1 UNK         0.0600 
    156 H156        1.7007  -19.2080  -46.1862 H         1 UNK         0.0600 
    157 H157        3.4127  -19.5612  -45.9963 H         1 UNK         0.0600 
    158 H158        2.8229  -17.9300  -45.7206 H         1 UNK         0.0600 
    159 H159        0.8594  -17.8310  -44.2243 H         1 UNK         0.3000 
    160 H160       -0.9330  -17.9187  -41.3566 H         1 UNK         0.0600 
    161 H161        1.2021  -15.7224  -41.4504 H         1 UNK         0.0600 
    162 H162        0.8216  -16.7292  -40.0588 H         1 UNK         0.0600 
    163 H163       -0.3681  -15.5857  -40.6606 H         1 UNK         0.0600 
    164 H164       -0.5133  -15.7446  -43.2086 H         1 UNK         0.3000 
    165 H165       -2.4932  -17.0683  -45.8405 H         1 UNK         0.0600 
    166 H166       -3.7259  -14.9450  -45.4921 H         1 UNK         0.0600 
    167 H167       -4.1719  -16.1163  -44.2646 H         1 UNK         0.0600 
    168 H168       -3.0762  -14.8015  -43.8599 H         1 UNK         0.0600 
    169 H169       -1.0663  -14.5974  -45.2746 H         1 UNK         0.3000 
    170 H170        1.9500  -15.5949  -46.8885 H         1 UNK         0.0600 
    171 H171        0.5299  -14.9407  -48.8111 H         1 UNK         0.0600 
    172 H172       -0.2051  -13.6500  -47.8653 H         1 UNK         0.0600 
    173 H173        1.5075  -13.5875  -48.2758 H         1 UNK         0.0600 
    174 H174        0.9803  -13.1190  -45.7593 H         1 UNK         0.3000 
    175 H175        2.1298  -13.6991  -42.4657 H         1 UNK         0.0600 
    176 H176        3.3387  -11.9040  -44.6363 H         1 UNK         0.0600 
    177 H177        3.5000  -11.6843  -42.8945 H         1 UNK         0.0600 
    178 H178        4.2327  -13.0772  -43.6751 H         1 UNK         0.0600 
    179 H179        1.1139  -11.3371  -43.6337 H         1 UNK         0.3000 
    180 H180       -2.3600  -12.0007  -43.1429 H         1 UNK         0.0600 
    181 H181       -2.0729   -9.9624  -41.7709 H         1 UNK         0.0600 
    182 H182       -0.3248  -10.1868  -41.7478 H         1 UNK         0.0600 
    183 H183       -1.3745  -11.3572  -40.9634 H         1 UNK         0.0600 
    184 H184       -2.2175  -10.6851  -44.8843 H         1 UNK         0.3000 
    185 H185       -1.6310   -8.3283  -45.7389 H         1 UNK         0.0600 
    186 H186        0.0587   -7.4386  -47.3180 H         1 UNK         0.0600 
    187 H187        0.6638   -7.3796  -45.6716 H         1 UNK         0.0600 
    188 H188        1.2350   -8.6320  -46.7696 H         1 UNK         0.0600 
    189 H189       -0.5859   -9.7856  -47.9564 H         1 UNK         0.3000 
    190 H190       -0.5936  -22.5074  -44.4280 H         1 UNK         0.3000 
    191 H191       -3.0018  -23.4092  -43.2412 H         1 UNK         0.0600 
    192 H192       -1.5025  -24.2003  -41.4164 H         1 UNK         0.0600 
    193 H193       -1.0557  -22.5841  -41.9445 H         1 UNK         0.0600 
    194 H194       -0.0959  -23.9725  -42.4474 H         1 UNK         0.0600 
    195 H195       -0.2379  -25.3266  -44.5721 H         1 UNK         0.3000 
    196 H196       -1.3277  -27.8703  -44.0033 H         1 UNK         0.0600 
    197 H197        0.7582  -27.0273  -46.0824 H         1 UNK         0.0600 
    198 H198        1.0776  -27.4940  -44.4122 H         1 UNK         0.0600 
    199 H199        0.4663  -28.6809  -45.5534 H         1 UNK         0.0600 
    200 H200       -1.5789  -25.8586  -46.9614 H         1 UNK         0.3000 
    201 H201       -2.9888  -27.8816  -48.4882 H         1 UNK         0.0600 
    202 H202       -2.6383  -24.8827  -48.9782 H         1 UNK         0.0600 
    203 H203       -3.1333  -26.0793  -50.1718 H         1 UNK         0.0600 
    204 H204       -1.5115  -26.1330  -49.5099 H         1 UNK         0.0600 
    205 H205       -4.0314  -25.8843  -45.9640 H         1 UNK         0.3000 
    206 H206       -5.9441  -25.1282  -45.1461 H         1 UNK         0.0600 
    207 H207       -6.6883  -27.5055  -45.3265 H         1 UNK         0.0600 
    208 H208       -8.0323  -26.3918  -45.5243 H         1 UNK         0.0600 
    209 H209       -7.3472  -27.1915  -46.9311 H         1 UNK         0.0600 
    210 H210       -4.8727  -23.4841  -46.7778 H         1 UNK         0.3000 
    211 H211       -5.0876  -21.5974  -47.7776 H         1 UNK         0.0600 
    212 H212       -7.2080  -20.4229  -48.1065 H         1 UNK         0.0600 
    213 H213       -7.2281  -21.2375  -46.5518 H         1 UNK         0.0600 
    214 H214       -8.1229  -21.9088  -47.9171 H         1 UNK         0.0600 
    215 H215       -5.8459  -24.4275  -49.4105 H         1 UNK         0.3000 
    216 H216       -6.5546  -23.4266  -51.9708 H         1 UNK         0.0600 
    217 H217       -5.2075  -26.0829  -51.2668 H         1 UNK         0.0600 
    218 H218       -6.0919  -25.7182  -52.7391 H         1 UNK         0.0600 
    219 H219       -6.9415  -25.7747  -51.2026 H         1 UNK         0.0600 
    220 H220       -3.4767  -23.3794  -50.4221 H         1 UNK         0.3000 
    221 H221       -1.7267  -23.5496  -52.6573 H         1 UNK         0.0600 
    222 H222       -0.9376  -23.7911  -50.3119 H         1 UNK         0.0600 
    223 H223       -1.3434  -22.1039  -49.9840 H         1 UNK         0.0600 
    224 H224       -0.0663  -22.5041  -51.1180 H         1 UNK         0.0600 
    225 H225       -3.8328  -20.9683  -51.6637 H         1 UNK         0.3000 
    226 H226       -2.5169  -18.6581  -52.5116 H         1 UNK         0.0600 
    227 H227       -5.5152  -19.3079  -52.5657 H         1 UNK         0.0600 
    228 H228       -4.6281  -18.7298  -51.1622 H         1 UNK         0.0600 
    229 H229       -4.8120  -17.6930  -52.5646 H         1 UNK         0.0600 
    230 H230       -3.8392  -21.1682  -54.4990 H         1 UNK         0.3000 
    231 H231       -4.3083  -19.6766  -56.9096 H         1 UNK         0.0600 
    232 H232       -3.8321  -22.6658  -56.4160 H         1 UNK         0.0600 
    233 H233       -4.4570  -21.9662  -57.9055 H         1 UNK         0.0600 
    234 H234       -5.3982  -21.8561  -56.4268 H         1 UNK         0.0600 
    235 H235       -1.3292  -20.6982  -55.4008 H         1 UNK         0.3000 
    236 H236        0.1834  -19.9850  -57.8405 H         1 UNK         0.0600 
    237 H237       -0.1561  -22.4170  -58.1265 H         1 UNK         0.0600 
    238 H238        1.5252  -22.0987  -57.7332 H         1 UNK         0.0600 
    239 H239        0.4399  -22.7275  -56.4970 H         1 UNK         0.0600 
    240 H240        0.2535  -20.7980  -54.3507 H         1 UNK         0.3000 
    241 H241        1.5909  -20.3322  -52.7067 H         1 UNK         0.0600 
    242 H242        4.5493  -21.9954  -54.4869 H         1 UNK         0.3800 
    243 H243        2.8643  -22.0204  -54.9372 H         1 UNK         0.3800 
    244 H244        2.3326  -17.8185  -54.2752 H         1 UNK         0.0800 
    245 H245        2.7356  -18.0721  -52.6017 H         1 UNK         0.0800 
    246 H246        1.0698  -18.5596  -50.7205 H         1 UNK         0.0800 
    247 H247        1.2507  -16.8222  -50.8151 H         1 UNK         0.0800 
@<TRIPOS>BOND
     1    1    2 1    
     2    1  127 1    
     3    1  128 1    
     4    1  129 1    
     5    2    3 2    
     6    2    4 am   BACKBONE|DICT|INTERRES
     7    4    5 1    
     8    4  130 1    
     9    5    6 1    
    10    5   65 1    
    11    5  131 1    
    12    6    7 1    
    13    6  132 1    
    14    6  133 1    
    15    7    8 1    
    16    8    9 1    
    17    8  134 1    
    18    8  135 1    
    19    9   10 ar   
    20    9   14 ar   
    21   10   11 ar   
    22   10  136 1    
    23   11   12 ar   
    24   11  126 1    
    25   12   13 ar   
    26   12  137 1    
    27   13   14 ar   
    28   13   15 1    
    29   14  138 1    
    30   15   16 1    
    31   15  139 1    
    32   15  140 1    
    33   16   17 1    
    34   17   18 1    
    35   17  141 1    
    36   17  142 1    
    37   18   19 1    
    38   18   67 1    
    39   18  143 1    
    40   19   20 am   BACKBONE|DICT|INTERRES
    41   19  144 1    
    42   20   21 2    
    43   20   22 1    
    44   22   23 1    
    45   22   24 1    
    46   22  145 1    
    47   23  146 1    
    48   23  147 1    
    49   23  148 1    
    50   24   25 am   BACKBONE|DICT|INTERRES
    51   24  149 1    
    52   25   26 2    
    53   25   27 1    
    54   27   28 1    
    55   27   29 1    
    56   27  150 1    
    57   28  151 1    
    58   28  152 1    
    59   28  153 1    
    60   29   30 am   BACKBONE|DICT|INTERRES
    61   29  154 1    
    62   30   31 2    
    63   30   32 1    
    64   32   33 1    
    65   32   34 1    
    66   32  155 1    
    67   33  156 1    
    68   33  157 1    
    69   33  158 1    
    70   34   35 am   BACKBONE|DICT|INTERRES
    71   34  159 1    
    72   35   36 2    
    73   35   37 1    
    74   37   38 1    
    75   37   39 1    
    76   37  160 1    
    77   38  161 1    
    78   38  162 1    
    79   38  163 1    
    80   39   40 am   BACKBONE|DICT|INTERRES
    81   39  164 1    
    82   40   41 2    
    83   40   42 1    
    84   42   43 1    
    85   42   44 1    
    86   42  165 1    
    87   43  166 1    
    88   43  167 1    
    89   43  168 1    
    90   44   45 am   BACKBONE|DICT|INTERRES
    91   44  169 1    
    92   45   46 2    
    93   45   47 1    
    94   47   48 1    
    95   47   49 1    
    96   47  170 1    
    97   48  171 1    
    98   48  172 1    
    99   48  173 1    
   100   49   50 am   BACKBONE|DICT|INTERRES
   101   49  174 1    
   102   50   51 2    
   103   50   52 1    
   104   52   53 1    
   105   52   54 1    
   106   52  175 1    
   107   53  176 1    
   108   53  177 1    
   109   53  178 1    
   110   54   55 am   BACKBONE|DICT|INTERRES
   111   54  179 1    
   112   55   56 2    
   113   55   57 1    
   114   57   58 1    
   115   57   59 1    
   116   57  180 1    
   117   58  181 1    
   118   58  182 1    
   119   58  183 1    
   120   59   60 am   BACKBONE|DICT|INTERRES
   121   59  184 1    
   122   60   61 2    
   123   60   62 1    
   124   62   63 1    
   125   62   64 1    
   126   62  185 1    
   127   63  186 1    
   128   63  187 1    
   129   63  188 1    
   130   64   65 am   BACKBONE|DICT|INTERRES
   131   64  189 1    
   132   65   66 2    
   133   67   68 2    
   134   67   69 am   BACKBONE|DICT|INTERRES
   135   69   70 1    
   136   69  190 1    
   137   70   71 1    
   138   70   72 1    
   139   70  191 1    
   140   71  192 1    
   141   71  193 1    
   142   71  194 1    
   143   72   73 2    
   144   72   74 am   BACKBONE|DICT|INTERRES
   145   74   75 1    
   146   74  195 1    
   147   75   76 1    
   148   75   77 1    
   149   75  196 1    
   150   76  197 1    
   151   76  198 1    
   152   76  199 1    
   153   77   78 2    
   154   77   79 am   BACKBONE|DICT|INTERRES
   155   79   80 1    
   156   79  200 1    
   157   80   81 1    
   158   80   82 1    
   159   80  201 1    
   160   81  202 1    
   161   81  203 1    
   162   81  204 1    
   163   82   83 2    
   164   82   84 am   BACKBONE|DICT|INTERRES
   165   84   85 1    
   166   84  205 1    
   167   85   86 1    
   168   85   87 1    
   169   85  206 1    
   170   86  207 1    
   171   86  208 1    
   172   86  209 1    
   173   87   88 2    
   174   87   89 am   BACKBONE|DICT|INTERRES
   175   89   90 1    
   176   89  210 1    
   177   90   91 1    
   178   90   92 1    
   179   90  211 1    
   180   91  212 1    
   181   91  213 1    
   182   91  214 1    
   183   92   93 2    
   184   92   94 am   BACKBONE|DICT|INTERRES
   185   94   95 1    
   186   94  215 1    
   187   95   96 1    
   188   95   97 1    
   189   95  216 1    
   190   96  217 1    
   191   96  218 1    
   192   96  219 1    
   193   97   98 2    
   194   97   99 am   BACKBONE|DICT|INTERRES
   195   99  100 1    
   196   99  220 1    
   197  100  101 1    
   198  100  102 1    
   199  100  221 1    
   200  101  222 1    
   201  101  223 1    
   202  101  224 1    
   203  102  103 2    
   204  102  104 am   BACKBONE|DICT|INTERRES
   205  104  105 1    
   206  104  225 1    
   207  105  106 1    
   208  105  107 1    
   209  105  226 1    
   210  106  227 1    
   211  106  228 1    
   212  106  229 1    
   213  107  108 2    
   214  107  109 am   BACKBONE|DICT|INTERRES
   215  109  110 1    
   216  109  230 1    
   217  110  111 1    
   218  110  112 1    
   219  110  231 1    
   220  111  232 1    
   221  111  233 1    
   222  111  234 1    
   223  112  113 2    
   224  112  114 am   BACKBONE|DICT|INTERRES
   225  114  115 1    
   226  114  235 1    
   227  115  116 1    
   228  115  117 1    
   229  115  236 1    
   230  116  237 1    
   231  116  238 1    
   232  116  239 1    
   233  117  118 2    
   234  117  119 am   BACKBONE|DICT|INTERRES
   235  119  120 1    
   236  119  240 1    
   237  120  121 1    
   238  120  124 1    
   239  120  241 1    
   240  121  122 am   BACKBONE|DICT|INTERRES
   241  121  123 2    
   242  122  242 1    
   243  122  243 1    
   244  124  125 1    
   245  124  244 1    
   246  124  245 1    
   247  125  126 1    
   248  126  246 1    
   249  126  247 1    
@<TRIPOS>SUBSTRUCTURE
     1 UNK         1 GROUP             0       ****    0 ROOT    
