@<TRIPOS>MOLECULE
3R540
247   249    1
SMALL
USER_CHARGES


@<TRIPOS>ATOM
      1 CA          6.7448  -15.1912  -46.4671 C.3       0 UNK        -0.1800 
      2 C           5.4764  -15.7692  -47.0790 C.2       0 UNK         0.5000 
      3 O           4.8884  -16.6854  -46.5080 O.2       0 UNK        -0.5000 
      4 N           5.0630  -15.2410  -48.2372 N.am      1 UNK        -0.5000 
      5 CA          3.8380  -15.6193  -48.9540 C.3       1 UNK         0.1400 
      6 C6          3.8931  -15.1956  -50.4446 C.3       23 UNK        -0.0398 
      7 S7          5.3424  -15.8920  -51.3150 S.3       23 UNK        -0.2404 
      8 C8          4.5772  -16.9002  -52.6345 C.3       23 UNK        -0.0205 
      9 C9          3.9858  -18.2511  -52.2199 C.ar      23 UNK        -0.0193 
     10 C10         3.2505  -18.9614  -53.1750 C.ar      23 UNK        -0.1150 
     11 C11         2.7157  -20.2196  -52.8849 C.ar      23 UNK        -0.0193 
     12 C12         2.8943  -20.7598  -51.6099 C.ar      23 UNK        -0.1150 
     13 C13         3.6160  -20.0656  -50.6363 C.ar      23 UNK        -0.0193 
     14 C14         4.1792  -18.8241  -50.9546 C.ar      23 UNK        -0.1150 
     15 C15         3.8022  -20.6881  -49.2567 C.3       23 UNK        -0.0205 
     16 S16         3.4028  -19.5711  -47.8708 S.3       23 UNK        -0.2404 
     17 C17         1.7284  -18.9750  -48.2840 C.3       23 UNK        -0.0398 
     18 CA          0.6058  -20.0079  -48.0401 C.3       11 UNK         0.1400 
     19 N           0.6284  -20.5606  -46.6853 N.am      11 UNK        -0.5000 
     20 C          -0.0169  -21.6707  -46.3079 C.2       10 UNK         0.5000 
     21 O          -0.6724  -22.3724  -47.0777 O.2       10 UNK        -0.5000 
     22 CA          0.0425  -22.0211  -44.8095 C.3       10 UNK         0.1400 
     23 CB          1.3372  -22.7782  -44.4800 C.3       10 UNK        -0.1800 
     24 N          -0.0548  -20.8310  -43.9617 N.am      10 UNK        -0.5000 
     25 C          -1.1549  -20.0711  -43.8554 C.2       9 UNK         0.5000 
     26 O          -2.2211  -20.3422  -44.4058 O.2       9 UNK        -0.5000 
     27 CA         -1.0332  -18.7637  -43.0499 C.3       9 UNK         0.1400 
     28 CB         -1.3954  -18.9997  -41.5768 C.3       9 UNK        -0.1800 
     29 N           0.2939  -18.1564  -43.1291 N.am      9 UNK        -0.5000 
     30 C           0.8995  -17.7449  -44.2498 C.2       8 UNK         0.5000 
     31 O           0.3806  -17.8066  -45.3638 O.2       8 UNK        -0.5000 
     32 CA          2.3320  -17.2009  -44.1175 C.3       8 UNK         0.1400 
     33 CB          2.3269  -15.6696  -44.1267 C.3       8 UNK        -0.1800 
     34 N           3.0224  -17.6624  -42.9136 N.am      8 UNK        -0.5000 
     35 C           3.4791  -18.9058  -42.7173 C.2       7 UNK         0.5000 
     36 O           3.3272  -19.8273  -43.5196 O.2       7 UNK        -0.5000 
     37 CA          4.2129  -19.1567  -41.3871 C.3       7 UNK         0.1400 
     38 CB          5.6837  -18.7245  -41.4923 C.3       7 UNK        -0.1800 
     39 N           3.5806  -18.4532  -40.2685 N.am      7 UNK        -0.5000 
     40 C           2.4551  -18.8661  -39.6705 C.2       6 UNK         0.5000 
     41 O           1.8711  -19.9105  -39.9607 O.2       6 UNK        -0.5000 
     42 CA          1.8673  -17.9479  -38.5801 C.3       6 UNK         0.1400 
     43 CB          2.5305  -18.2309  -37.2234 C.3       6 UNK        -0.1800 
     44 N           1.9497  -16.5099  -38.8687 N.am      6 UNK        -0.5000 
     45 C           1.4242  -15.9128  -39.9468 C.2       5 UNK         0.5000 
     46 O           0.9439  -16.5296  -40.8966 O.2       5 UNK        -0.5000 
     47 CA          1.4631  -14.3721  -39.9827 C.3       5 UNK         0.1400 
     48 CB          2.8034  -13.8782  -40.5494 C.3       5 UNK        -0.1800 
     49 N           0.3691  -13.8079  -40.7810 N.am      5 UNK        -0.5000 
     50 C          -0.9337  -13.9156  -40.4788 C.2       4 UNK         0.5000 
     51 O          -1.3468  -14.4426  -39.4441 O.2       4 UNK        -0.5000 
     52 CA         -1.9580  -13.3164  -41.4668 C.3       4 UNK         0.1400 
     53 CB         -2.6384  -12.0828  -40.8504 C.3       4 UNK        -0.1800 
     54 N          -1.4045  -12.9360  -42.7702 N.am      4 UNK        -0.5000 
     55 C          -1.1117  -13.7903  -43.7582 C.2       3 UNK         0.5000 
     56 O          -1.2242  -15.0147  -43.6613 O.2       3 UNK        -0.5000 
     57 CA         -0.6149  -13.1664  -45.0742 C.3       3 UNK         0.1400 
     58 CB          0.6775  -12.3490  -44.8645 C.3       3 UNK        -0.1800 
     59 N          -0.3907  -14.2371  -46.0400 N.am      3 UNK        -0.5000 
     60 C          -0.2333  -14.1023  -47.3607 C.2       2 UNK         0.5000 
     61 O          -0.3046  -13.0287  -47.9628 O.2       2 UNK        -0.5000 
     62 CA          0.0502  -15.4041  -48.1388 C.3       2 UNK         0.1400 
     63 CB         -0.9660  -15.5870  -49.2788 C.3       2 UNK        -0.1800 
     64 N           1.4035  -15.5529  -48.6964 N.am      2 UNK        -0.5000 
     65 C           2.5751  -15.0709  -48.2468 C.2       1 UNK         0.5000 
     66 O           2.6948  -14.2514  -47.3339 O.2       1 UNK        -0.5000 
     67 C          -0.7703  -19.3931  -48.3698 C.2       11 UNK         0.5000 
     68 O          -1.2097  -19.4809  -49.5137 O.2       11 UNK        -0.5000 
     69 N          -1.4322  -18.7985  -47.3653 N.am      12 UNK        -0.5000 
     70 CA         -2.7915  -18.2647  -47.4629 C.3       12 UNK         0.1400 
     71 CB         -3.0935  -17.3738  -46.2496 C.3       12 UNK        -0.1800 
     72 C          -3.8455  -19.3749  -47.6162 C.2       12 UNK         0.5000 
     73 O          -4.7623  -19.2265  -48.4215 O.2       12 UNK        -0.5000 
     74 N          -3.6718  -20.4954  -46.9001 N.am      13 UNK        -0.5000 
     75 CA         -4.4673  -21.7159  -47.0675 C.3       13 UNK         0.1400 
     76 CB         -4.0658  -22.7422  -45.9977 C.3       13 UNK        -0.1800 
     77 C          -4.3324  -22.3063  -48.4859 C.2       13 UNK         0.5000 
     78 O          -5.3308  -22.7264  -49.0749 O.2       13 UNK        -0.5000 
     79 N          -3.1055  -22.2561  -49.0219 N.am      14 UNK        -0.5000 
     80 CA         -2.7548  -22.6363  -50.3887 C.3       14 UNK         0.1400 
     81 CB         -1.2408  -22.8860  -50.4631 C.3       14 UNK        -0.1800 
     82 C          -3.2003  -21.6184  -51.4636 C.2       14 UNK         0.5000 
     83 O          -3.0634  -21.9038  -52.6525 O.2       14 UNK        -0.5000 
     84 N          -3.7418  -20.4546  -51.0780 N.am      15 UNK        -0.5000 
     85 CA         -4.2430  -19.4308  -51.9991 C.3       15 UNK         0.1400 
     86 CB         -4.0140  -18.0316  -51.4004 C.3       15 UNK        -0.1800 
     87 C          -5.7096  -19.6900  -52.4020 C.2       15 UNK         0.5000 
     88 O          -6.5089  -18.7544  -52.4429 O.2       15 UNK        -0.5000 
     89 N          -6.0411  -20.9632  -52.6695 N.am      16 UNK        -0.5000 
     90 CA         -7.3602  -21.5056  -53.0205 C.3       16 UNK         0.1400 
     91 CB         -7.8968  -20.8787  -54.3247 C.3       16 UNK        -0.1800 
     92 C          -8.3963  -21.4494  -51.8773 C.2       16 UNK         0.5000 
     93 O          -9.5678  -21.7503  -52.1126 O.2       16 UNK        -0.5000 
     94 N          -7.9660  -21.0798  -50.6630 N.am      17 UNK        -0.5000 
     95 CA         -8.8180  -20.9758  -49.4802 C.3       17 UNK         0.1400 
     96 CB         -8.1366  -20.0794  -48.4372 C.3       17 UNK        -0.1800 
     97 C          -9.1523  -22.3563  -48.8923 C.2       17 UNK         0.5000 
     98 O         -10.3065  -22.5983  -48.5365 O.2       17 UNK        -0.5000 
     99 N          -8.1439  -23.2337  -48.8213 N.am      18 UNK        -0.5000 
    100 CA        -8.2703  -24.6181  -48.3690 C.3       18 UNK         0.1400 
    101 CB        -7.4473  -24.8078  -47.0857 C.3       18 UNK        -0.1800 
    102 C         -7.8054  -25.6061  -49.4504 C.2       18 UNK         0.5000 
    103 O         -8.3777  -26.6921  -49.5533 O.2       18 UNK        -0.5000 
    104 N         -6.7887  -25.2300  -50.2362 N.am      19 UNK        -0.5000 
    105 CA        -6.1860  -26.0528  -51.2815 C.3       19 UNK         0.1400 
    106 CB        -5.2316  -27.0798  -50.6383 C.3       19 UNK        -0.1800 
    107 C         -5.4377  -25.1550  -52.2778 C.2       19 UNK         0.5000 
    108 O         -5.3155  -23.9529  -52.0376 O.2       19 UNK        -0.5000 
    109 N         -4.9321  -25.7718  -53.3557 N.am      20 UNK        -0.5000 
    110 CA        -4.0557  -25.2002  -54.3861 C.3       20 UNK         0.1400 
    111 CB        -2.6213  -25.0532  -53.8330 C.3       20 UNK        -0.1800 
    112 C         -4.6216  -23.9321  -55.0690 C.2       20 UNK         0.5000 
    113 O         -5.8410  -23.8262  -55.2224 O.2       20 UNK        -0.5000 
    114 N         -3.7431  -23.0282  -55.5229 N.am      21 UNK        -0.5000 
    115 CA        -4.0947  -21.8205  -56.2691 C.3       21 UNK         0.1400 
    116 CB        -4.5374  -22.1807  -57.7047 C.3       21 UNK        -0.1800 
    117 C         -2.9474  -20.7930  -56.2406 C.2       21 UNK         0.5000 
    118 O         -2.6077  -20.2225  -57.2785 O.2       21 UNK        -0.5000 
    119 N         -2.3660  -20.5605  -55.0569 N.am      22 UNK        -0.5000 
    120 CA        -1.3098  -19.5523  -54.8250 C.3       22 UNK         0.1400 
    121 C         -1.7767  -18.0642  -54.8942 C.2       22 UNK         0.5000 
    122 N         -3.0547  -17.7622  -55.0899 N.am      22 UNK        -0.7600 
    123 O         -0.9562  -17.1585  -54.7775 O.2       22 UNK        -0.5000 
    124 C124       -0.5268  -19.8161  -53.5122 C.3       23 UNK        -0.0398 
    125 S125        0.2815  -21.4500  -53.4957 S.3       23 UNK        -0.2404 
    126 C126        1.9865  -21.0140  -53.9620 C.3       23 UNK        -0.0205 
    127 H127        7.1654  -14.3946  -47.0813 H         1 UNK         0.0600 
    128 H128        7.4981  -15.9714  -46.3587 H         1 UNK         0.0600 
    129 H129        6.5305  -14.7826  -45.4795 H         1 UNK         0.0600 
    130 H130        5.5872  -14.4824  -48.6475 H         1 UNK         0.3000 
    131 H131        3.7613  -16.7064  -48.9171 H         1 UNK         0.0600 
    132 H132        2.9879  -15.5038  -50.9697 H         1 UNK         0.0800 
    133 H133        3.9363  -14.1084  -50.5302 H         1 UNK         0.0800 
    134 H134        5.3437  -17.0916  -53.3867 H         1 UNK         0.0800 
    135 H135        3.8101  -16.3037  -53.1308 H         1 UNK         0.0800 
    136 H136        3.1151  -18.5401  -54.1616 H         1 UNK         0.1150 
    137 H137        2.4771  -21.7312  -51.3834 H         1 UNK         0.1150 
    138 H138        4.7694  -18.3173  -50.2064 H         1 UNK         0.1150 
    139 H139        3.1933  -21.5877  -49.1544 H         1 UNK         0.0800 
    140 H140        4.8395  -21.0093  -49.1570 H         1 UNK         0.0800 
    141 H141        1.7132  -18.6310  -49.3190 H         1 UNK         0.0800 
    142 H142        1.5603  -18.0911  -47.6702 H         1 UNK         0.0800 
    143 H143        0.7640  -20.8337  -48.7367 H         1 UNK         0.0600 
    144 H144        1.1241  -20.0205  -45.9906 H         1 UNK         0.3000 
    145 H145       -0.8037  -22.6733  -44.5835 H         1 UNK         0.0600 
    146 H146        1.3631  -23.0779  -43.4322 H         1 UNK         0.0600 
    147 H147        1.4218  -23.6850  -45.0802 H         1 UNK         0.0600 
    148 H148        2.2214  -22.1704  -44.6768 H         1 UNK         0.0600 
    149 H149        0.7893  -20.5292  -43.4943 H         1 UNK         0.3000 
    150 H150       -1.7431  -18.0460  -43.4636 H         1 UNK         0.0600 
    151 H151       -2.3910  -19.4352  -41.4834 H         1 UNK         0.0600 
    152 H152       -1.3965  -18.0638  -41.0173 H         1 UNK         0.0600 
    153 H153       -0.6914  -19.6782  -41.0938 H         1 UNK         0.0600 
    154 H154        0.7402  -17.9303  -42.2458 H         1 UNK         0.3000 
    155 H155        2.8928  -17.5494  -44.9867 H         1 UNK         0.0600 
    156 H156        1.7198  -15.2650  -43.3168 H         1 UNK         0.0600 
    157 H157        1.9150  -15.2999  -45.0632 H         1 UNK         0.0600 
    158 H158        3.3354  -15.2653  -44.0389 H         1 UNK         0.0600 
    159 H159        3.1314  -16.9872  -42.1728 H         1 UNK         0.3000 
    160 H160        4.1903  -20.2306  -41.1890 H         1 UNK         0.0600 
    161 H161        5.7794  -17.6537  -41.6768 H         1 UNK         0.0600 
    162 H162        6.1846  -19.2442  -42.3101 H         1 UNK         0.0600 
    163 H163        6.2290  -18.9578  -40.5776 H         1 UNK         0.0600 
    164 H164        4.0041  -17.5894  -39.9630 H         1 UNK         0.3000 
    165 H165        0.8071  -18.1953  -38.4938 H         1 UNK         0.0600 
    166 H166        2.0409  -17.6783  -36.4213 H         1 UNK         0.0600 
    167 H167        2.4676  -19.2903  -36.9704 H         1 UNK         0.0600 
    168 H168        3.5860  -17.9562  -37.2259 H         1 UNK         0.0600 
    169 H169        2.3495  -15.9341  -38.1418 H         1 UNK         0.3000 
    170 H170        1.3585  -14.0015  -38.9609 H         1 UNK         0.0600 
    171 H171        3.6406  -14.2499  -39.9573 H         1 UNK         0.0600 
    172 H172        2.9577  -14.2083  -41.5763 H         1 UNK         0.0600 
    173 H173        2.8586  -12.7895  -40.5367 H         1 UNK         0.0600 
    174 H174        0.6189  -13.3785  -41.6579 H         1 UNK         0.3000 
    175 H175       -2.7245  -14.0773  -41.6292 H         1 UNK         0.0600 
    176 H176       -1.9241  -11.2791  -40.6677 H         1 UNK         0.0600 
    177 H177       -3.4212  -11.6960  -41.5032 H         1 UNK         0.0600 
    178 H178       -3.1074  -12.3278  -39.8965 H         1 UNK         0.0600 
    179 H179       -1.2807  -11.9461  -42.9269 H         1 UNK         0.3000 
    180 H180       -1.4028  -12.5132  -45.4541 H         1 UNK         0.0600 
    181 H181        1.4760  -12.9556  -44.4383 H         1 UNK         0.0600 
    182 H182        0.5119  -11.5063  -44.1931 H         1 UNK         0.0600 
    183 H183        1.0456  -11.9356  -45.8035 H         1 UNK         0.0600 
    184 H184       -0.3771  -15.1580  -45.6163 H         1 UNK         0.3000 
    185 H185       -0.0873  -16.2360  -47.4482 H         1 UNK         0.0600 
    186 H186       -0.8944  -16.5796  -49.7235 H         1 UNK         0.0600 
    187 H187       -1.9880  -15.4651  -48.9180 H         1 UNK         0.0600 
    188 H188       -0.8125  -14.8541  -50.0719 H         1 UNK         0.0600 
    189 H189        1.4445  -16.1674  -49.4946 H         1 UNK         0.3000 
    190 H190       -0.9598  -18.6968  -46.4724 H         1 UNK         0.3000 
    191 H191       -2.8432  -17.6434  -48.3582 H         1 UNK         0.0600 
    192 H192       -4.0514  -16.8672  -46.3718 H         1 UNK         0.0600 
    193 H193       -2.3327  -16.6047  -46.1176 H         1 UNK         0.0600 
    194 H194       -3.1492  -17.9526  -45.3288 H         1 UNK         0.0600 
    195 H195       -2.9458  -20.5166  -46.1896 H         1 UNK         0.3000 
    196 H196       -5.5149  -21.4598  -46.9063 H         1 UNK         0.0600 
    197 H197       -3.0214  -23.0380  -46.0901 H         1 UNK         0.0600 
    198 H198       -4.2104  -22.3407  -44.9946 H         1 UNK         0.0600 
    199 H199       -4.6676  -23.6471  -46.0734 H         1 UNK         0.0600 
    200 H200       -2.3439  -21.9232  -48.4431 H         1 UNK         0.3000 
    201 H201       -3.2500  -23.5829  -50.6046 H         1 UNK         0.0600 
    202 H202       -0.9145  -23.5884  -49.6960 H         1 UNK         0.0600 
    203 H203       -0.6728  -21.9646  -50.3406 H         1 UNK         0.0600 
    204 H204       -0.9645  -23.3112  -51.4281 H         1 UNK         0.0600 
    205 H205       -3.8506  -20.2629  -50.0903 H         1 UNK         0.3000 
    206 H206       -3.6634  -19.4686  -52.9190 H         1 UNK         0.0600 
    207 H207       -2.9834  -17.9066  -51.0674 H         1 UNK         0.0600 
    208 H208       -4.2086  -17.2579  -52.1438 H         1 UNK         0.0600 
    209 H209       -4.6705  -17.8366  -50.5536 H         1 UNK         0.0600 
    210 H210       -5.3152  -21.6673  -52.5801 H         1 UNK         0.3000 
    211 H211       -7.2037  -22.5657  -53.2181 H         1 UNK         0.0600 
    212 H212       -8.7944  -21.3962  -54.6649 H         1 UNK         0.0600 
    213 H213       -7.1654  -20.9499  -55.1285 H         1 UNK         0.0600 
    214 H214       -8.1581  -19.8283  -54.1970 H         1 UNK         0.0600 
    215 H215       -6.9866  -20.8655  -50.5455 H         1 UNK         0.3000 
    216 H216       -9.7568  -20.4980  -49.7688 H         1 UNK         0.0600 
    217 H217       -7.1760  -20.4861  -48.1269 H         1 UNK         0.0600 
    218 H218       -8.7551  -19.9755  -47.5449 H         1 UNK         0.0600 
    219 H219       -7.9607  -19.0784  -48.8317 H         1 UNK         0.0600 
    220 H220       -7.2134  -22.9374  -49.1018 H         1 UNK         0.3000 
    221 H221       -9.3119  -24.8546  -48.1423 H         1 UNK         0.0600 
    222 H222       -7.7548  -24.1066  -46.3098 H         1 UNK         0.0600 
    223 H223       -6.3834  -24.6618  -47.2708 H         1 UNK         0.0600 
    224 H224       -7.5748  -25.8147  -46.6865 H         1 UNK         0.0600 
    225 H225       -6.3557  -24.3188  -50.1252 H         1 UNK         0.3000 
    226 H226       -6.9740  -26.5736  -51.8294 H         1 UNK         0.0600 
    227 H227       -4.4267  -26.5863  -50.0920 H         1 UNK         0.0600 
    228 H228       -5.7576  -27.7306  -49.9397 H         1 UNK         0.0600 
    229 H229       -4.7727  -27.7247  -51.3882 H         1 UNK         0.0600 
    230 H230       -5.1379  -26.7533  -53.4740 H         1 UNK         0.3000 
    231 H231       -4.0126  -25.9468  -55.1801 H         1 UNK         0.0600 
    232 H232       -2.5782  -24.3535  -53.0017 H         1 UNK         0.0600 
    233 H233       -1.9177  -24.7168  -54.5946 H         1 UNK         0.0600 
    234 H234       -2.2505  -26.0105  -53.4668 H         1 UNK         0.0600 
    235 H235       -2.7594  -23.1588  -55.3307 H         1 UNK         0.3000 
    236 H236       -4.9341  -21.3412  -55.7633 H         1 UNK         0.0600 
    237 H237       -5.4065  -22.8380  -57.7064 H         1 UNK         0.0600 
    238 H238       -4.8169  -21.2887  -58.2667 H         1 UNK         0.0600 
    239 H239       -3.7390  -22.6809  -58.2538 H         1 UNK         0.0600 
    240 H240       -2.6609  -21.0910  -54.2382 H         1 UNK         0.3000 
    241 H241       -0.5938  -19.6551  -55.6425 H         1 UNK         0.0600 
    242 H242       -3.3257  -16.7929  -55.1430 H         1 UNK         0.3800 
    243 H243       -3.7371  -18.4821  -55.2531 H         1 UNK         0.3800 
    244 H244       -1.1911  -19.7536  -52.6498 H         1 UNK         0.0800 
    245 H245        0.2324  -19.0496  -53.3505 H         1 UNK         0.0800 
    246 H246        2.5415  -21.9338  -54.1509 H         1 UNK         0.0800 
    247 H247        1.9680  -20.4691  -54.9071 H         1 UNK         0.0800 
@<TRIPOS>BOND
     1    1    2 1    
     2    1  127 1    
     3    1  128 1    
     4    1  129 1    
     5    2    3 2    
     6    2    4 am   BACKBONE|DICT|INTERRES
     7    4    5 1    
     8    4  130 1    
     9    5    6 1    
    10    5   65 1    
    11    5  131 1    
    12    6    7 1    
    13    6  132 1    
    14    6  133 1    
    15    7    8 1    
    16    8    9 1    
    17    8  134 1    
    18    8  135 1    
    19    9   10 ar   
    20    9   14 ar   
    21   10   11 ar   
    22   10  136 1    
    23   11   12 ar   
    24   11  126 1    
    25   12   13 ar   
    26   12  137 1    
    27   13   14 ar   
    28   13   15 1    
    29   14  138 1    
    30   15   16 1    
    31   15  139 1    
    32   15  140 1    
    33   16   17 1    
    34   17   18 1    
    35   17  141 1    
    36   17  142 1    
    37   18   19 1    
    38   18   67 1    
    39   18  143 1    
    40   19   20 am   BACKBONE|DICT|INTERRES
    41   19  144 1    
    42   20   21 2    
    43   20   22 1    
    44   22   23 1    
    45   22   24 1    
    46   22  145 1    
    47   23  146 1    
    48   23  147 1    
    49   23  148 1    
    50   24   25 am   BACKBONE|DICT|INTERRES
    51   24  149 1    
    52   25   26 2    
    53   25   27 1    
    54   27   28 1    
    55   27   29 1    
    56   27  150 1    
    57   28  151 1    
    58   28  152 1    
    59   28  153 1    
    60   29   30 am   BACKBONE|DICT|INTERRES
    61   29  154 1    
    62   30   31 2    
    63   30   32 1    
    64   32   33 1    
    65   32   34 1    
    66   32  155 1    
    67   33  156 1    
    68   33  157 1    
    69   33  158 1    
    70   34   35 am   BACKBONE|DICT|INTERRES
    71   34  159 1    
    72   35   36 2    
    73   35   37 1    
    74   37   38 1    
    75   37   39 1    
    76   37  160 1    
    77   38  161 1    
    78   38  162 1    
    79   38  163 1    
    80   39   40 am   BACKBONE|DICT|INTERRES
    81   39  164 1    
    82   40   41 2    
    83   40   42 1    
    84   42   43 1    
    85   42   44 1    
    86   42  165 1    
    87   43  166 1    
    88   43  167 1    
    89   43  168 1    
    90   44   45 am   BACKBONE|DICT|INTERRES
    91   44  169 1    
    92   45   46 2    
    93   45   47 1    
    94   47   48 1    
    95   47   49 1    
    96   47  170 1    
    97   48  171 1    
    98   48  172 1    
    99   48  173 1    
   100   49   50 am   BACKBONE|DICT|INTERRES
   101   49  174 1    
   102   50   51 2    
   103   50   52 1    
   104   52   53 1    
   105   52   54 1    
   106   52  175 1    
   107   53  176 1    
   108   53  177 1    
   109   53  178 1    
   110   54   55 am   BACKBONE|DICT|INTERRES
   111   54  179 1    
   112   55   56 2    
   113   55   57 1    
   114   57   58 1    
   115   57   59 1    
   116   57  180 1    
   117   58  181 1    
   118   58  182 1    
   119   58  183 1    
   120   59   60 am   BACKBONE|DICT|INTERRES
   121   59  184 1    
   122   60   61 2    
   123   60   62 1    
   124   62   63 1    
   125   62   64 1    
   126   62  185 1    
   127   63  186 1    
   128   63  187 1    
   129   63  188 1    
   130   64   65 am   BACKBONE|DICT|INTERRES
   131   64  189 1    
   132   65   66 2    
   133   67   68 2    
   134   67   69 am   BACKBONE|DICT|INTERRES
   135   69   70 1    
   136   69  190 1    
   137   70   71 1    
   138   70   72 1    
   139   70  191 1    
   140   71  192 1    
   141   71  193 1    
   142   71  194 1    
   143   72   73 2    
   144   72   74 am   BACKBONE|DICT|INTERRES
   145   74   75 1    
   146   74  195 1    
   147   75   76 1    
   148   75   77 1    
   149   75  196 1    
   150   76  197 1    
   151   76  198 1    
   152   76  199 1    
   153   77   78 2    
   154   77   79 am   BACKBONE|DICT|INTERRES
   155   79   80 1    
   156   79  200 1    
   157   80   81 1    
   158   80   82 1    
   159   80  201 1    
   160   81  202 1    
   161   81  203 1    
   162   81  204 1    
   163   82   83 2    
   164   82   84 am   BACKBONE|DICT|INTERRES
   165   84   85 1    
   166   84  205 1    
   167   85   86 1    
   168   85   87 1    
   169   85  206 1    
   170   86  207 1    
   171   86  208 1    
   172   86  209 1    
   173   87   88 2    
   174   87   89 am   BACKBONE|DICT|INTERRES
   175   89   90 1    
   176   89  210 1    
   177   90   91 1    
   178   90   92 1    
   179   90  211 1    
   180   91  212 1    
   181   91  213 1    
   182   91  214 1    
   183   92   93 2    
   184   92   94 am   BACKBONE|DICT|INTERRES
   185   94   95 1    
   186   94  215 1    
   187   95   96 1    
   188   95   97 1    
   189   95  216 1    
   190   96  217 1    
   191   96  218 1    
   192   96  219 1    
   193   97   98 2    
   194   97   99 am   BACKBONE|DICT|INTERRES
   195   99  100 1    
   196   99  220 1    
   197  100  101 1    
   198  100  102 1    
   199  100  221 1    
   200  101  222 1    
   201  101  223 1    
   202  101  224 1    
   203  102  103 2    
   204  102  104 am   BACKBONE|DICT|INTERRES
   205  104  105 1    
   206  104  225 1    
   207  105  106 1    
   208  105  107 1    
   209  105  226 1    
   210  106  227 1    
   211  106  228 1    
   212  106  229 1    
   213  107  108 2    
   214  107  109 am   BACKBONE|DICT|INTERRES
   215  109  110 1    
   216  109  230 1    
   217  110  111 1    
   218  110  112 1    
   219  110  231 1    
   220  111  232 1    
   221  111  233 1    
   222  111  234 1    
   223  112  113 2    
   224  112  114 am   BACKBONE|DICT|INTERRES
   225  114  115 1    
   226  114  235 1    
   227  115  116 1    
   228  115  117 1    
   229  115  236 1    
   230  116  237 1    
   231  116  238 1    
   232  116  239 1    
   233  117  118 2    
   234  117  119 am   BACKBONE|DICT|INTERRES
   235  119  120 1    
   236  119  240 1    
   237  120  121 1    
   238  120  124 1    
   239  120  241 1    
   240  121  122 am   BACKBONE|DICT|INTERRES
   241  121  123 2    
   242  122  242 1    
   243  122  243 1    
   244  124  125 1    
   245  124  244 1    
   246  124  245 1    
   247  125  126 1    
   248  126  246 1    
   249  126  247 1    
@<TRIPOS>SUBSTRUCTURE
     1 UNK         1 GROUP             0       ****    0 ROOT    
