@<TRIPOS>MOLECULE
3R540
247   249    1
SMALL
USER_CHARGES


@<TRIPOS>ATOM
      1 CA         -4.4230  -16.3694  -47.6894 C.3       0 UNK        -0.1800 
      2 C          -3.4650  -15.2146  -47.4349 C.2       0 UNK         0.5000 
      3 O          -3.8987  -14.0635  -47.3822 O.2       0 UNK        -0.5000 
      4 N          -2.1708  -15.5085  -47.2509 N.am      1 UNK        -0.5000 
      5 CA         -1.0925  -14.5497  -46.9626 C.3       1 UNK         0.1400 
      6 C6          0.3031  -15.1246  -47.3243 C.3       23 UNK        -0.0398 
      7 S7          0.4803  -15.4819  -49.1025 S.3       23 UNK        -0.2404 
      8 C8          2.1494  -16.2234  -49.1582 C.3       23 UNK        -0.0205 
      9 C9          2.1626  -17.6719  -49.6420 C.ar      23 UNK        -0.0193 
     10 C10         1.5140  -18.0274  -50.8289 C.ar      23 UNK        -0.1150 
     11 C11         1.5788  -19.3346  -51.3182 C.ar      23 UNK        -0.0193 
     12 C12         2.3204  -20.2927  -50.6194 C.ar      23 UNK        -0.1150 
     13 C13         2.9951  -19.9511  -49.4420 C.ar      23 UNK        -0.0193 
     14 C14         2.8944  -18.6441  -48.9492 C.ar      23 UNK        -0.1150 
     15 C15         3.9245  -20.9582  -48.7692 C.3       23 UNK        -0.0205 
     16 S16         3.0851  -22.4526  -48.1484 S.3       23 UNK        -0.2404 
     17 C17         2.3217  -21.8327  -46.6102 C.3       23 UNK        -0.0398 
     18 CA          0.8731  -22.3286  -46.3780 C.3       11 UNK         0.1400 
     19 N           0.3376  -21.8673  -45.0952 N.am      11 UNK        -0.5000 
     20 C          -0.8428  -22.2313  -44.5712 C.2       10 UNK         0.5000 
     21 O          -1.5804  -23.0835  -45.0647 O.2       10 UNK        -0.5000 
     22 CA         -1.2981  -21.4890  -43.3020 C.3       10 UNK         0.1400 
     23 CB         -0.6770  -22.1242  -42.0493 C.3       10 UNK        -0.1800 
     24 N          -0.9855  -20.0591  -43.3372 N.am      10 UNK        -0.5000 
     25 C          -1.5032  -19.1843  -44.2128 C.2       9 UNK         0.5000 
     26 O          -2.3416  -19.4810  -45.0642 O.2       9 UNK        -0.5000 
     27 CA         -0.9493  -17.7474  -44.1628 C.3       9 UNK         0.1400 
     28 CB         -1.5650  -16.9533  -43.0018 C.3       9 UNK        -0.1800 
     29 N           0.5098  -17.7178  -44.0592 N.am      9 UNK        -0.5000 
     30 C           1.3443  -18.2020  -44.9890 C.2       8 UNK         0.5000 
     31 O           0.9706  -18.6635  -46.0658 O.2       8 UNK        -0.5000 
     32 CA          2.8405  -18.2251  -44.6368 C.3       8 UNK         0.1400 
     33 CB          3.4990  -16.8653  -44.9102 C.3       8 UNK        -0.1800 
     34 N           3.0612  -18.6165  -43.2447 N.am      8 UNK        -0.5000 
     35 C           2.8722  -19.8572  -42.7733 C.2       7 UNK         0.5000 
     36 O           2.5322  -20.8074  -43.4768 O.2       7 UNK        -0.5000 
     37 CA          3.0573  -20.0644  -41.2585 C.3       7 UNK         0.1400 
     38 CB          4.5370  -20.3027  -40.9233 C.3       7 UNK        -0.1800 
     39 N           2.5577  -18.9382  -40.4694 N.am      7 UNK        -0.5000 
     40 C           1.2669  -18.5873  -40.3788 C.2       6 UNK         0.5000 
     41 O           0.3507  -19.2115  -40.9117 O.2       6 UNK        -0.5000 
     42 CA          0.9559  -17.2860  -39.6137 C.3       6 UNK         0.1400 
     43 CB          0.7633  -17.5721  -38.1173 C.3       6 UNK        -0.1800 
     44 N           1.9831  -16.2526  -39.7853 N.am      6 UNK        -0.5000 
     45 C           2.3298  -15.7200  -40.9644 C.2       5 UNK         0.5000 
     46 O           1.8229  -16.0585  -42.0362 O.2       5 UNK        -0.5000 
     47 CA          3.4882  -14.7046  -40.9446 C.3       5 UNK         0.1400 
     48 CB          4.8349  -15.4456  -40.9184 C.3       5 UNK        -0.1800 
     49 N           3.4713  -13.8176  -42.1081 N.am      5 UNK        -0.5000 
     50 C           2.5301  -12.8987  -42.3572 C.2       4 UNK         0.5000 
     51 O           1.6185  -12.6362  -41.5681 O.2       4 UNK        -0.5000 
     52 CA          2.6519  -12.1312  -43.6911 C.3       4 UNK         0.1400 
     53 CB          3.1292  -13.0218  -44.8556 C.3       4 UNK        -0.1800 
     54 N           1.3630  -11.5489  -44.0545 N.am      4 UNK        -0.5000 
     55 C           0.9891  -10.2824  -43.8271 C.2       3 UNK         0.5000 
     56 O           1.7356   -9.4247  -43.3525 O.2       3 UNK        -0.5000 
     57 CA         -0.4574   -9.8932  -44.2013 C.3       3 UNK         0.1400 
     58 CB         -0.4750   -9.0834  -45.5073 C.3       3 UNK        -0.1800 
     59 N          -1.3424  -11.0488  -44.3553 N.am      3 UNK        -0.5000 
     60 C          -1.8389  -11.7758  -43.3450 C.2       2 UNK         0.5000 
     61 O          -1.7039  -11.4760  -42.1586 O.2       2 UNK        -0.5000 
     62 CA         -2.6070  -13.0599  -43.7194 C.3       2 UNK         0.1400 
     63 CB         -4.1220  -12.8443  -43.5860 C.3       2 UNK        -0.1800 
     64 N          -2.3210  -13.5607  -45.0679 N.am      2 UNK        -0.5000 
     65 C          -1.1472  -14.0380  -45.5011 C.2       1 UNK         0.5000 
     66 O          -0.1409  -14.0691  -44.7940 O.2       1 UNK        -0.5000 
     67 C          -0.0687  -21.9432  -47.5332 C.2       11 UNK         0.5000 
     68 O          -0.5227  -22.8242  -48.2606 O.2       11 UNK        -0.5000 
     69 N          -0.3944  -20.6499  -47.6418 N.am      12 UNK        -0.5000 
     70 CA         -1.2551  -20.0914  -48.6840 C.3       12 UNK         0.1400 
     71 CB         -1.3378  -18.5771  -48.4814 C.3       12 UNK        -0.1800 
     72 C          -2.6681  -20.7015  -48.7313 C.2       12 UNK         0.5000 
     73 O          -3.2504  -20.8048  -49.8075 O.2       12 UNK        -0.5000 
     74 N          -3.1824  -21.1113  -47.5664 N.am      13 UNK        -0.5000 
     75 CA         -4.4651  -21.7914  -47.4138 C.3       13 UNK         0.1400 
     76 CB         -4.9318  -21.6153  -45.9597 C.3       13 UNK        -0.1800 
     77 C          -4.4393  -23.2872  -47.7980 C.2       13 UNK         0.5000 
     78 O          -5.5132  -23.8893  -47.8597 O.2       13 UNK        -0.5000 
     79 N          -3.2518  -23.8735  -48.0143 N.am      14 UNK        -0.5000 
     80 CA         -3.0699  -25.3074  -48.2533 C.3       14 UNK         0.1400 
     81 CB         -2.3029  -25.9046  -47.0630 C.3       14 UNK        -0.1800 
     82 C          -2.3390  -25.6403  -49.5672 C.2       14 UNK         0.5000 
     83 O          -2.6043  -26.7059  -50.1262 O.2       14 UNK        -0.5000 
     84 N          -1.4325  -24.7612  -50.0228 N.am      15 UNK        -0.5000 
     85 CA         -0.4296  -24.9756  -51.0776 C.3       15 UNK         0.1400 
     86 CB          0.3040  -23.6526  -51.3481 C.3       15 UNK        -0.1800 
     87 C          -0.9286  -25.6042  -52.3951 C.2       15 UNK         0.5000 
     88 O          -0.2170  -26.4231  -52.9792 O.2       15 UNK        -0.5000 
     89 N          -2.1512  -25.2595  -52.8070 N.am      16 UNK        -0.5000 
     90 CA         -2.9011  -25.9411  -53.8620 C.3       16 UNK         0.1400 
     91 CB         -2.5427  -25.3695  -55.2458 C.3       16 UNK        -0.1800 
     92 C          -4.3906  -25.8128  -53.5214 C.2       16 UNK         0.5000 
     93 O          -5.1829  -25.3726  -54.3544 O.2       16 UNK        -0.5000 
     94 N          -4.7139  -26.1158  -52.2553 N.am      17 UNK        -0.5000 
     95 CA         -5.8812  -25.6188  -51.5255 C.3       17 UNK         0.1400 
     96 CB         -7.2135  -26.1006  -52.1452 C.3       17 UNK        -0.1800 
     97 C          -5.7558  -24.0901  -51.3459 C.2       17 UNK         0.5000 
     98 O          -4.6523  -23.6236  -51.0571 O.2       17 UNK        -0.5000 
     99 N          -6.8633  -23.3534  -51.4977 N.am      18 UNK        -0.5000 
    100 CA        -6.9718  -21.9108  -51.2743 C.3       18 UNK         0.1400 
    101 CB        -8.4217  -21.4853  -51.5568 C.3       18 UNK        -0.1800 
    102 C         -5.9992  -21.0477  -52.1044 C.2       18 UNK         0.5000 
    103 O         -5.5847  -21.4354  -53.2014 O.2       18 UNK        -0.5000 
    104 N         -5.7218  -19.8448  -51.5835 N.am      19 UNK        -0.5000 
    105 CA        -4.7884  -18.8603  -52.1402 C.3       19 UNK         0.1400 
    106 CB        -4.5779  -17.7403  -51.1111 C.3       19 UNK        -0.1800 
    107 C         -5.2065  -18.2746  -53.5036 C.2       19 UNK         0.5000 
    108 O         -4.3796  -17.6598  -54.1769 O.2       19 UNK        -0.5000 
    109 N         -6.4670  -18.4938  -53.9032 N.am      20 UNK        -0.5000 
    110 CA        -6.9763  -18.2254  -55.2483 C.3       20 UNK         0.1400 
    111 CB        -8.5009  -18.4138  -55.2512 C.3       20 UNK        -0.1800 
    112 C         -6.3176  -19.1164  -56.3229 C.2       20 UNK         0.5000 
    113 O         -6.2118  -18.6908  -57.4738 O.2       20 UNK        -0.5000 
    114 N         -5.8758  -20.3183  -55.9261 N.am      21 UNK        -0.5000 
    115 CA        -5.0840  -21.2287  -56.7449 C.3       21 UNK         0.1400 
    116 CB        -5.5927  -22.6674  -56.5533 C.3       21 UNK        -0.1800 
    117 C         -3.6013  -21.0947  -56.3665 C.2       21 UNK         0.5000 
    118 O         -2.7984  -20.6869  -57.2057 O.2       21 UNK        -0.5000 
    119 N         -3.2716  -21.4367  -55.1130 N.am      22 UNK        -0.5000 
    120 CA        -1.9424  -21.4036  -54.4654 C.3       22 UNK         0.1400 
    121 C         -0.7995  -22.2440  -55.1202 C.2       22 UNK         0.5000 
    122 N         -0.8484  -22.5667  -56.4040 N.am      22 UNK        -0.7600 
    123 O          0.1484  -22.6261  -54.4441 O.2       22 UNK        -0.5000 
    124 C124       -1.4646  -19.9517  -54.1750 C.3       23 UNK        -0.0398 
    125 S125       -0.9172  -19.7219  -52.4498 S.3       23 UNK        -0.2404 
    126 C126        0.8917  -19.6853  -52.6305 C.3       23 UNK        -0.0205 
    127 H127       -3.9079  -17.3254  -47.7677 H         1 UNK         0.0600 
    128 H128       -4.9730  -16.1997  -48.6143 H         1 UNK         0.0600 
    129 H129       -5.1437  -16.4409  -46.8750 H         1 UNK         0.0600 
    130 H130       -1.8744  -16.4700  -47.3248 H         1 UNK         0.3000 
    131 H131       -1.2507  -13.6710  -47.5915 H         1 UNK         0.0600 
    132 H132        0.5003  -16.0350  -46.7587 H         1 UNK         0.0800 
    133 H133        1.0913  -14.4172  -47.0601 H         1 UNK         0.0800 
    134 H134        2.6216  -16.1443  -48.1789 H         1 UNK         0.0800 
    135 H135        2.7647  -15.6316  -49.8368 H         1 UNK         0.0800 
    136 H136        0.9616  -17.2808  -51.3820 H         1 UNK         0.1150 
    137 H137        2.4030  -21.2977  -51.0086 H         1 UNK         0.1150 
    138 H138        3.4255  -18.3703  -48.0488 H         1 UNK         0.1150 
    139 H139        4.6741  -21.2678  -49.4986 H         1 UNK         0.0800 
    140 H140        4.4786  -20.4937  -47.9520 H         1 UNK         0.0800 
    141 H141        2.3541  -20.7447  -46.6120 H         1 UNK         0.0800 
    142 H142        2.9549  -22.1499  -45.7809 H         1 UNK         0.0800 
    143 H143        0.9012  -23.4195  -46.3346 H         1 UNK         0.0600 
    144 H144        0.9133  -21.2095  -44.5805 H         1 UNK         0.3000 
    145 H145       -2.3831  -21.5896  -43.2316 H         1 UNK         0.0600 
    146 H146       -1.0600  -21.6592  -41.1409 H         1 UNK         0.0600 
    147 H147        0.4087  -22.0248  -42.0437 H         1 UNK         0.0600 
    148 H148       -0.9106  -23.1881  -41.9936 H         1 UNK         0.0600 
    149 H149       -0.3424  -19.7194  -42.6272 H         1 UNK         0.3000 
    150 H150       -1.2229  -17.2511  -45.0951 H         1 UNK         0.0600 
    151 H151       -2.6423  -16.8459  -43.1324 H         1 UNK         0.0600 
    152 H152       -1.1396  -15.9518  -42.9412 H         1 UNK         0.0600 
    153 H153       -1.3965  -17.4418  -42.0422 H         1 UNK         0.0600 
    154 H154        0.9065  -17.2907  -43.2268 H         1 UNK         0.3000 
    155 H155        3.3238  -18.9633  -45.2799 H         1 UNK         0.0600 
    156 H156        3.0686  -16.0765  -44.2957 H         1 UNK         0.0600 
    157 H157        3.3712  -16.5728  -45.9522 H         1 UNK         0.0600 
    158 H158        4.5701  -16.8984  -44.7108 H         1 UNK         0.0600 
    159 H159        3.2633  -17.8733  -42.5928 H         1 UNK         0.3000 
    160 H160        2.4943  -20.9555  -40.9730 H         1 UNK         0.0600 
    161 H161        5.1508  -19.4333  -41.1625 H         1 UNK         0.0600 
    162 H162        4.9327  -21.1492  -41.4862 H         1 UNK         0.0600 
    163 H163        4.6701  -20.5273  -39.8649 H         1 UNK         0.0600 
    164 H164        3.2445  -18.3707  -39.9958 H         1 UNK         0.3000 
    165 H165        0.0184  -16.8894  -40.0089 H         1 UNK         0.0600 
    166 H166        0.4549  -16.6748  -37.5804 H         1 UNK         0.0600 
    167 H167       -0.0108  -18.3247  -37.9606 H         1 UNK         0.0600 
    168 H168        1.6795  -17.9424  -37.6558 H         1 UNK         0.0600 
    169 H169        2.4499  -15.9382  -38.9467 H         1 UNK         0.3000 
    170 H170        3.4008  -14.0931  -40.0441 H         1 UNK         0.0600 
    171 H171        4.9705  -16.0675  -41.8045 H         1 UNK         0.0600 
    172 H172        5.6690  -14.7452  -40.8707 H         1 UNK         0.0600 
    173 H173        4.9119  -16.0957  -40.0461 H         1 UNK         0.0600 
    174 H174        4.1766  -13.9871  -42.8088 H         1 UNK         0.3000 
    175 H175        3.3923  -11.3424  -43.5448 H         1 UNK         0.0600 
    176 H176        2.4896  -13.8948  -44.9819 H         1 UNK         0.0600 
    177 H177        3.1250  -12.4713  -45.7966 H         1 UNK         0.0600 
    178 H178        4.1488  -13.3754  -44.7015 H         1 UNK         0.0600 
    179 H179        0.6650  -12.2161  -44.3627 H         1 UNK         0.3000 
    180 H180       -0.8458   -9.2600  -43.4008 H         1 UNK         0.0600 
    181 H181       -1.4838   -8.7505  -45.7520 H         1 UNK         0.0600 
    182 H182       -0.0995   -9.6677  -46.3484 H         1 UNK         0.0600 
    183 H183        0.1480   -8.1920  -45.4230 H         1 UNK         0.0600 
    184 H184       -1.5266  -11.3574  -45.2981 H         1 UNK         0.3000 
    185 H185       -2.3081  -13.8304  -43.0066 H         1 UNK         0.0600 
    186 H186       -4.4849  -12.0992  -44.2951 H         1 UNK         0.0600 
    187 H187       -4.6689  -13.7707  -43.7629 H         1 UNK         0.0600 
    188 H188       -4.3828  -12.5003  -42.5843 H         1 UNK         0.0600 
    189 H189       -3.0936  -13.5667  -45.7288 H         1 UNK         0.3000 
    190 H190        0.0302  -19.9796  -47.0048 H         1 UNK         0.3000 
    191 H191       -0.7705  -20.2930  -49.6393 H         1 UNK         0.0600 
    192 H192       -1.8138  -18.3357  -47.5322 H         1 UNK         0.0600 
    193 H193       -1.8994  -18.0984  -49.2842 H         1 UNK         0.0600 
    194 H194       -0.3418  -18.1413  -48.4708 H         1 UNK         0.0600 
    195 H195       -2.6519  -20.9433  -46.7198 H         1 UNK         0.3000 
    196 H196       -5.1944  -21.3045  -48.0644 H         1 UNK         0.0600 
    197 H197       -5.0139  -20.5603  -45.6968 H         1 UNK         0.0600 
    198 H198       -4.2386  -22.0812  -45.2583 H         1 UNK         0.0600 
    199 H199       -5.9123  -22.0661  -45.8026 H         1 UNK         0.0600 
    200 H200       -2.4083  -23.3128  -47.9549 H         1 UNK         0.3000 
    201 H201       -4.0375  -25.8099  -48.3082 H         1 UNK         0.0600 
    202 H202       -2.8520  -25.7644  -46.1317 H         1 UNK         0.0600 
    203 H203       -1.3234  -25.4389  -46.9438 H         1 UNK         0.0600 
    204 H204       -2.1467  -26.9764  -47.1914 H         1 UNK         0.0600 
    205 H205       -1.2648  -23.9337  -49.4552 H         1 UNK         0.3000 
    206 H206        0.2992  -25.6739  -50.6622 H         1 UNK         0.0600 
    207 H207        1.0383  -23.7655  -52.1464 H         1 UNK         0.0600 
    208 H208       -0.3876  -22.8627  -51.6436 H         1 UNK         0.0600 
    209 H209        0.8459  -23.3110  -50.4668 H         1 UNK         0.0600 
    210 H210       -2.6799  -24.6019  -52.2455 H         1 UNK         0.3000 
    211 H211       -2.6609  -27.0063  -53.8497 H         1 UNK         0.0600 
    212 H212       -2.8614  -24.3322  -55.3419 H         1 UNK         0.0600 
    213 H213       -3.0335  -25.9350  -56.0384 H         1 UNK         0.0600 
    214 H214       -1.4695  -25.4129  -55.4310 H         1 UNK         0.0600 
    215 H215       -3.9658  -26.4574  -51.6596 H         1 UNK         0.3000 
    216 H216       -5.8123  -26.0456  -50.5239 H         1 UNK         0.0600 
    217 H217       -8.0510  -25.8960  -51.4775 H         1 UNK         0.0600 
    218 H218       -7.1972  -27.1773  -52.3140 H         1 UNK         0.0600 
    219 H219       -7.4283  -25.6195  -53.0996 H         1 UNK         0.0600 
    220 H220       -7.7106  -23.8239  -51.7773 H         1 UNK         0.3000 
    221 H221       -6.7555  -21.7375  -50.2181 H         1 UNK         0.0600 
    222 H222       -8.6959  -21.6645  -52.5975 H         1 UNK         0.0600 
    223 H223       -9.1241  -22.0305  -50.9259 H         1 UNK         0.0600 
    224 H224       -8.5701  -20.4232  -51.3571 H         1 UNK         0.0600 
    225 H225       -6.1211  -19.6055  -50.6883 H         1 UNK         0.3000 
    226 H226       -3.8361  -19.3703  -52.2891 H         1 UNK         0.0600 
    227 H227       -4.2204  -18.1433  -50.1641 H         1 UNK         0.0600 
    228 H228       -3.8325  -17.0235  -51.4580 H         1 UNK         0.0600 
    229 H229       -5.5009  -17.1919  -50.9195 H         1 UNK         0.0600 
    230 H230       -7.0811  -18.9907  -53.2759 H         1 UNK         0.3000 
    231 H231       -6.7555  -17.1850  -55.4958 H         1 UNK         0.0600 
    232 H232       -8.9185  -18.1992  -56.2358 H         1 UNK         0.0600 
    233 H233       -8.9833  -17.7417  -54.5413 H         1 UNK         0.0600 
    234 H234       -8.7809  -19.4356  -54.9913 H         1 UNK         0.0600 
    235 H235       -5.9669  -20.5737  -54.9478 H         1 UNK         0.3000 
    236 H236       -5.1842  -20.9798  -57.8034 H         1 UNK         0.0600 
    237 H237       -5.5982  -22.9638  -55.5042 H         1 UNK         0.0600 
    238 H238       -6.6097  -22.7747  -56.9302 H         1 UNK         0.0600 
    239 H239       -4.9683  -23.3807  -57.0928 H         1 UNK         0.0600 
    240 H240       -4.0259  -21.7334  -54.5019 H         1 UNK         0.3000 
    241 H241       -2.1318  -21.8990  -53.5117 H         1 UNK         0.0600 
    242 H242       -0.1079  -23.1119  -56.8145 H         1 UNK         0.3800 
    243 H243       -1.5652  -22.1490  -56.9862 H         1 UNK         0.3800 
    244 H244       -0.6858  -19.6283  -54.8681 H         1 UNK         0.0800 
    245 H245       -2.2796  -19.2459  -54.3305 H         1 UNK         0.0800 
    246 H246        1.1684  -18.9487  -53.3859 H         1 UNK         0.0800 
    247 H247        1.2367  -20.6529  -52.9967 H         1 UNK         0.0800 
@<TRIPOS>BOND
     1    1    2 1    
     2    1  127 1    
     3    1  128 1    
     4    1  129 1    
     5    2    3 2    
     6    2    4 am   BACKBONE|DICT|INTERRES
     7    4    5 1    
     8    4  130 1    
     9    5    6 1    
    10    5   65 1    
    11    5  131 1    
    12    6    7 1    
    13    6  132 1    
    14    6  133 1    
    15    7    8 1    
    16    8    9 1    
    17    8  134 1    
    18    8  135 1    
    19    9   10 ar   
    20    9   14 ar   
    21   10   11 ar   
    22   10  136 1    
    23   11   12 ar   
    24   11  126 1    
    25   12   13 ar   
    26   12  137 1    
    27   13   14 ar   
    28   13   15 1    
    29   14  138 1    
    30   15   16 1    
    31   15  139 1    
    32   15  140 1    
    33   16   17 1    
    34   17   18 1    
    35   17  141 1    
    36   17  142 1    
    37   18   19 1    
    38   18   67 1    
    39   18  143 1    
    40   19   20 am   BACKBONE|DICT|INTERRES
    41   19  144 1    
    42   20   21 2    
    43   20   22 1    
    44   22   23 1    
    45   22   24 1    
    46   22  145 1    
    47   23  146 1    
    48   23  147 1    
    49   23  148 1    
    50   24   25 am   BACKBONE|DICT|INTERRES
    51   24  149 1    
    52   25   26 2    
    53   25   27 1    
    54   27   28 1    
    55   27   29 1    
    56   27  150 1    
    57   28  151 1    
    58   28  152 1    
    59   28  153 1    
    60   29   30 am   BACKBONE|DICT|INTERRES
    61   29  154 1    
    62   30   31 2    
    63   30   32 1    
    64   32   33 1    
    65   32   34 1    
    66   32  155 1    
    67   33  156 1    
    68   33  157 1    
    69   33  158 1    
    70   34   35 am   BACKBONE|DICT|INTERRES
    71   34  159 1    
    72   35   36 2    
    73   35   37 1    
    74   37   38 1    
    75   37   39 1    
    76   37  160 1    
    77   38  161 1    
    78   38  162 1    
    79   38  163 1    
    80   39   40 am   BACKBONE|DICT|INTERRES
    81   39  164 1    
    82   40   41 2    
    83   40   42 1    
    84   42   43 1    
    85   42   44 1    
    86   42  165 1    
    87   43  166 1    
    88   43  167 1    
    89   43  168 1    
    90   44   45 am   BACKBONE|DICT|INTERRES
    91   44  169 1    
    92   45   46 2    
    93   45   47 1    
    94   47   48 1    
    95   47   49 1    
    96   47  170 1    
    97   48  171 1    
    98   48  172 1    
    99   48  173 1    
   100   49   50 am   BACKBONE|DICT|INTERRES
   101   49  174 1    
   102   50   51 2    
   103   50   52 1    
   104   52   53 1    
   105   52   54 1    
   106   52  175 1    
   107   53  176 1    
   108   53  177 1    
   109   53  178 1    
   110   54   55 am   BACKBONE|DICT|INTERRES
   111   54  179 1    
   112   55   56 2    
   113   55   57 1    
   114   57   58 1    
   115   57   59 1    
   116   57  180 1    
   117   58  181 1    
   118   58  182 1    
   119   58  183 1    
   120   59   60 am   BACKBONE|DICT|INTERRES
   121   59  184 1    
   122   60   61 2    
   123   60   62 1    
   124   62   63 1    
   125   62   64 1    
   126   62  185 1    
   127   63  186 1    
   128   63  187 1    
   129   63  188 1    
   130   64   65 am   BACKBONE|DICT|INTERRES
   131   64  189 1    
   132   65   66 2    
   133   67   68 2    
   134   67   69 am   BACKBONE|DICT|INTERRES
   135   69   70 1    
   136   69  190 1    
   137   70   71 1    
   138   70   72 1    
   139   70  191 1    
   140   71  192 1    
   141   71  193 1    
   142   71  194 1    
   143   72   73 2    
   144   72   74 am   BACKBONE|DICT|INTERRES
   145   74   75 1    
   146   74  195 1    
   147   75   76 1    
   148   75   77 1    
   149   75  196 1    
   150   76  197 1    
   151   76  198 1    
   152   76  199 1    
   153   77   78 2    
   154   77   79 am   BACKBONE|DICT|INTERRES
   155   79   80 1    
   156   79  200 1    
   157   80   81 1    
   158   80   82 1    
   159   80  201 1    
   160   81  202 1    
   161   81  203 1    
   162   81  204 1    
   163   82   83 2    
   164   82   84 am   BACKBONE|DICT|INTERRES
   165   84   85 1    
   166   84  205 1    
   167   85   86 1    
   168   85   87 1    
   169   85  206 1    
   170   86  207 1    
   171   86  208 1    
   172   86  209 1    
   173   87   88 2    
   174   87   89 am   BACKBONE|DICT|INTERRES
   175   89   90 1    
   176   89  210 1    
   177   90   91 1    
   178   90   92 1    
   179   90  211 1    
   180   91  212 1    
   181   91  213 1    
   182   91  214 1    
   183   92   93 2    
   184   92   94 am   BACKBONE|DICT|INTERRES
   185   94   95 1    
   186   94  215 1    
   187   95   96 1    
   188   95   97 1    
   189   95  216 1    
   190   96  217 1    
   191   96  218 1    
   192   96  219 1    
   193   97   98 2    
   194   97   99 am   BACKBONE|DICT|INTERRES
   195   99  100 1    
   196   99  220 1    
   197  100  101 1    
   198  100  102 1    
   199  100  221 1    
   200  101  222 1    
   201  101  223 1    
   202  101  224 1    
   203  102  103 2    
   204  102  104 am   BACKBONE|DICT|INTERRES
   205  104  105 1    
   206  104  225 1    
   207  105  106 1    
   208  105  107 1    
   209  105  226 1    
   210  106  227 1    
   211  106  228 1    
   212  106  229 1    
   213  107  108 2    
   214  107  109 am   BACKBONE|DICT|INTERRES
   215  109  110 1    
   216  109  230 1    
   217  110  111 1    
   218  110  112 1    
   219  110  231 1    
   220  111  232 1    
   221  111  233 1    
   222  111  234 1    
   223  112  113 2    
   224  112  114 am   BACKBONE|DICT|INTERRES
   225  114  115 1    
   226  114  235 1    
   227  115  116 1    
   228  115  117 1    
   229  115  236 1    
   230  116  237 1    
   231  116  238 1    
   232  116  239 1    
   233  117  118 2    
   234  117  119 am   BACKBONE|DICT|INTERRES
   235  119  120 1    
   236  119  240 1    
   237  120  121 1    
   238  120  124 1    
   239  120  241 1    
   240  121  122 am   BACKBONE|DICT|INTERRES
   241  121  123 2    
   242  122  242 1    
   243  122  243 1    
   244  124  125 1    
   245  124  244 1    
   246  124  245 1    
   247  125  126 1    
   248  126  246 1    
   249  126  247 1    
@<TRIPOS>SUBSTRUCTURE
     1 UNK         1 GROUP             0       ****    0 ROOT    
