@<TRIPOS>MOLECULE
3R540
247   249    1
SMALL
USER_CHARGES


@<TRIPOS>ATOM
      1 CA          1.3162   -8.3176  -45.3589 C.3       0 UNK        -0.1800 
      2 C           1.3402   -9.8326  -45.2264 C.2       0 UNK         0.5000 
      3 O           2.2941  -10.3849  -44.6789 O.2       0 UNK        -0.5000 
      4 N           0.2868  -10.5101  -45.7010 N.am      1 UNK        -0.5000 
      5 CA          0.1587  -11.9759  -45.7179 C.3       1 UNK         0.1400 
      6 C6         -1.0557  -12.4498  -46.5508 C.3       23 UNK        -0.0398 
      7 S7         -0.9566  -11.8984  -48.2848 S.3       23 UNK        -0.2404 
      8 C8         -2.5719  -12.4531  -48.9193 C.3       23 UNK        -0.0205 
      9 C9         -2.7206  -13.9694  -48.9151 C.ar      23 UNK        -0.0193 
     10 C10        -1.8031  -14.7692  -49.6050 C.ar      23 UNK        -0.1150 
     11 C11        -1.9481  -16.1579  -49.6271 C.ar      23 UNK        -0.0193 
     12 C12        -3.0220  -16.7451  -48.9573 C.ar      23 UNK        -0.1150 
     13 C13        -3.9501  -15.9617  -48.2686 C.ar      23 UNK        -0.0193 
     14 C14        -3.7923  -14.5726  -48.2462 C.ar      23 UNK        -0.1150 
     15 C15        -5.1354  -16.6268  -47.5814 C.3       23 UNK        -0.0205 
     16 S16        -4.8827  -16.9052  -45.7948 S.3       23 UNK        -0.2404 
     17 C17        -3.2854  -17.7858  -45.7215 C.3       23 UNK        -0.0398 
     18 CA         -3.3112  -19.2273  -46.2934 C.3       11 UNK         0.1400 
     19 N          -1.9745  -19.6582  -46.7028 N.am      11 UNK        -0.5000 
     20 C          -1.6997  -20.7224  -47.4664 C.2       10 UNK         0.5000 
     21 O          -2.5625  -21.4189  -48.0016 O.2       10 UNK        -0.5000 
     22 CA         -0.2125  -21.0869  -47.6456 C.3       10 UNK         0.1400 
     23 CB          0.3964  -20.3558  -48.8501 C.3       10 UNK        -0.1800 
     24 N           0.5957  -20.8112  -46.4556 N.am      10 UNK        -0.5000 
     25 C           0.4485  -21.4400  -45.2808 C.2       9 UNK         0.5000 
     26 O          -0.3723  -22.3351  -45.0837 O.2       9 UNK        -0.5000 
     27 CA          1.3302  -20.9584  -44.1162 C.3       9 UNK         0.1400 
     28 CB          2.7587  -21.5061  -44.2507 C.3       9 UNK        -0.1800 
     29 N           1.3674  -19.5008  -44.0035 N.am      9 UNK        -0.5000 
     30 C           0.3009  -18.7280  -43.7502 C.2       8 UNK         0.5000 
     31 O          -0.8307  -19.1665  -43.5457 O.2       8 UNK        -0.5000 
     32 CA          0.5240  -17.2066  -43.7889 C.3       8 UNK         0.1400 
     33 CB          1.2008  -16.7242  -42.4962 C.3       8 UNK        -0.1800 
     34 N           1.3084  -16.7871  -44.9502 N.am      8 UNK        -0.5000 
     35 C           0.9561  -16.9896  -46.2279 C.2       7 UNK         0.5000 
     36 O          -0.0814  -17.5486  -46.5743 O.2       7 UNK        -0.5000 
     37 CA          1.9623  -16.5552  -47.3028 C.3       7 UNK         0.1400 
     38 CB          1.8698  -15.0457  -47.5664 C.3       7 UNK        -0.1800 
     39 N           3.3283  -16.9233  -46.9349 N.am      7 UNK        -0.5000 
     40 C           3.7784  -18.1858  -46.8927 C.2       6 UNK         0.5000 
     41 O           3.1015  -19.1666  -47.2038 O.2       6 UNK        -0.5000 
     42 CA          5.2145  -18.3858  -46.3758 C.3       6 UNK         0.1400 
     43 CB          6.2371  -18.1166  -47.4899 C.3       6 UNK        -0.1800 
     44 N           5.5178  -17.5392  -45.2206 N.am      6 UNK        -0.5000 
     45 C           4.9415  -17.6736  -44.0180 C.2       5 UNK         0.5000 
     46 O           4.1135  -18.5437  -43.7508 O.2       5 UNK        -0.5000 
     47 CA          5.3274  -16.6425  -42.9415 C.3       5 UNK         0.1400 
     48 CB          6.5921  -17.0923  -42.1951 C.3       5 UNK        -0.1800 
     49 N           5.5224  -15.2799  -43.4468 N.am      5 UNK        -0.5000 
     50 C           4.6006  -14.5596  -44.0994 C.2       4 UNK         0.5000 
     51 O           3.5062  -15.0026  -44.4473 O.2       4 UNK        -0.5000 
     52 CA          4.9532  -13.0922  -44.3959 C.3       4 UNK         0.1400 
     53 CB          4.6338  -12.7178  -45.8523 C.3       4 UNK        -0.1800 
     54 N           4.2154  -12.2022  -43.5041 N.am      4 UNK        -0.5000 
     55 C           4.4403  -12.0680  -42.1901 C.2       3 UNK         0.5000 
     56 O           5.3557  -12.6334  -41.5904 O.2       3 UNK        -0.5000 
     57 CA          3.4800  -11.1526  -41.4149 C.3       3 UNK         0.1400 
     58 CB          3.8759   -9.6776  -41.5887 C.3       3 UNK        -0.1800 
     59 N           2.0966  -11.3367  -41.8522 N.am      3 UNK        -0.5000 
     60 C           1.2295  -12.1942  -41.2951 C.2       2 UNK         0.5000 
     61 O           1.5062  -12.9197  -40.3392 O.2       2 UNK        -0.5000 
     62 CA         -0.1953  -12.2397  -41.8837 C.3       2 UNK         0.1400 
     63 CB         -1.1390  -11.3401  -41.0708 C.3       2 UNK        -0.1800 
     64 N          -0.2413  -11.8274  -43.2865 N.am      2 UNK        -0.5000 
     65 C           0.1184  -12.6115  -44.3118 C.2       1 UNK         0.5000 
     66 O           0.4203  -13.7946  -44.1831 O.2       1 UNK        -0.5000 
     67 C          -3.9463  -20.2323  -45.3102 C.2       11 UNK         0.5000 
     68 O          -5.0946  -20.6301  -45.5068 O.2       11 UNK        -0.5000 
     69 N          -3.1783  -20.6486  -44.2920 N.am      12 UNK        -0.5000 
     70 CA         -3.5947  -21.5991  -43.2590 C.3       12 UNK         0.1400 
     71 CB         -2.5470  -21.6262  -42.1356 C.3       12 UNK        -0.1800 
     72 C          -3.8452  -23.0167  -43.8034 C.2       12 UNK         0.5000 
     73 O          -4.8481  -23.6353  -43.4451 O.2       12 UNK        -0.5000 
     74 N          -2.9441  -23.4989  -44.6704 N.am      13 UNK        -0.5000 
     75 CA         -3.0613  -24.7905  -45.3527 C.3       13 UNK         0.1400 
     76 CB         -1.6886  -25.1811  -45.9222 C.3       13 UNK        -0.1800 
     77 C          -4.1158  -24.7845  -46.4759 C.2       13 UNK         0.5000 
     78 O          -4.5822  -25.8521  -46.8739 O.2       13 UNK        -0.5000 
     79 N          -4.4376  -23.5872  -46.9861 N.am      14 UNK        -0.5000 
     80 CA         -5.3685  -23.2736  -48.0750 C.3       14 UNK         0.1400 
     81 CB         -6.8007  -23.7336  -47.7342 C.3       14 UNK        -0.1800 
     82 C          -4.9154  -23.7677  -49.4643 C.2       14 UNK         0.5000 
     83 O          -5.6945  -23.6676  -50.4106 O.2       14 UNK        -0.5000 
     84 N          -3.6793  -24.2802  -49.5696 N.am      15 UNK        -0.5000 
     85 CA         -2.9760  -24.7157  -50.7821 C.3       15 UNK         0.1400 
     86 CB         -2.4397  -23.4850  -51.5290 C.3       15 UNK        -0.1800 
     87 C          -3.7930  -25.6587  -51.6918 C.2       15 UNK         0.5000 
     88 O          -3.8414  -25.4595  -52.9090 O.2       15 UNK        -0.5000 
     89 N          -4.4354  -26.6570  -51.0671 N.am      16 UNK        -0.5000 
     90 CA         -5.3095  -27.6623  -51.6838 C.3       16 UNK         0.1400 
     91 CB         -4.5000  -28.5955  -52.6098 C.3       16 UNK        -0.1800 
     92 C          -6.5401  -27.0328  -52.3724 C.2       16 UNK         0.5000 
     93 O          -6.8505  -27.3668  -53.5161 O.2       16 UNK        -0.5000 
     94 N          -7.2042  -26.1199  -51.6476 N.am      17 UNK        -0.5000 
     95 CA         -8.3419  -25.2968  -52.0757 C.3       17 UNK         0.1400 
     96 CB         -9.5685  -26.1634  -52.4332 C.3       17 UNK        -0.1800 
     97 C          -7.9433  -24.3002  -53.1832 C.2       17 UNK         0.5000 
     98 O          -8.6160  -24.1988  -54.2110 O.2       17 UNK        -0.5000 
     99 N          -6.8401  -23.5850  -52.9265 N.am      18 UNK        -0.5000 
    100 CA        -6.2031  -22.5634  -53.7580 C.3       18 UNK         0.1400 
    101 CB        -7.0775  -21.2949  -53.8243 C.3       18 UNK        -0.1800 
    102 C         -5.7759  -23.0839  -55.1471 C.2       18 UNK         0.5000 
    103 O         -5.9480  -22.3877  -56.1503 O.2       18 UNK        -0.5000 
    104 N         -5.2454  -24.3123  -55.1821 N.am      19 UNK        -0.5000 
    105 CA        -4.8006  -24.9875  -56.3982 C.3       19 UNK         0.1400 
    106 CB        -5.2353  -26.4596  -56.3464 C.3       19 UNK        -0.1800 
    107 C         -3.2786  -24.8834  -56.5714 C.2       19 UNK         0.5000 
    108 O         -2.8132  -24.6215  -57.6814 O.2       19 UNK        -0.5000 
    109 N         -2.5279  -25.0985  -55.4825 N.am      20 UNK        -0.5000 
    110 CA        -1.0626  -25.1145  -55.4910 C.3       20 UNK         0.1400 
    111 CB        -0.5716  -26.0296  -54.3577 C.3       20 UNK        -0.1800 
    112 C         -0.4404  -23.7106  -55.3651 C.2       20 UNK         0.5000 
    113 O          0.7085  -23.5198  -55.7654 O.2       20 UNK        -0.5000 
    114 N         -1.2025  -22.7652  -54.8078 N.am      21 UNK        -0.5000 
    115 CA        -0.8421  -21.3856  -54.4931 C.3       21 UNK         0.1400 
    116 CB         0.2698  -21.3419  -53.4186 C.3       21 UNK        -0.1800 
    117 C         -2.1234  -20.6789  -54.0143 C.2       21 UNK         0.5000 
    118 O         -3.2119  -21.2413  -54.1458 O.2       21 UNK        -0.5000 
    119 N         -1.9829  -19.4791  -53.4416 N.am      22 UNK        -0.5000 
    120 CA        -3.0622  -18.7469  -52.7541 C.3       22 UNK         0.1400 
    121 C         -3.5278  -19.3710  -51.4036 C.2       22 UNK         0.5000 
    122 N         -2.7588  -20.2605  -50.7890 N.am      22 UNK        -0.7600 
    123 O         -4.6042  -19.0445  -50.9129 O.2       22 UNK        -0.5000 
    124 C124       -2.7399  -17.2327  -52.6050 C.3       23 UNK        -0.0398 
    125 S125       -1.0051  -16.8259  -52.1720 S.3       23 UNK        -0.2404 
    126 C126       -0.9454  -17.0317  -50.3629 C.3       23 UNK        -0.0205 
    127 H127        2.1664   -7.9813  -45.9521 H         1 UNK         0.0600 
    128 H128        1.3817   -7.8546  -44.3744 H         1 UNK         0.0600 
    129 H129        0.4036   -7.9670  -45.8414 H         1 UNK         0.0600 
    130 H130       -0.4648  -10.0047  -46.1486 H         1 UNK         0.3000 
    131 H131        1.0595  -12.3616  -46.1985 H         1 UNK         0.0600 
    132 H132       -1.1168  -13.5404  -46.5509 H         1 UNK         0.0800 
    133 H133       -1.9881  -12.0865  -46.1149 H         1 UNK         0.0800 
    134 H134       -3.3643  -11.9806  -48.3367 H         1 UNK         0.0800 
    135 H135       -2.6882  -12.0944  -49.9427 H         1 UNK         0.0800 
    136 H136       -0.9758  -14.3102  -50.1280 H         1 UNK         0.1150 
    137 H137       -3.1373  -17.8188  -48.9718 H         1 UNK         0.1150 
    138 H138       -4.5118  -13.9636  -47.7171 H         1 UNK         0.1150 
    139 H139       -6.0227  -16.0060  -47.7130 H         1 UNK         0.0800 
    140 H140       -5.3670  -17.5763  -48.0665 H         1 UNK         0.0800 
    141 H141       -2.9355  -17.7817  -44.6880 H         1 UNK         0.0800 
    142 H142       -2.5635  -17.1746  -46.2602 H         1 UNK         0.0800 
    143 H143       -3.9248  -19.2305  -47.1956 H         1 UNK         0.0600 
    144 H144       -1.1995  -19.0807  -46.3879 H         1 UNK         0.3000 
    145 H145       -0.1630  -22.1599  -47.8414 H         1 UNK         0.0600 
    146 H146        1.4225  -20.6785  -49.0265 H         1 UNK         0.0600 
    147 H147       -0.1655  -20.5578  -49.7612 H         1 UNK         0.0600 
    148 H148        0.4111  -19.2769  -48.6971 H         1 UNK         0.0600 
    149 H149        1.3079  -20.0946  -46.5453 H         1 UNK         0.3000 
    150 H150        0.9020  -21.3518  -43.1921 H         1 UNK         0.0600 
    151 H151        2.7548  -22.5932  -44.3389 H         1 UNK         0.0600 
    152 H152        3.3602  -21.2530  -43.3774 H         1 UNK         0.0600 
    153 H153        3.2634  -21.1051  -45.1304 H         1 UNK         0.0600 
    154 H154        2.2759  -19.0602  -44.1186 H         1 UNK         0.3000 
    155 H155       -0.4524  -16.7236  -43.8639 H         1 UNK         0.0600 
    156 H156        0.5878  -16.9602  -41.6257 H         1 UNK         0.0600 
    157 H157        1.3528  -15.6449  -42.5036 H         1 UNK         0.0600 
    158 H158        2.1721  -17.1951  -42.3498 H         1 UNK         0.0600 
    159 H159        2.1533  -16.2534  -44.7590 H         1 UNK         0.3000 
    160 H160        1.7104  -17.0754  -48.2290 H         1 UNK         0.0600 
    161 H161        2.0795  -14.4716  -46.6651 H         1 UNK         0.0600 
    162 H162        0.8689  -14.7715  -47.9023 H         1 UNK         0.0600 
    163 H163        2.5714  -14.7322  -48.3392 H         1 UNK         0.0600 
    164 H164        3.9200  -16.1832  -46.5874 H         1 UNK         0.3000 
    165 H165        5.3137  -19.4289  -46.0673 H         1 UNK         0.0600 
    166 H166        7.2514  -18.3335  -47.1545 H         1 UNK         0.0600 
    167 H167        6.0415  -18.7467  -48.3586 H         1 UNK         0.0600 
    168 H168        6.2081  -17.0787  -47.8238 H         1 UNK         0.0600 
    169 H169        6.1862  -16.7952  -45.3554 H         1 UNK         0.3000 
    170 H170        4.5084  -16.6034  -42.2211 H         1 UNK         0.0600 
    171 H171        6.4690  -18.0968  -41.7876 H         1 UNK         0.0600 
    172 H172        7.4631  -17.1083  -42.8514 H         1 UNK         0.0600 
    173 H173        6.8133  -16.4292  -41.3585 H         1 UNK         0.0600 
    174 H174        6.3819  -14.8246  -43.1746 H         1 UNK         0.3000 
    175 H175        6.0231  -12.9431  -44.2360 H         1 UNK         0.0600 
    176 H176        3.5624  -12.7472  -46.0501 H         1 UNK         0.0600 
    177 H177        4.9826  -11.7111  -46.0826 H         1 UNK         0.0600 
    178 H178        5.1194  -13.4002  -46.5508 H         1 UNK         0.0600 
    179 H179        3.4542  -11.6751  -43.9229 H         1 UNK         0.3000 
    180 H180        3.5667  -11.3967  -40.3539 H         1 UNK         0.0600 
    181 H181        3.8167   -9.3601  -42.6303 H         1 UNK         0.0600 
    182 H182        4.8991   -9.5069  -41.2517 H         1 UNK         0.0600 
    183 H183        3.2279   -9.0253  -41.0032 H         1 UNK         0.0600 
    184 H184        1.8198  -10.8304  -42.6838 H         1 UNK         0.3000 
    185 H185       -0.5545  -13.2683  -41.8040 H         1 UNK         0.0600 
    186 H186       -1.1509  -11.6349  -40.0206 H         1 UNK         0.0600 
    187 H187       -0.8355  -10.2933  -41.1145 H         1 UNK         0.0600 
    188 H188       -2.1632  -11.4092  -41.4380 H         1 UNK         0.0600 
    189 H189       -0.4923  -10.8683  -43.4766 H         1 UNK         0.3000 
    190 H190       -2.2514  -20.2446  -44.1806 H         1 UNK         0.3000 
    191 H191       -4.5338  -21.2374  -42.8353 H         1 UNK         0.0600 
    192 H192       -1.5691  -21.9373  -42.5046 H         1 UNK         0.0600 
    193 H193       -2.4336  -20.6425  -41.6796 H         1 UNK         0.0600 
    194 H194       -2.8373  -22.3197  -41.3454 H         1 UNK         0.0600 
    195 H195       -2.1075  -22.9534  -44.8699 H         1 UNK         0.3000 
    196 H196       -3.3576  -25.5458  -44.6220 H         1 UNK         0.0600 
    197 H197       -0.9374  -25.2385  -45.1342 H         1 UNK         0.0600 
    198 H198       -1.3406  -24.4596  -46.6628 H         1 UNK         0.0600 
    199 H199       -1.7273  -26.1579  -46.4060 H         1 UNK         0.0600 
    200 H200       -3.9525  -22.7826  -46.6112 H         1 UNK         0.3000 
    201 H201       -5.3821  -22.1846  -48.1411 H         1 UNK         0.0600 
    202 H202       -7.5175  -23.3542  -48.4633 H         1 UNK         0.0600 
    203 H203       -7.1092  -23.3638  -46.7563 H         1 UNK         0.0600 
    204 H204       -6.8894  -24.8201  -47.7272 H         1 UNK         0.0600 
    205 H205       -3.1371  -24.3097  -48.7191 H         1 UNK         0.3000 
    206 H206       -2.1148  -25.2955  -50.4475 H         1 UNK         0.0600 
    207 H207       -3.2508  -22.8582  -51.8997 H         1 UNK         0.0600 
    208 H208       -1.8283  -23.7786  -52.3792 H         1 UNK         0.0600 
    209 H209       -1.8107  -22.8802  -50.8768 H         1 UNK         0.0600 
    210 H210       -4.3471  -26.7112  -50.0616 H         1 UNK         0.3000 
    211 H211       -5.7001  -28.2731  -50.8687 H         1 UNK         0.0600 
    212 H212       -3.6727  -29.0596  -52.0731 H         1 UNK         0.0600 
    213 H213       -5.1258  -29.4001  -52.9976 H         1 UNK         0.0600 
    214 H214       -4.0848  -28.0639  -53.4657 H         1 UNK         0.0600 
    215 H215       -6.8227  -25.8805  -50.7431 H         1 UNK         0.3000 
    216 H216       -8.6169  -24.6910  -51.2109 H         1 UNK         0.0600 
    217 H217      -10.4442  -25.5387  -52.6125 H         1 UNK         0.0600 
    218 H218       -9.4045  -26.7558  -53.3335 H         1 UNK         0.0600 
    219 H219       -9.8184  -26.8469  -51.6219 H         1 UNK         0.0600 
    220 H220       -6.3818  -23.7383  -52.0280 H         1 UNK         0.3000 
    221 H221       -5.2889  -22.3011  -53.2283 H         1 UNK         0.0600 
    222 H222       -6.5501  -20.4857  -54.3308 H         1 UNK         0.0600 
    223 H223       -8.0078  -21.4723  -54.3645 H         1 UNK         0.0600 
    224 H224       -7.3294  -20.9391  -52.8252 H         1 UNK         0.0600 
    225 H225       -5.0875  -24.8009  -54.3064 H         1 UNK         0.3000 
    226 H226       -5.2696  -24.5361  -57.2750 H         1 UNK         0.0600 
    227 H227       -6.3194  -26.5456  -56.2696 H         1 UNK         0.0600 
    228 H228       -4.9282  -26.9911  -57.2479 H         1 UNK         0.0600 
    229 H229       -4.8003  -26.9793  -55.4926 H         1 UNK         0.0600 
    230 H230       -2.9854  -25.2918  -54.5950 H         1 UNK         0.3000 
    231 H231       -0.7158  -25.5411  -56.4347 H         1 UNK         0.0600 
    232 H232        0.5175  -26.0880  -54.3461 H         1 UNK         0.0600 
    233 H233       -0.9496  -27.0447  -54.4813 H         1 UNK         0.0600 
    234 H234       -0.8913  -25.6731  -53.3790 H         1 UNK         0.0600 
    235 H235       -2.1643  -22.9853  -54.5768 H         1 UNK         0.3000 
    236 H236       -0.4992  -20.8927  -55.4043 H         1 UNK         0.0600 
    237 H237        1.1708  -21.8573  -53.7493 H         1 UNK         0.0600 
    238 H238        0.5686  -20.3185  -53.1902 H         1 UNK         0.0600 
    239 H239       -0.0526  -21.8078  -52.4871 H         1 UNK         0.0600 
    240 H240       -1.0667  -19.0594  -53.3744 H         1 UNK         0.3000 
    241 H241       -3.9411  -18.8116  -53.3991 H         1 UNK         0.0600 
    242 H242       -3.0543  -20.6661  -49.9105 H         1 UNK         0.3800 
    243 H243       -1.8911  -20.5454  -51.2063 H         1 UNK         0.3800 
    244 H244       -3.4236  -16.7386  -51.9126 H         1 UNK         0.0800 
    245 H245       -2.9278  -16.7519  -53.5657 H         1 UNK         0.0800 
    246 H246        0.0583  -16.7850  -50.0163 H         1 UNK         0.0800 
    247 H247       -1.0994  -18.0823  -50.1192 H         1 UNK         0.0800 
@<TRIPOS>BOND
     1    1    2 1    
     2    1  127 1    
     3    1  128 1    
     4    1  129 1    
     5    2    3 2    
     6    2    4 am   BACKBONE|DICT|INTERRES
     7    4    5 1    
     8    4  130 1    
     9    5    6 1    
    10    5   65 1    
    11    5  131 1    
    12    6    7 1    
    13    6  132 1    
    14    6  133 1    
    15    7    8 1    
    16    8    9 1    
    17    8  134 1    
    18    8  135 1    
    19    9   10 ar   
    20    9   14 ar   
    21   10   11 ar   
    22   10  136 1    
    23   11   12 ar   
    24   11  126 1    
    25   12   13 ar   
    26   12  137 1    
    27   13   14 ar   
    28   13   15 1    
    29   14  138 1    
    30   15   16 1    
    31   15  139 1    
    32   15  140 1    
    33   16   17 1    
    34   17   18 1    
    35   17  141 1    
    36   17  142 1    
    37   18   19 1    
    38   18   67 1    
    39   18  143 1    
    40   19   20 am   BACKBONE|DICT|INTERRES
    41   19  144 1    
    42   20   21 2    
    43   20   22 1    
    44   22   23 1    
    45   22   24 1    
    46   22  145 1    
    47   23  146 1    
    48   23  147 1    
    49   23  148 1    
    50   24   25 am   BACKBONE|DICT|INTERRES
    51   24  149 1    
    52   25   26 2    
    53   25   27 1    
    54   27   28 1    
    55   27   29 1    
    56   27  150 1    
    57   28  151 1    
    58   28  152 1    
    59   28  153 1    
    60   29   30 am   BACKBONE|DICT|INTERRES
    61   29  154 1    
    62   30   31 2    
    63   30   32 1    
    64   32   33 1    
    65   32   34 1    
    66   32  155 1    
    67   33  156 1    
    68   33  157 1    
    69   33  158 1    
    70   34   35 am   BACKBONE|DICT|INTERRES
    71   34  159 1    
    72   35   36 2    
    73   35   37 1    
    74   37   38 1    
    75   37   39 1    
    76   37  160 1    
    77   38  161 1    
    78   38  162 1    
    79   38  163 1    
    80   39   40 am   BACKBONE|DICT|INTERRES
    81   39  164 1    
    82   40   41 2    
    83   40   42 1    
    84   42   43 1    
    85   42   44 1    
    86   42  165 1    
    87   43  166 1    
    88   43  167 1    
    89   43  168 1    
    90   44   45 am   BACKBONE|DICT|INTERRES
    91   44  169 1    
    92   45   46 2    
    93   45   47 1    
    94   47   48 1    
    95   47   49 1    
    96   47  170 1    
    97   48  171 1    
    98   48  172 1    
    99   48  173 1    
   100   49   50 am   BACKBONE|DICT|INTERRES
   101   49  174 1    
   102   50   51 2    
   103   50   52 1    
   104   52   53 1    
   105   52   54 1    
   106   52  175 1    
   107   53  176 1    
   108   53  177 1    
   109   53  178 1    
   110   54   55 am   BACKBONE|DICT|INTERRES
   111   54  179 1    
   112   55   56 2    
   113   55   57 1    
   114   57   58 1    
   115   57   59 1    
   116   57  180 1    
   117   58  181 1    
   118   58  182 1    
   119   58  183 1    
   120   59   60 am   BACKBONE|DICT|INTERRES
   121   59  184 1    
   122   60   61 2    
   123   60   62 1    
   124   62   63 1    
   125   62   64 1    
   126   62  185 1    
   127   63  186 1    
   128   63  187 1    
   129   63  188 1    
   130   64   65 am   BACKBONE|DICT|INTERRES
   131   64  189 1    
   132   65   66 2    
   133   67   68 2    
   134   67   69 am   BACKBONE|DICT|INTERRES
   135   69   70 1    
   136   69  190 1    
   137   70   71 1    
   138   70   72 1    
   139   70  191 1    
   140   71  192 1    
   141   71  193 1    
   142   71  194 1    
   143   72   73 2    
   144   72   74 am   BACKBONE|DICT|INTERRES
   145   74   75 1    
   146   74  195 1    
   147   75   76 1    
   148   75   77 1    
   149   75  196 1    
   150   76  197 1    
   151   76  198 1    
   152   76  199 1    
   153   77   78 2    
   154   77   79 am   BACKBONE|DICT|INTERRES
   155   79   80 1    
   156   79  200 1    
   157   80   81 1    
   158   80   82 1    
   159   80  201 1    
   160   81  202 1    
   161   81  203 1    
   162   81  204 1    
   163   82   83 2    
   164   82   84 am   BACKBONE|DICT|INTERRES
   165   84   85 1    
   166   84  205 1    
   167   85   86 1    
   168   85   87 1    
   169   85  206 1    
   170   86  207 1    
   171   86  208 1    
   172   86  209 1    
   173   87   88 2    
   174   87   89 am   BACKBONE|DICT|INTERRES
   175   89   90 1    
   176   89  210 1    
   177   90   91 1    
   178   90   92 1    
   179   90  211 1    
   180   91  212 1    
   181   91  213 1    
   182   91  214 1    
   183   92   93 2    
   184   92   94 am   BACKBONE|DICT|INTERRES
   185   94   95 1    
   186   94  215 1    
   187   95   96 1    
   188   95   97 1    
   189   95  216 1    
   190   96  217 1    
   191   96  218 1    
   192   96  219 1    
   193   97   98 2    
   194   97   99 am   BACKBONE|DICT|INTERRES
   195   99  100 1    
   196   99  220 1    
   197  100  101 1    
   198  100  102 1    
   199  100  221 1    
   200  101  222 1    
   201  101  223 1    
   202  101  224 1    
   203  102  103 2    
   204  102  104 am   BACKBONE|DICT|INTERRES
   205  104  105 1    
   206  104  225 1    
   207  105  106 1    
   208  105  107 1    
   209  105  226 1    
   210  106  227 1    
   211  106  228 1    
   212  106  229 1    
   213  107  108 2    
   214  107  109 am   BACKBONE|DICT|INTERRES
   215  109  110 1    
   216  109  230 1    
   217  110  111 1    
   218  110  112 1    
   219  110  231 1    
   220  111  232 1    
   221  111  233 1    
   222  111  234 1    
   223  112  113 2    
   224  112  114 am   BACKBONE|DICT|INTERRES
   225  114  115 1    
   226  114  235 1    
   227  115  116 1    
   228  115  117 1    
   229  115  236 1    
   230  116  237 1    
   231  116  238 1    
   232  116  239 1    
   233  117  118 2    
   234  117  119 am   BACKBONE|DICT|INTERRES
   235  119  120 1    
   236  119  240 1    
   237  120  121 1    
   238  120  124 1    
   239  120  241 1    
   240  121  122 am   BACKBONE|DICT|INTERRES
   241  121  123 2    
   242  122  242 1    
   243  122  243 1    
   244  124  125 1    
   245  124  244 1    
   246  124  245 1    
   247  125  126 1    
   248  126  246 1    
   249  126  247 1    
@<TRIPOS>SUBSTRUCTURE
     1 UNK         1 GROUP             0       ****    0 ROOT    
