@<TRIPOS>MOLECULE
3R540
247   249    1
SMALL
USER_CHARGES


@<TRIPOS>ATOM
      1 CA          9.6251  -14.0851  -47.0483 C.3       0 UNK        -0.1800 
      2 C           8.1463  -14.4101  -46.8948 C.2       0 UNK         0.5000 
      3 O           7.8007  -15.4413  -46.3163 O.2       0 UNK        -0.5000 
      4 N           7.2695  -13.5365  -47.4065 N.am      1 UNK        -0.5000 
      5 CA          5.8122  -13.6561  -47.3192 C.3       1 UNK         0.1400 
      6 C6          5.1086  -12.8865  -48.4722 C.3       23 UNK        -0.0398 
      7 S7          3.4221  -13.5155  -48.7938 S.3       23 UNK        -0.2404 
      8 C8          3.6200  -14.3007  -50.4271 C.3       23 UNK        -0.0205 
      9 C9          2.6149  -15.4244  -50.6392 C.ar      23 UNK        -0.0193 
     10 C10         1.2657  -15.1381  -50.8747 C.ar      23 UNK        -0.1150 
     11 C11         0.3457  -16.1746  -51.0629 C.ar      23 UNK        -0.0193 
     12 C12         0.7857  -17.4988  -51.0261 C.ar      23 UNK        -0.1150 
     13 C13         2.1259  -17.8007  -50.7786 C.ar      23 UNK        -0.0193 
     14 C14         3.0375  -16.7577  -50.5968 C.ar      23 UNK        -0.1150 
     15 C15         2.5847  -19.2504  -50.7054 C.3       23 UNK        -0.0205 
     16 S16         2.2248  -19.9981  -49.0819 S.3       23 UNK        -0.2404 
     17 C17         0.4157  -20.2065  -49.1844 C.3       23 UNK        -0.0398 
     18 CA         -0.1250  -21.2967  -48.2363 C.3       11 UNK         0.1400 
     19 N           0.0602  -20.9649  -46.8228 N.am      11 UNK        -0.5000 
     20 C          -0.1055  -21.8280  -45.8115 C.2       10 UNK         0.5000 
     21 O          -0.5202  -22.9785  -45.9628 O.2       10 UNK        -0.5000 
     22 CA          0.2344  -21.3169  -44.4023 C.3       10 UNK         0.1400 
     23 CB          1.7555  -21.3141  -44.1835 C.3       10 UNK        -0.1800 
     24 N          -0.2829  -19.9639  -44.2039 N.am      10 UNK        -0.5000 
     25 C          -1.4077  -19.6670  -43.5392 C.2       9 UNK         0.5000 
     26 O          -2.0842  -20.4990  -42.9338 O.2       9 UNK        -0.5000 
     27 CA         -1.8770  -18.1958  -43.5661 C.3       9 UNK         0.1400 
     28 CB         -1.3734  -17.4421  -42.3257 C.3       9 UNK        -0.1800 
     29 N          -1.4714  -17.4583  -44.7651 N.am      9 UNK        -0.5000 
     30 C          -1.8292  -17.7730  -46.0190 C.2       8 UNK         0.5000 
     31 O          -2.5725  -18.7105  -46.2964 O.2       8 UNK        -0.5000 
     32 CA         -1.2003  -16.9457  -47.1578 C.3       8 UNK         0.1400 
     33 CB         -2.0869  -15.7353  -47.4849 C.3       8 UNK        -0.1800 
     34 N           0.1599  -16.4738  -46.8789 N.am      8 UNK        -0.5000 
     35 C           1.1974  -17.2070  -46.4439 C.2       7 UNK         0.5000 
     36 O           1.1372  -18.4175  -46.2316 O.2       7 UNK        -0.5000 
     37 CA          2.4978  -16.4546  -46.1084 C.3       7 UNK         0.1400 
     38 CB          3.6371  -16.8230  -47.0642 C.3       7 UNK        -0.1800 
     39 N           2.3152  -14.9983  -46.0409 N.am      7 UNK        -0.5000 
     40 C           1.7540  -14.3772  -44.9959 C.2       6 UNK         0.5000 
     41 O           1.4943  -14.9564  -43.9351 O.2       6 UNK        -0.5000 
     42 CA          1.4066  -12.8891  -45.1593 C.3       6 UNK         0.1400 
     43 CB          0.2608  -12.6925  -46.1661 C.3       6 UNK        -0.1800 
     44 N           0.9933  -12.3907  -43.8547 N.am      6 UNK        -0.5000 
     45 C           1.2584  -11.1924  -43.3252 C.2       5 UNK         0.5000 
     46 O           1.7953  -10.2716  -43.9412 O.2       5 UNK        -0.5000 
     47 CA          0.8630  -10.9967  -41.8442 C.3       5 UNK         0.1400 
     48 CB         -0.4588  -10.2205  -41.7386 C.3       5 UNK        -0.1800 
     49 N           0.7300  -12.2639  -41.1135 N.am      5 UNK        -0.5000 
     50 C           1.7556  -13.0633  -40.7880 C.2       4 UNK         0.5000 
     51 O           2.9346  -12.7574  -40.9774 O.2       4 UNK        -0.5000 
     52 CA          1.4282  -14.4581  -40.2224 C.3       4 UNK         0.1400 
     53 CB         -0.0783  -14.7698  -40.1204 C.3       4 UNK        -0.1800 
     54 N           2.0531  -15.4144  -41.1263 N.am      4 UNK        -0.5000 
     55 C           2.9556  -16.3433  -40.7919 C.2       3 UNK         0.5000 
     56 O           3.2243  -16.6693  -39.6353 O.2       3 UNK        -0.5000 
     57 CA          3.7356  -16.9578  -41.9691 C.3       3 UNK         0.1400 
     58 CB          2.8906  -18.0209  -42.6907 C.3       3 UNK        -0.1800 
     59 N           4.1392  -15.8956  -42.9008 N.am      3 UNK        -0.5000 
     60 C           5.1912  -15.0939  -42.6822 C.2       2 UNK         0.5000 
     61 O           6.0785  -15.3501  -41.8663 O.2       2 UNK        -0.5000 
     62 CA          5.2531  -13.7928  -43.5009 C.3       2 UNK         0.1400 
     63 CB          6.2716  -12.7843  -42.9264 C.3       2 UNK        -0.1800 
     64 N           5.5584  -14.0762  -44.9024 N.am      2 UNK        -0.5000 
     65 C           5.3340  -13.2252  -45.9127 C.2       1 UNK         0.5000 
     66 O           4.8106  -12.1218  -45.7578 O.2       1 UNK        -0.5000 
     67 C          -1.5799  -21.6495  -48.6030 C.2       11 UNK         0.5000 
     68 O          -1.7709  -22.4026  -49.5560 O.2       11 UNK        -0.5000 
     69 N          -2.5826  -21.1341  -47.8767 N.am      12 UNK        -0.5000 
     70 CA         -3.9882  -21.4952  -48.0849 C.3       12 UNK         0.1400 
     71 CB         -4.9091  -20.5427  -47.3110 C.3       12 UNK        -0.1800 
     72 C          -4.2739  -22.9535  -47.6928 C.2       12 UNK         0.5000 
     73 O          -5.0267  -23.6311  -48.3922 O.2       12 UNK        -0.5000 
     74 N          -3.6397  -23.4232  -46.6091 N.am      13 UNK        -0.5000 
     75 CA         -3.7117  -24.8106  -46.1522 C.3       13 UNK         0.1400 
     76 CB         -3.1615  -24.9205  -44.7224 C.3       13 UNK        -0.1800 
     77 C          -2.9721  -25.7601  -47.1092 C.2       13 UNK         0.5000 
     78 O          -3.4961  -26.8288  -47.4250 O.2       13 UNK        -0.5000 
     79 N          -1.8023  -25.3261  -47.6042 N.am      14 UNK        -0.5000 
     80 CA         -1.0231  -26.0262  -48.6312 C.3       14 UNK         0.1400 
     81 CB          0.3233  -25.3151  -48.8292 C.3       14 UNK        -0.1800 
     82 C          -1.7771  -26.1477  -49.9715 C.2       14 UNK         0.5000 
     83 O          -1.6771  -27.1779  -50.6375 O.2       14 UNK        -0.5000 
     84 N          -2.5617  -25.1159  -50.3081 N.am      15 UNK        -0.5000 
     85 CA         -3.4691  -25.0596  -51.4540 C.3       15 UNK         0.1400 
     86 CB         -3.6331  -23.5917  -51.8849 C.3       15 UNK        -0.1800 
     87 C          -4.8361  -25.7307  -51.1948 C.2       15 UNK         0.5000 
     88 O          -5.7696  -25.4787  -51.9544 O.2       15 UNK        -0.5000 
     89 N          -4.9464  -26.5633  -50.1474 N.am      16 UNK        -0.5000 
     90 CA         -6.1092  -27.3824  -49.7859 C.3       16 UNK         0.1400 
     91 CB         -6.3389  -28.4857  -50.8406 C.3       16 UNK        -0.1800 
     92 C          -7.3720  -26.5422  -49.5063 C.2       16 UNK         0.5000 
     93 O          -8.4270  -26.7876  -50.0938 O.2       16 UNK        -0.5000 
     94 N          -7.2168  -25.5543  -48.6145 N.am      17 UNK        -0.5000 
     95 CA         -8.1986  -24.5319  -48.2386 C.3       17 UNK         0.1400 
     96 CB         -9.4797  -25.1511  -47.6393 C.3       17 UNK        -0.1800 
     97 C          -8.4618  -23.5483  -49.3959 C.2       17 UNK         0.5000 
     98 O          -9.6131  -23.2256  -49.6942 O.2       17 UNK        -0.5000 
     99 N          -7.3608  -23.0867  -50.0062 N.am      18 UNK        -0.5000 
    100 CA        -7.2777  -22.1015  -51.0866 C.3       18 UNK         0.1400 
    101 CB        -7.6551  -20.7012  -50.5585 C.3       18 UNK        -0.1800 
    102 C         -8.0632  -22.5084  -52.3528 C.2       18 UNK         0.5000 
    103 O         -8.8488  -21.7185  -52.8825 O.2       18 UNK        -0.5000 
    104 N         -7.8491  -23.7464  -52.8161 N.am      19 UNK        -0.5000 
    105 CA        -8.4676  -24.3062  -54.0144 C.3       19 UNK         0.1400 
    106 CB        -8.4319  -25.8423  -53.9306 C.3       19 UNK        -0.1800 
    107 C         -7.7705  -23.7751  -55.2817 C.2       19 UNK         0.5000 
    108 O         -6.7830  -24.3584  -55.7325 O.2       19 UNK        -0.5000 
    109 N         -8.2961  -22.6634  -55.8166 N.am      20 UNK        -0.5000 
    110 CA        -7.8699  -21.9714  -57.0425 C.3       20 UNK         0.1400 
    111 CB        -8.0680  -22.8722  -58.2803 C.3       20 UNK        -0.1800 
    112 C         -6.4530  -21.3568  -56.9724 C.2       20 UNK         0.5000 
    113 O         -5.8317  -21.1207  -58.0104 O.2       20 UNK        -0.5000 
    114 N         -5.9796  -21.0762  -55.7555 N.am      21 UNK        -0.5000 
    115 CA        -4.7124  -20.4270  -55.4392 C.3       21 UNK         0.1400 
    116 CB        -3.5547  -21.4350  -55.5574 C.3       21 UNK        -0.1800 
    117 C         -4.8202  -19.8801  -54.0108 C.2       21 UNK         0.5000 
    118 O         -5.6376  -20.3815  -53.2376 O.2       21 UNK        -0.5000 
    119 N         -3.9960  -18.8830  -53.6707 N.am      22 UNK        -0.5000 
    120 CA        -3.9628  -18.2668  -52.3309 C.3       22 UNK         0.1400 
    121 C         -3.2166  -19.0960  -51.2385 C.2       22 UNK         0.5000 
    122 N         -2.6846  -20.2727  -51.5506 N.am      22 UNK        -0.7600 
    123 O         -3.1383  -18.6740  -50.0892 O.2       22 UNK        -0.5000 
    124 C124       -3.5285  -16.7779  -52.3929 C.3       23 UNK        -0.0398 
    125 S125       -1.7745  -16.5127  -52.8341 S.3       23 UNK        -0.2404 
    126 C126       -1.1350  -15.8863  -51.2460 C.3       23 UNK        -0.0205 
    127 H127       10.0934  -13.9990  -46.0677 H         1 UNK         0.0600 
    128 H128        9.7814  -13.1482  -47.5836 H         1 UNK         0.0600 
    129 H129       10.1284  -14.8797  -47.5992 H         1 UNK         0.0600 
    130 H130        7.6147  -12.6925  -47.8416 H         1 UNK         0.3000 
    131 H131        5.5698  -14.7111  -47.4455 H         1 UNK         0.0600 
    132 H132        5.6919  -12.9805  -49.3890 H         1 UNK         0.0800 
    133 H133        5.0613  -11.8138  -48.2776 H         1 UNK         0.0800 
    134 H134        4.6334  -14.6920  -50.5290 H         1 UNK         0.0800 
    135 H135        3.5013  -13.5468  -51.2066 H         1 UNK         0.0800 
    136 H136        0.9337  -14.1095  -50.8938 H         1 UNK         0.1150 
    137 H137        0.0710  -18.2945  -51.1784 H         1 UNK         0.1150 
    138 H138        4.0769  -16.9861  -50.4067 H         1 UNK         0.1150 
    139 H139        2.1149  -19.8337  -51.4986 H         1 UNK         0.0800 
    140 H140        3.6593  -19.3107  -50.8840 H         1 UNK         0.0800 
    141 H141        0.1705  -20.4557  -50.2186 H         1 UNK         0.0800 
    142 H142       -0.0609  -19.2513  -48.9740 H         1 UNK         0.0800 
    143 H143        0.4598  -22.1994  -48.4198 H         1 UNK         0.0600 
    144 H144        0.4425  -20.0423  -46.6273 H         1 UNK         0.3000 
    145 H145       -0.2076  -22.0073  -43.6810 H         1 UNK         0.0600 
    146 H146        2.2627  -20.6268  -44.8621 H         1 UNK         0.0600 
    147 H147        2.0033  -21.0206  -43.1637 H         1 UNK         0.0600 
    148 H148        2.1753  -22.3075  -44.3466 H         1 UNK         0.0600 
    149 H149        0.1875  -19.2283  -44.7200 H         1 UNK         0.3000 
    150 H150       -2.9685  -18.2052  -43.5392 H         1 UNK         0.0600 
    151 H151       -1.6566  -17.9605  -41.4087 H         1 UNK         0.0600 
    152 H152       -1.8031  -16.4418  -42.2764 H         1 UNK         0.0600 
    153 H153       -0.2879  -17.3420  -42.3241 H         1 UNK         0.0600 
    154 H154       -0.8427  -16.6810  -44.6262 H         1 UNK         0.3000 
    155 H155       -1.1579  -17.5774  -48.0444 H         1 UNK         0.0600 
    156 H156       -2.2099  -15.0806  -46.6214 H         1 UNK         0.0600 
    157 H157       -3.0812  -16.0576  -47.7977 H         1 UNK         0.0600 
    158 H158       -1.6683  -15.1413  -48.2972 H         1 UNK         0.0600 
    159 H159        0.3201  -15.4904  -47.0287 H         1 UNK         0.3000 
    160 H160        2.8013  -16.8157  -45.1293 H         1 UNK         0.0600 
    161 H161        3.6559  -17.8944  -47.2687 H         1 UNK         0.0600 
    162 H162        4.6028  -16.5716  -46.6286 H         1 UNK         0.0600 
    163 H163        3.5465  -16.3097  -48.0163 H         1 UNK         0.0600 
    164 H164        2.5188  -14.4763  -46.8851 H         1 UNK         0.3000 
    165 H165        2.2923  -12.3557  -45.5027 H         1 UNK         0.0600 
    166 H166       -0.0069  -11.6392  -46.2516 H         1 UNK         0.0600 
    167 H167        0.5440  -13.0325  -47.1630 H         1 UNK         0.0600 
    168 H168       -0.6349  -13.2392  -45.8690 H         1 UNK         0.0600 
    169 H169        0.5980  -13.1019  -43.2548 H         1 UNK         0.3000 
    170 H170        1.6477  -10.4043  -41.3688 H         1 UNK         0.0600 
    171 H171       -0.3878   -9.2576  -42.2462 H         1 UNK         0.0600 
    172 H172       -1.2856  -10.7696  -42.1910 H         1 UNK         0.0600 
    173 H173       -0.7167  -10.0197  -40.6986 H         1 UNK         0.0600 
    174 H174       -0.2104  -12.5769  -40.9198 H         1 UNK         0.3000 
    175 H175        1.8710  -14.5162  -39.2262 H         1 UNK         0.0600 
    176 H176       -0.2385  -15.7812  -39.7461 H         1 UNK         0.0600 
    177 H177       -0.5770  -14.6967  -41.0873 H         1 UNK         0.0600 
    178 H178       -0.5773  -14.0909  -39.4280 H         1 UNK         0.0600 
    179 H179        1.9058  -15.2284  -42.1140 H         1 UNK         0.3000 
    180 H180        4.6242  -17.4519  -41.5704 H         1 UNK         0.0600 
    181 H181        1.9721  -17.6049  -43.1039 H         1 UNK         0.0600 
    182 H182        2.6025  -18.8163  -42.0024 H         1 UNK         0.0600 
    183 H183        3.4492  -18.4854  -43.5034 H         1 UNK         0.0600 
    184 H184        3.4418  -15.6064  -43.5736 H         1 UNK         0.3000 
    185 H185        4.2623  -13.3375  -43.4394 H         1 UNK         0.0600 
    186 H186        6.0804  -12.5976  -41.8688 H         1 UNK         0.0600 
    187 H187        7.2949  -13.1500  -43.0194 H         1 UNK         0.0600 
    188 H188        6.2135  -11.8216  -43.4338 H         1 UNK         0.0600 
    189 H189        6.0590  -14.9382  -45.0913 H         1 UNK         0.3000 
    190 H190       -2.3915  -20.4365  -47.1631 H         1 UNK         0.3000 
    191 H191       -4.2170  -21.3869  -49.1471 H         1 UNK         0.0600 
    192 H192       -4.6915  -20.5497  -46.2424 H         1 UNK         0.0600 
    193 H193       -5.9564  -20.8204  -47.4368 H         1 UNK         0.0600 
    194 H194       -4.8004  -19.5191  -47.6705 H         1 UNK         0.0600 
    195 H195       -2.9961  -22.8160  -46.1217 H         1 UNK         0.3000 
    196 H196       -4.7625  -25.1078  -46.1317 H         1 UNK         0.0600 
    197 H197       -3.2572  -25.9404  -44.3477 H         1 UNK         0.0600 
    198 H198       -3.7080  -24.2707  -44.0388 H         1 UNK         0.0600 
    199 H199       -2.1067  -24.6515  -44.6687 H         1 UNK         0.0600 
    200 H200       -1.4284  -24.4497  -47.2588 H         1 UNK         0.3000 
    201 H201       -0.8258  -27.0357  -48.2646 H         1 UNK         0.0600 
    202 H202        0.8486  -25.1836  -47.8829 H         1 UNK         0.0600 
    203 H203        0.1953  -24.3339  -49.2848 H         1 UNK         0.0600 
    204 H204        0.9731  -25.8944  -49.4861 H         1 UNK         0.0600 
    205 H205       -2.5265  -24.2801  -49.7349 H         1 UNK         0.3000 
    206 H206       -3.0135  -25.5982  -52.2870 H         1 UNK         0.0600 
    207 H207       -2.6711  -23.1571  -52.1556 H         1 UNK         0.0600 
    208 H208       -4.2841  -23.4959  -52.7548 H         1 UNK         0.0600 
    209 H209       -4.0595  -22.9876  -51.0847 H         1 UNK         0.0600 
    210 H210       -4.1446  -26.6653  -49.5380 H         1 UNK         0.3000 
    211 H211       -5.8558  -27.8762  -48.8466 H         1 UNK         0.0600 
    212 H212       -6.6285  -28.0708  -51.8068 H         1 UNK         0.0600 
    213 H213       -7.1313  -29.1661  -50.5269 H         1 UNK         0.0600 
    214 H214       -5.4389  -29.0825  -50.9884 H         1 UNK         0.0600 
    215 H215       -6.2796  -25.3823  -48.2710 H         1 UNK         0.3000 
    216 H216       -7.7290  -23.9446  -47.4480 H         1 UNK         0.0600 
    217 H217      -10.1233  -24.3765  -47.2210 H         1 UNK         0.0600 
    218 H218       -9.2426  -25.8459  -46.8338 H         1 UNK         0.0600 
    219 H219      -10.0655  -25.6878  -48.3857 H         1 UNK         0.0600 
    220 H220       -6.4702  -23.4222  -49.6507 H         1 UNK         0.3000 
    221 H221       -6.2286  -22.0691  -51.3775 H         1 UNK         0.0600 
    222 H222       -8.6959  -20.6558  -50.2370 H         1 UNK         0.0600 
    223 H223       -7.0280  -20.4177  -49.7137 H         1 UNK         0.0600 
    224 H224       -7.5181  -19.9417  -51.3288 H         1 UNK         0.0600 
    225 H225       -7.1539  -24.3372  -52.3629 H         1 UNK         0.3000 
    226 H226       -9.5178  -24.0075  -54.0430 H         1 UNK         0.0600 
    227 H227       -8.9400  -26.1996  -53.0345 H         1 UNK         0.0600 
    228 H228       -8.9309  -26.2898  -54.7907 H         1 UNK         0.0600 
    229 H229       -7.4118  -26.2268  -53.9080 H         1 UNK         0.0600 
    230 H230       -9.0615  -22.2264  -55.3192 H         1 UNK         0.3000 
    231 H231       -8.5478  -21.1237  -57.1511 H         1 UNK         0.0600 
    232 H232       -9.0791  -23.2778  -58.3158 H         1 UNK         0.0600 
    233 H233       -7.3694  -23.7093  -58.2887 H         1 UNK         0.0600 
    234 H234       -7.9141  -22.3111  -59.2027 H         1 UNK         0.0600 
    235 H235       -6.5539  -21.2647  -54.9424 H         1 UNK         0.3000 
    236 H236       -4.5524  -19.5915  -56.1237 H         1 UNK         0.0600 
    237 H237       -2.6021  -20.9736  -55.2950 H         1 UNK         0.0600 
    238 H238       -3.7007  -22.2913  -54.8980 H         1 UNK         0.0600 
    239 H239       -3.4601  -21.8125  -56.5756 H         1 UNK         0.0600 
    240 H240       -3.3260  -18.5297  -54.3388 H         1 UNK         0.3000 
    241 H241       -4.9952  -18.2453  -51.9757 H         1 UNK         0.0600 
    242 H242       -2.2684  -20.8503  -50.8347 H         1 UNK         0.3800 
    243 H243       -2.7520  -20.6180  -52.4925 H         1 UNK         0.3800 
    244 H244       -4.1386  -16.2536  -53.1294 H         1 UNK         0.0800 
    245 H245       -3.7512  -16.2876  -51.4439 H         1 UNK         0.0800 
    246 H246       -1.6663  -16.3634  -50.4222 H         1 UNK         0.0800 
    247 H247       -1.3412  -14.8175  -51.1728 H         1 UNK         0.0800 
@<TRIPOS>BOND
     1    1    2 1    
     2    1  127 1    
     3    1  128 1    
     4    1  129 1    
     5    2    3 2    
     6    2    4 am   BACKBONE|DICT|INTERRES
     7    4    5 1    
     8    4  130 1    
     9    5    6 1    
    10    5   65 1    
    11    5  131 1    
    12    6    7 1    
    13    6  132 1    
    14    6  133 1    
    15    7    8 1    
    16    8    9 1    
    17    8  134 1    
    18    8  135 1    
    19    9   10 ar   
    20    9   14 ar   
    21   10   11 ar   
    22   10  136 1    
    23   11   12 ar   
    24   11  126 1    
    25   12   13 ar   
    26   12  137 1    
    27   13   14 ar   
    28   13   15 1    
    29   14  138 1    
    30   15   16 1    
    31   15  139 1    
    32   15  140 1    
    33   16   17 1    
    34   17   18 1    
    35   17  141 1    
    36   17  142 1    
    37   18   19 1    
    38   18   67 1    
    39   18  143 1    
    40   19   20 am   BACKBONE|DICT|INTERRES
    41   19  144 1    
    42   20   21 2    
    43   20   22 1    
    44   22   23 1    
    45   22   24 1    
    46   22  145 1    
    47   23  146 1    
    48   23  147 1    
    49   23  148 1    
    50   24   25 am   BACKBONE|DICT|INTERRES
    51   24  149 1    
    52   25   26 2    
    53   25   27 1    
    54   27   28 1    
    55   27   29 1    
    56   27  150 1    
    57   28  151 1    
    58   28  152 1    
    59   28  153 1    
    60   29   30 am   BACKBONE|DICT|INTERRES
    61   29  154 1    
    62   30   31 2    
    63   30   32 1    
    64   32   33 1    
    65   32   34 1    
    66   32  155 1    
    67   33  156 1    
    68   33  157 1    
    69   33  158 1    
    70   34   35 am   BACKBONE|DICT|INTERRES
    71   34  159 1    
    72   35   36 2    
    73   35   37 1    
    74   37   38 1    
    75   37   39 1    
    76   37  160 1    
    77   38  161 1    
    78   38  162 1    
    79   38  163 1    
    80   39   40 am   BACKBONE|DICT|INTERRES
    81   39  164 1    
    82   40   41 2    
    83   40   42 1    
    84   42   43 1    
    85   42   44 1    
    86   42  165 1    
    87   43  166 1    
    88   43  167 1    
    89   43  168 1    
    90   44   45 am   BACKBONE|DICT|INTERRES
    91   44  169 1    
    92   45   46 2    
    93   45   47 1    
    94   47   48 1    
    95   47   49 1    
    96   47  170 1    
    97   48  171 1    
    98   48  172 1    
    99   48  173 1    
   100   49   50 am   BACKBONE|DICT|INTERRES
   101   49  174 1    
   102   50   51 2    
   103   50   52 1    
   104   52   53 1    
   105   52   54 1    
   106   52  175 1    
   107   53  176 1    
   108   53  177 1    
   109   53  178 1    
   110   54   55 am   BACKBONE|DICT|INTERRES
   111   54  179 1    
   112   55   56 2    
   113   55   57 1    
   114   57   58 1    
   115   57   59 1    
   116   57  180 1    
   117   58  181 1    
   118   58  182 1    
   119   58  183 1    
   120   59   60 am   BACKBONE|DICT|INTERRES
   121   59  184 1    
   122   60   61 2    
   123   60   62 1    
   124   62   63 1    
   125   62   64 1    
   126   62  185 1    
   127   63  186 1    
   128   63  187 1    
   129   63  188 1    
   130   64   65 am   BACKBONE|DICT|INTERRES
   131   64  189 1    
   132   65   66 2    
   133   67   68 2    
   134   67   69 am   BACKBONE|DICT|INTERRES
   135   69   70 1    
   136   69  190 1    
   137   70   71 1    
   138   70   72 1    
   139   70  191 1    
   140   71  192 1    
   141   71  193 1    
   142   71  194 1    
   143   72   73 2    
   144   72   74 am   BACKBONE|DICT|INTERRES
   145   74   75 1    
   146   74  195 1    
   147   75   76 1    
   148   75   77 1    
   149   75  196 1    
   150   76  197 1    
   151   76  198 1    
   152   76  199 1    
   153   77   78 2    
   154   77   79 am   BACKBONE|DICT|INTERRES
   155   79   80 1    
   156   79  200 1    
   157   80   81 1    
   158   80   82 1    
   159   80  201 1    
   160   81  202 1    
   161   81  203 1    
   162   81  204 1    
   163   82   83 2    
   164   82   84 am   BACKBONE|DICT|INTERRES
   165   84   85 1    
   166   84  205 1    
   167   85   86 1    
   168   85   87 1    
   169   85  206 1    
   170   86  207 1    
   171   86  208 1    
   172   86  209 1    
   173   87   88 2    
   174   87   89 am   BACKBONE|DICT|INTERRES
   175   89   90 1    
   176   89  210 1    
   177   90   91 1    
   178   90   92 1    
   179   90  211 1    
   180   91  212 1    
   181   91  213 1    
   182   91  214 1    
   183   92   93 2    
   184   92   94 am   BACKBONE|DICT|INTERRES
   185   94   95 1    
   186   94  215 1    
   187   95   96 1    
   188   95   97 1    
   189   95  216 1    
   190   96  217 1    
   191   96  218 1    
   192   96  219 1    
   193   97   98 2    
   194   97   99 am   BACKBONE|DICT|INTERRES
   195   99  100 1    
   196   99  220 1    
   197  100  101 1    
   198  100  102 1    
   199  100  221 1    
   200  101  222 1    
   201  101  223 1    
   202  101  224 1    
   203  102  103 2    
   204  102  104 am   BACKBONE|DICT|INTERRES
   205  104  105 1    
   206  104  225 1    
   207  105  106 1    
   208  105  107 1    
   209  105  226 1    
   210  106  227 1    
   211  106  228 1    
   212  106  229 1    
   213  107  108 2    
   214  107  109 am   BACKBONE|DICT|INTERRES
   215  109  110 1    
   216  109  230 1    
   217  110  111 1    
   218  110  112 1    
   219  110  231 1    
   220  111  232 1    
   221  111  233 1    
   222  111  234 1    
   223  112  113 2    
   224  112  114 am   BACKBONE|DICT|INTERRES
   225  114  115 1    
   226  114  235 1    
   227  115  116 1    
   228  115  117 1    
   229  115  236 1    
   230  116  237 1    
   231  116  238 1    
   232  116  239 1    
   233  117  118 2    
   234  117  119 am   BACKBONE|DICT|INTERRES
   235  119  120 1    
   236  119  240 1    
   237  120  121 1    
   238  120  124 1    
   239  120  241 1    
   240  121  122 am   BACKBONE|DICT|INTERRES
   241  121  123 2    
   242  122  242 1    
   243  122  243 1    
   244  124  125 1    
   245  124  244 1    
   246  124  245 1    
   247  125  126 1    
   248  126  246 1    
   249  126  247 1    
@<TRIPOS>SUBSTRUCTURE
     1 UNK         1 GROUP             0       ****    0 ROOT    
