@<TRIPOS>MOLECULE
3R540
247   249    1
SMALL
USER_CHARGES


@<TRIPOS>ATOM
      1 CA         -5.4307   -8.3259  -47.5542 C.3       0 UNK        -0.1800 
      2 C          -5.9584   -9.7591  -47.5143 C.2       0 UNK         0.5000 
      3 O          -7.0636   -9.9799  -47.0235 O.2       0 UNK        -0.5000 
      4 N          -5.2235  -10.7637  -48.0151 N.am      1 UNK        -0.5000 
      5 CA         -3.8741  -10.6780  -48.5925 C.3       1 UNK         0.1400 
      6 C6         -3.5520  -11.9441  -49.4257 C.3       23 UNK        -0.0398 
      7 S7         -2.2167  -11.6781  -50.6433 S.3       23 UNK        -0.2404 
      8 C8         -0.9608  -12.8725  -50.0853 C.3       23 UNK        -0.0205 
      9 C9         -1.2967  -14.2841  -50.5426 C.ar      23 UNK        -0.0193 
     10 C10        -0.9815  -14.6920  -51.8415 C.ar      23 UNK        -0.1150 
     11 C11        -1.2937  -15.9808  -52.2856 C.ar      23 UNK        -0.0193 
     12 C12        -1.9324  -16.8669  -51.4075 C.ar      23 UNK        -0.1150 
     13 C13        -2.2394  -16.4751  -50.1004 C.ar      23 UNK        -0.0193 
     14 C14        -1.9227  -15.1823  -49.6760 C.ar      23 UNK        -0.1150 
     15 C15        -2.9143  -17.4391  -49.1392 C.3       23 UNK        -0.0205 
     16 S16        -1.6897  -18.2223  -48.0458 S.3       23 UNK        -0.2404 
     17 C17        -2.7624  -19.1909  -46.9369 C.3       23 UNK        -0.0398 
     18 CA         -2.5832  -20.7203  -47.0962 C.3       11 UNK         0.1400 
     19 N          -1.2465  -21.1962  -46.7187 N.am      11 UNK        -0.5000 
     20 C          -0.8254  -22.4657  -46.8333 C.2       10 UNK         0.5000 
     21 O          -1.4994  -23.3663  -47.3294 O.2       10 UNK        -0.5000 
     22 CA          0.5461  -22.8133  -46.2289 C.3       10 UNK         0.1400 
     23 CB          1.6905  -22.4117  -47.1717 C.3       10 UNK        -0.1800 
     24 N           0.7352  -22.2134  -44.9073 N.am      10 UNK        -0.5000 
     25 C          -0.0095  -22.5100  -43.8313 C.2       9 UNK         0.5000 
     26 O          -0.8838  -23.3759  -43.8237 O.2       9 UNK        -0.5000 
     27 CA          0.2158  -21.6611  -42.5677 C.3       9 UNK         0.1400 
     28 CB          1.4066  -22.1831  -41.7501 C.3       9 UNK        -0.1800 
     29 N           0.4054  -20.2456  -42.8855 N.am      9 UNK        -0.5000 
     30 C          -0.5593  -19.4486  -43.3677 C.2       8 UNK         0.5000 
     31 O          -1.7230  -19.8122  -43.5384 O.2       8 UNK        -0.5000 
     32 CA         -0.1446  -18.0203  -43.7688 C.3       8 UNK         0.1400 
     33 CB         -0.2346  -17.0744  -42.5630 C.3       8 UNK        -0.1800 
     34 N           1.2012  -17.9516  -44.3418 N.am      8 UNK        -0.5000 
     35 C           1.5755  -18.5686  -45.4712 C.2       7 UNK         0.5000 
     36 O           0.8131  -19.2445  -46.1574 O.2       7 UNK        -0.5000 
     37 CA          3.0640  -18.4849  -45.8514 C.3       7 UNK         0.1400 
     38 CB          3.4077  -17.1214  -46.4706 C.3       7 UNK        -0.1800 
     39 N           3.9374  -18.7507  -44.7067 N.am      7 UNK        -0.5000 
     40 C           4.0045  -19.9180  -44.0524 C.2       6 UNK         0.5000 
     41 O           3.3647  -20.9137  -44.3900 O.2       6 UNK        -0.5000 
     42 CA          4.8751  -19.9874  -42.7799 C.3       6 UNK         0.1400 
     43 CB          6.3337  -20.3550  -43.1130 C.3       6 UNK        -0.1800 
     44 N           4.7800  -18.7932  -41.9262 N.am      6 UNK        -0.5000 
     45 C           5.2407  -17.5593  -42.1675 C.2       5 UNK         0.5000 
     46 O           5.9282  -17.2571  -43.1460 O.2       5 UNK        -0.5000 
     47 CA          4.8098  -16.4648  -41.1700 C.3       5 UNK         0.1400 
     48 CB          5.9085  -16.2245  -40.1240 C.3       5 UNK        -0.1800 
     49 N           4.5037  -15.2004  -41.8448 N.am      5 UNK        -0.5000 
     50 C           3.5975  -15.0527  -42.8215 C.2       4 UNK         0.5000 
     51 O           2.8387  -15.9561  -43.1827 O.2       4 UNK        -0.5000 
     52 CA          3.5795  -13.6820  -43.5292 C.3       4 UNK         0.1400 
     53 CB          4.9373  -13.3897  -44.1929 C.3       4 UNK        -0.1800 
     54 N           2.5479  -13.5979  -44.5632 N.am      4 UNK        -0.5000 
     55 C           1.2377  -13.4478  -44.3416 C.2       3 UNK         0.5000 
     56 O           0.7334  -13.3341  -43.2211 O.2       3 UNK        -0.5000 
     57 CA          0.3464  -13.4370  -45.6009 C.3       3 UNK         0.1400 
     58 CB         -0.0944  -14.8649  -45.9600 C.3       3 UNK        -0.1800 
     59 N          -0.8430  -12.5957  -45.4556 N.am      3 UNK        -0.5000 
     60 C          -0.8321  -11.2744  -45.2312 C.2       2 UNK         0.5000 
     61 O           0.1949  -10.5939  -45.1764 O.2       2 UNK        -0.5000 
     62 CA         -2.2194  -10.6166  -45.0791 C.3       2 UNK         0.1400 
     63 CB         -2.1470   -9.1230  -44.6963 C.3       2 UNK        -0.1800 
     64 N          -3.0579  -10.8049  -46.2697 N.am      2 UNK        -0.5000 
     65 C          -2.7896  -10.4022  -47.5236 C.2       1 UNK         0.5000 
     66 O          -1.7653   -9.8021  -47.8488 O.2       1 UNK        -0.5000 
     67 C          -3.6959  -21.4611  -46.3303 C.2       11 UNK         0.5000 
     68 O          -4.6570  -21.9072  -46.9568 O.2       11 UNK        -0.5000 
     69 N          -3.5379  -21.6024  -45.0065 N.am      12 UNK        -0.5000 
     70 CA         -4.4707  -22.3172  -44.1348 C.3       12 UNK         0.1400 
     71 CB         -4.0731  -22.1074  -42.6660 C.3       12 UNK        -0.1800 
     72 C          -4.5746  -23.8161  -44.4702 C.2       12 UNK         0.5000 
     73 O          -5.6863  -24.3382  -44.5565 O.2       12 UNK        -0.5000 
     74 N          -3.4246  -24.4691  -44.6901 N.am      13 UNK        -0.5000 
     75 CA         -3.3259  -25.8786  -45.0768 C.3       13 UNK         0.1400 
     76 CB         -1.8560  -26.3212  -45.0199 C.3       13 UNK        -0.1800 
     77 C          -3.9246  -26.1651  -46.4666 C.2       13 UNK         0.5000 
     78 O          -4.5909  -27.1852  -46.6459 O.2       13 UNK        -0.5000 
     79 N          -3.6939  -25.2496  -47.4154 N.am      14 UNK        -0.5000 
     80 CA         -4.2188  -25.3019  -48.7793 C.3       14 UNK         0.1400 
     81 CB         -3.4084  -24.3258  -49.6430 C.3       14 UNK        -0.1800 
     82 C          -5.7134  -24.9486  -48.8858 C.2       14 UNK         0.5000 
     83 O          -6.3104  -25.2068  -49.9299 O.2       14 UNK        -0.5000 
     84 N          -6.2715  -24.3081  -47.8476 N.am      15 UNK        -0.5000 
     85 CA         -7.5880  -23.6593  -47.8195 C.3       15 UNK         0.1400 
     86 CB         -8.7254  -24.6971  -47.9161 C.3       15 UNK        -0.1800 
     87 C          -7.6880  -22.5344  -48.8748 C.2       15 UNK         0.5000 
     88 O          -8.6988  -22.4095  -49.5678 O.2       15 UNK        -0.5000 
     89 N          -6.5998  -21.7575  -48.9819 N.am      16 UNK        -0.5000 
     90 CA         -6.3586  -20.6410  -49.9003 C.3       16 UNK         0.1400 
     91 CB         -7.3407  -19.4837  -49.6267 C.3       16 UNK        -0.1800 
     92 C          -6.2947  -21.0263  -51.3959 C.2       16 UNK         0.5000 
     93 O          -6.3697  -20.1377  -52.2462 O.2       16 UNK        -0.5000 
     94 N          -6.1267  -22.3202  -51.7094 N.am      17 UNK        -0.5000 
     95 CA         -5.9032  -22.8170  -53.0678 C.3       17 UNK         0.1400 
     96 CB         -6.1119  -24.3389  -53.1029 C.3       17 UNK        -0.1800 
     97 C          -4.4873  -22.4405  -53.5350 C.2       17 UNK         0.5000 
     98 O          -3.5164  -23.0125  -53.0348 O.2       17 UNK        -0.5000 
     99 N          -4.3971  -21.4703  -54.4558 N.am      18 UNK        -0.5000 
    100 CA        -3.1684  -20.8017  -54.9038 C.3       18 UNK         0.1400 
    101 CB        -3.5002  -19.8547  -56.0660 C.3       18 UNK        -0.1800 
    102 C         -2.0125  -21.7412  -55.2908 C.2       18 UNK         0.5000 
    103 O         -0.8652  -21.4644  -54.9420 O.2       18 UNK        -0.5000 
    104 N         -2.3422  -22.8603  -55.9491 N.am      19 UNK        -0.5000 
    105 CA        -1.4019  -23.8960  -56.3850 C.3       19 UNK         0.1400 
    106 CB        -2.1715  -24.9579  -57.1853 C.3       19 UNK        -0.1800 
    107 C         -0.6011  -24.5596  -55.2447 C.2       19 UNK         0.5000 
    108 O          0.5104  -25.0290  -55.4927 O.2       19 UNK        -0.5000 
    109 N         -1.1663  -24.5810  -54.0307 N.am      20 UNK        -0.5000 
    110 CA        -0.5200  -25.0896  -52.8213 C.3       20 UNK         0.1400 
    111 CB        -1.4469  -26.1211  -52.1593 C.3       20 UNK        -0.1800 
    112 C         -0.1672  -23.9555  -51.8419 C.2       20 UNK         0.5000 
    113 O          0.8393  -24.0609  -51.1404 O.2       20 UNK        -0.5000 
    114 N         -0.9916  -22.8998  -51.8019 N.am      21 UNK        -0.5000 
    115 CA        -0.8491  -21.7623  -50.8949 C.3       21 UNK         0.1400 
    116 CB        -2.1384  -20.9284  -50.9312 C.3       21 UNK        -0.1800 
    117 C          0.3584  -20.8613  -51.2064 C.2       21 UNK         0.5000 
    118 O          0.9845  -20.3558  -50.2747 O.2       21 UNK        -0.5000 
    119 N          0.6487  -20.6533  -52.4963 N.am      22 UNK        -0.5000 
    120 CA         1.6348  -19.6649  -52.9634 C.3       22 UNK         0.1400 
    121 C          2.3666  -20.0425  -54.2810 C.2       22 UNK         0.5000 
    122 N          1.8407  -20.9275  -55.1169 N.am      22 UNK        -0.7600 
    123 O          3.4567  -19.5388  -54.5389 O.2       22 UNK        -0.5000 
    124 C124        1.0442  -18.2281  -53.0072 C.3       23 UNK        -0.0398 
    125 S125       -0.4986  -18.1066  -53.9824 S.3       23 UNK        -0.2404 
    126 C126       -0.9653  -16.3624  -53.7288 C.3       23 UNK        -0.0205 
    127 H127       -5.1144   -8.0465  -48.5586 H         1 UNK         0.0600 
    128 H128       -4.5914   -8.2014  -46.8705 H         1 UNK         0.0600 
    129 H129       -6.2100   -7.6263  -47.2511 H         1 UNK         0.0600 
    130 H130       -5.6173  -11.6935  -47.9845 H         1 UNK         0.3000 
    131 H131       -3.8706   -9.8298  -49.2793 H         1 UNK         0.0600 
    132 H132       -4.4306  -12.2417  -50.0000 H         1 UNK         0.0800 
    133 H133       -3.3258  -12.7908  -48.7768 H         1 UNK         0.0800 
    134 H134       -0.8553  -12.8260  -48.9999 H         1 UNK         0.0800 
    135 H135        0.0071  -12.5805  -50.4953 H         1 UNK         0.0800 
    136 H136       -0.5029  -13.9934  -52.5138 H         1 UNK         0.1150 
    137 H137       -2.1892  -17.8632  -51.7371 H         1 UNK         0.1150 
    138 H138       -2.1660  -14.8797  -48.6681 H         1 UNK         0.1150 
    139 H139       -3.6479  -16.8995  -48.5381 H         1 UNK         0.0800 
    140 H140       -3.4655  -18.2044  -49.6872 H         1 UNK         0.0800 
    141 H141       -3.8001  -18.9066  -47.1217 H         1 UNK         0.0800 
    142 H142       -2.5495  -18.8856  -45.9124 H         1 UNK         0.0800 
    143 H143       -2.7199  -20.9671  -48.1492 H         1 UNK         0.0600 
    144 H144       -0.5960  -20.4975  -46.3661 H         1 UNK         0.3000 
    145 H145        0.5855  -23.8973  -46.1038 H         1 UNK         0.0600 
    146 H146        2.6600  -22.6847  -46.7551 H         1 UNK         0.0600 
    147 H147        1.5933  -22.9163  -48.1341 H         1 UNK         0.0600 
    148 H148        1.7015  -21.3407  -47.3705 H         1 UNK         0.0600 
    149 H149        1.4643  -21.5131  -44.8240 H         1 UNK         0.3000 
    150 H150       -0.6781  -21.7476  -41.9463 H         1 UNK         0.0600 
    151 H151        1.2370  -23.2144  -41.4384 H         1 UNK         0.0600 
    152 H152        1.5564  -21.5917  -40.8467 H         1 UNK         0.0600 
    153 H153        2.3336  -22.1667  -42.3217 H         1 UNK         0.0600 
    154 H154        1.3412  -19.8775  -42.8129 H         1 UNK         0.3000 
    155 H155       -0.8475  -17.6752  -44.5293 H         1 UNK         0.0600 
    156 H156        0.4783  -17.3470  -41.7839 H         1 UNK         0.0600 
    157 H157       -1.2319  -17.0949  -42.1217 H         1 UNK         0.0600 
    158 H158       -0.0297  -16.0444  -42.8543 H         1 UNK         0.0600 
    159 H159        1.8759  -17.3631  -43.8555 H         1 UNK         0.3000 
    160 H160        3.2558  -19.2535  -46.6032 H         1 UNK         0.0600 
    161 H161        3.2683  -16.3054  -45.7628 H         1 UNK         0.0600 
    162 H162        2.7748  -16.9172  -47.3353 H         1 UNK         0.0600 
    163 H163        4.4427  -17.0943  -46.8111 H         1 UNK         0.0600 
    164 H164        4.4996  -17.9810  -44.3594 H         1 UNK         0.3000 
    165 H165        4.4724  -20.8026  -42.1768 H         1 UNK         0.0600 
    166 H166        6.8017  -19.6274  -43.7762 H         1 UNK         0.0600 
    167 H167        6.9393  -20.4259  -42.2095 H         1 UNK         0.0600 
    168 H168        6.3817  -21.3228  -43.6135 H         1 UNK         0.0600 
    169 H169        4.2199  -18.9219  -41.0948 H         1 UNK         0.3000 
    170 H170        3.9031  -16.7917  -40.6569 H         1 UNK         0.0600 
    171 H171        6.8315  -15.8702  -40.5850 H         1 UNK         0.0600 
    172 H172        5.5964  -15.4862  -39.3850 H         1 UNK         0.0600 
    173 H173        6.1429  -17.1434  -39.5850 H         1 UNK         0.0600 
    174 H174        5.1072  -14.4228  -41.6225 H         1 UNK         0.3000 
    175 H175        3.3830  -12.9160  -42.7762 H         1 UNK         0.0600 
    176 H176        5.2035  -14.1608  -44.9174 H         1 UNK         0.0600 
    177 H177        4.9243  -12.4315  -44.7129 H         1 UNK         0.0600 
    178 H178        5.7411  -13.3404  -43.4577 H         1 UNK         0.0600 
    179 H179        2.8684  -13.7147  -45.5127 H         1 UNK         0.3000 
    180 H180        0.9305  -13.0369  -46.4325 H         1 UNK         0.0600 
    181 H181       -0.6288  -14.8881  -46.9084 H         1 UNK         0.0600 
    182 H182       -0.7474  -15.2868  -45.1959 H         1 UNK         0.0600 
    183 H183        0.7641  -15.5294  -46.0603 H         1 UNK         0.0600 
    184 H184       -1.7319  -13.0723  -45.4728 H         1 UNK         0.3000 
    185 H185       -2.7189  -11.1363  -44.2600 H         1 UNK         0.0600 
    186 H186       -3.1432   -8.7056  -44.5507 H         1 UNK         0.0600 
    187 H187       -1.5988   -8.9872  -43.7634 H         1 UNK         0.0600 
    188 H188       -1.6437   -8.5285  -45.4593 H         1 UNK         0.0600 
    189 H189       -3.9348  -11.2821  -46.1130 H         1 UNK         0.3000 
    190 H190       -2.7383  -21.1676  -44.5555 H         1 UNK         0.3000 
    191 H191       -5.4597  -21.8777  -44.2808 H         1 UNK         0.0600 
    192 H192       -4.7734  -22.6082  -41.9966 H         1 UNK         0.0600 
    193 H193       -4.0741  -21.0489  -42.4053 H         1 UNK         0.0600 
    194 H194       -3.0789  -22.5016  -42.4558 H         1 UNK         0.0600 
    195 H195       -2.5466  -23.9729  -44.5586 H         1 UNK         0.3000 
    196 H196       -3.8865  -26.4656  -44.3464 H         1 UNK         0.0600 
    197 H197       -1.2356  -25.7424  -45.7052 H         1 UNK         0.0600 
    198 H198       -1.4469  -26.2001  -44.0167 H         1 UNK         0.0600 
    199 H199       -1.7525  -27.3730  -45.2894 H         1 UNK         0.0600 
    200 H200       -3.0744  -24.4711  -47.2044 H         1 UNK         0.3000 
    201 H201       -4.0839  -26.3113  -49.1728 H         1 UNK         0.0600 
    202 H202       -3.7675  -24.3100  -50.6714 H         1 UNK         0.0600 
    203 H203       -3.4788  -23.3088  -49.2578 H         1 UNK         0.0600 
    204 H204       -2.3543  -24.6009  -49.6664 H         1 UNK         0.0600 
    205 H205       -5.6800  -24.1197  -47.0485 H         1 UNK         0.3000 
    206 H206       -7.6662  -23.1735  -46.8457 H         1 UNK         0.0600 
    207 H207       -8.6148  -25.4727  -47.1583 H         1 UNK         0.0600 
    208 H208       -9.6959  -24.2253  -47.7587 H         1 UNK         0.0600 
    209 H209       -8.7543  -25.1825  -48.8918 H         1 UNK         0.0600 
    210 H210       -5.8447  -21.9371  -48.3211 H         1 UNK         0.3000 
    211 H211       -5.3594  -20.2784  -49.6544 H         1 UNK         0.0600 
    212 H212       -7.0619  -18.5905  -50.1869 H         1 UNK         0.0600 
    213 H213       -7.3454  -19.2123  -48.5710 H         1 UNK         0.0600 
    214 H214       -8.3605  -19.7424  -49.9123 H         1 UNK         0.0600 
    215 H215       -6.0859  -23.0039  -50.9665 H         1 UNK         0.3000 
    216 H216       -6.6383  -22.3613  -53.7344 H         1 UNK         0.0600 
    217 H217       -5.3940  -24.8640  -52.4720 H         1 UNK         0.0600 
    218 H218       -5.9966  -24.7237  -54.1168 H         1 UNK         0.0600 
    219 H219       -7.1123  -24.6077  -52.7632 H         1 UNK         0.0600 
    220 H220       -5.2579  -21.0552  -54.7824 H         1 UNK         0.3000 
    221 H221       -2.8190  -20.1873  -54.0745 H         1 UNK         0.0600 
    222 H222       -4.2254  -19.0988  -55.7642 H         1 UNK         0.0600 
    223 H223       -3.9102  -20.3935  -56.9210 H         1 UNK         0.0600 
    224 H224       -2.6079  -19.3265  -56.4057 H         1 UNK         0.0600 
    225 H225       -3.3160  -23.0144  -56.1649 H         1 UNK         0.3000 
    226 H226       -0.6798  -23.4212  -57.0523 H         1 UNK         0.0600 
    227 H227       -2.9339  -25.4450  -56.5758 H         1 UNK         0.0600 
    228 H228       -2.6636  -24.5192  -58.0536 H         1 UNK         0.0600 
    229 H229       -1.4994  -25.7345  -57.5529 H         1 UNK         0.0600 
    230 H230       -2.0738  -24.1449  -53.9089 H         1 UNK         0.3000 
    231 H231        0.4151  -25.5968  -53.0670 H         1 UNK         0.0600 
    232 H232       -2.4463  -25.7188  -51.9971 H         1 UNK         0.0600 
    233 H233       -1.0559  -26.4445  -51.1937 H         1 UNK         0.0600 
    234 H234       -1.5479  -27.0091  -52.7833 H         1 UNK         0.0600 
    235 H235       -1.8360  -22.9139  -52.3678 H         1 UNK         0.3000 
    236 H236       -0.7235  -22.1523  -49.8829 H         1 UNK         0.0600 
    237 H237       -2.3227  -20.5200  -51.9226 H         1 UNK         0.0600 
    238 H238       -3.0098  -21.5148  -50.6451 H         1 UNK         0.0600 
    239 H239       -2.0688  -20.0850  -50.2479 H         1 UNK         0.0600 
    240 H240        0.0865  -21.0950  -53.2146 H         1 UNK         0.3000 
    241 H241        2.4410  -19.6466  -52.2272 H         1 UNK         0.0600 
    242 H242        2.3445  -21.1663  -55.9554 H         1 UNK         0.3800 
    243 H243        0.8818  -21.2498  -55.0021 H         1 UNK         0.3800 
    244 H244        1.7730  -17.5165  -53.3988 H         1 UNK         0.0800 
    245 H245        0.8294  -17.9010  -51.9890 H         1 UNK         0.0800 
    246 H246       -0.1578  -15.7362  -54.1115 H         1 UNK         0.0800 
    247 H247       -1.8391  -16.1477  -54.3449 H         1 UNK         0.0800 
@<TRIPOS>BOND
     1    1    2 1    
     2    1  127 1    
     3    1  128 1    
     4    1  129 1    
     5    2    3 2    
     6    2    4 am   BACKBONE|DICT|INTERRES
     7    4    5 1    
     8    4  130 1    
     9    5    6 1    
    10    5   65 1    
    11    5  131 1    
    12    6    7 1    
    13    6  132 1    
    14    6  133 1    
    15    7    8 1    
    16    8    9 1    
    17    8  134 1    
    18    8  135 1    
    19    9   10 ar   
    20    9   14 ar   
    21   10   11 ar   
    22   10  136 1    
    23   11   12 ar   
    24   11  126 1    
    25   12   13 ar   
    26   12  137 1    
    27   13   14 ar   
    28   13   15 1    
    29   14  138 1    
    30   15   16 1    
    31   15  139 1    
    32   15  140 1    
    33   16   17 1    
    34   17   18 1    
    35   17  141 1    
    36   17  142 1    
    37   18   19 1    
    38   18   67 1    
    39   18  143 1    
    40   19   20 am   BACKBONE|DICT|INTERRES
    41   19  144 1    
    42   20   21 2    
    43   20   22 1    
    44   22   23 1    
    45   22   24 1    
    46   22  145 1    
    47   23  146 1    
    48   23  147 1    
    49   23  148 1    
    50   24   25 am   BACKBONE|DICT|INTERRES
    51   24  149 1    
    52   25   26 2    
    53   25   27 1    
    54   27   28 1    
    55   27   29 1    
    56   27  150 1    
    57   28  151 1    
    58   28  152 1    
    59   28  153 1    
    60   29   30 am   BACKBONE|DICT|INTERRES
    61   29  154 1    
    62   30   31 2    
    63   30   32 1    
    64   32   33 1    
    65   32   34 1    
    66   32  155 1    
    67   33  156 1    
    68   33  157 1    
    69   33  158 1    
    70   34   35 am   BACKBONE|DICT|INTERRES
    71   34  159 1    
    72   35   36 2    
    73   35   37 1    
    74   37   38 1    
    75   37   39 1    
    76   37  160 1    
    77   38  161 1    
    78   38  162 1    
    79   38  163 1    
    80   39   40 am   BACKBONE|DICT|INTERRES
    81   39  164 1    
    82   40   41 2    
    83   40   42 1    
    84   42   43 1    
    85   42   44 1    
    86   42  165 1    
    87   43  166 1    
    88   43  167 1    
    89   43  168 1    
    90   44   45 am   BACKBONE|DICT|INTERRES
    91   44  169 1    
    92   45   46 2    
    93   45   47 1    
    94   47   48 1    
    95   47   49 1    
    96   47  170 1    
    97   48  171 1    
    98   48  172 1    
    99   48  173 1    
   100   49   50 am   BACKBONE|DICT|INTERRES
   101   49  174 1    
   102   50   51 2    
   103   50   52 1    
   104   52   53 1    
   105   52   54 1    
   106   52  175 1    
   107   53  176 1    
   108   53  177 1    
   109   53  178 1    
   110   54   55 am   BACKBONE|DICT|INTERRES
   111   54  179 1    
   112   55   56 2    
   113   55   57 1    
   114   57   58 1    
   115   57   59 1    
   116   57  180 1    
   117   58  181 1    
   118   58  182 1    
   119   58  183 1    
   120   59   60 am   BACKBONE|DICT|INTERRES
   121   59  184 1    
   122   60   61 2    
   123   60   62 1    
   124   62   63 1    
   125   62   64 1    
   126   62  185 1    
   127   63  186 1    
   128   63  187 1    
   129   63  188 1    
   130   64   65 am   BACKBONE|DICT|INTERRES
   131   64  189 1    
   132   65   66 2    
   133   67   68 2    
   134   67   69 am   BACKBONE|DICT|INTERRES
   135   69   70 1    
   136   69  190 1    
   137   70   71 1    
   138   70   72 1    
   139   70  191 1    
   140   71  192 1    
   141   71  193 1    
   142   71  194 1    
   143   72   73 2    
   144   72   74 am   BACKBONE|DICT|INTERRES
   145   74   75 1    
   146   74  195 1    
   147   75   76 1    
   148   75   77 1    
   149   75  196 1    
   150   76  197 1    
   151   76  198 1    
   152   76  199 1    
   153   77   78 2    
   154   77   79 am   BACKBONE|DICT|INTERRES
   155   79   80 1    
   156   79  200 1    
   157   80   81 1    
   158   80   82 1    
   159   80  201 1    
   160   81  202 1    
   161   81  203 1    
   162   81  204 1    
   163   82   83 2    
   164   82   84 am   BACKBONE|DICT|INTERRES
   165   84   85 1    
   166   84  205 1    
   167   85   86 1    
   168   85   87 1    
   169   85  206 1    
   170   86  207 1    
   171   86  208 1    
   172   86  209 1    
   173   87   88 2    
   174   87   89 am   BACKBONE|DICT|INTERRES
   175   89   90 1    
   176   89  210 1    
   177   90   91 1    
   178   90   92 1    
   179   90  211 1    
   180   91  212 1    
   181   91  213 1    
   182   91  214 1    
   183   92   93 2    
   184   92   94 am   BACKBONE|DICT|INTERRES
   185   94   95 1    
   186   94  215 1    
   187   95   96 1    
   188   95   97 1    
   189   95  216 1    
   190   96  217 1    
   191   96  218 1    
   192   96  219 1    
   193   97   98 2    
   194   97   99 am   BACKBONE|DICT|INTERRES
   195   99  100 1    
   196   99  220 1    
   197  100  101 1    
   198  100  102 1    
   199  100  221 1    
   200  101  222 1    
   201  101  223 1    
   202  101  224 1    
   203  102  103 2    
   204  102  104 am   BACKBONE|DICT|INTERRES
   205  104  105 1    
   206  104  225 1    
   207  105  106 1    
   208  105  107 1    
   209  105  226 1    
   210  106  227 1    
   211  106  228 1    
   212  106  229 1    
   213  107  108 2    
   214  107  109 am   BACKBONE|DICT|INTERRES
   215  109  110 1    
   216  109  230 1    
   217  110  111 1    
   218  110  112 1    
   219  110  231 1    
   220  111  232 1    
   221  111  233 1    
   222  111  234 1    
   223  112  113 2    
   224  112  114 am   BACKBONE|DICT|INTERRES
   225  114  115 1    
   226  114  235 1    
   227  115  116 1    
   228  115  117 1    
   229  115  236 1    
   230  116  237 1    
   231  116  238 1    
   232  116  239 1    
   233  117  118 2    
   234  117  119 am   BACKBONE|DICT|INTERRES
   235  119  120 1    
   236  119  240 1    
   237  120  121 1    
   238  120  124 1    
   239  120  241 1    
   240  121  122 am   BACKBONE|DICT|INTERRES
   241  121  123 2    
   242  122  242 1    
   243  122  243 1    
   244  124  125 1    
   245  124  244 1    
   246  124  245 1    
   247  125  126 1    
   248  126  246 1    
   249  126  247 1    
@<TRIPOS>SUBSTRUCTURE
     1 UNK         1 GROUP             0       ****    0 ROOT    
