@<TRIPOS>MOLECULE
3R540
247   249    1
SMALL
USER_CHARGES


@<TRIPOS>ATOM
      1 CA         -4.3536  -12.7478  -49.7047 C.3       0 UNK        -0.1800 
      2 C          -3.2547  -12.6213  -48.6603 C.2       0 UNK         0.5000 
      3 O          -2.6067  -11.5784  -48.5759 O.2       0 UNK        -0.5000 
      4 N          -3.0545  -13.6699  -47.8500 N.am      1 UNK        -0.5000 
      5 CA         -2.0055  -13.7706  -46.8231 C.3       1 UNK         0.1400 
      6 C6         -1.9268  -15.1839  -46.2004 C.3       23 UNK        -0.0398 
      7 S7         -1.6298  -16.4826  -47.4470 S.3       23 UNK        -0.2404 
      8 C8          0.1850  -16.4817  -47.4755 C.3       23 UNK        -0.0205 
      9 C9          0.7389  -17.5005  -48.4571 C.ar      23 UNK        -0.0193 
     10 C10         1.0083  -17.1382  -49.7806 C.ar      23 UNK        -0.1150 
     11 C11         1.5919  -18.0540  -50.6625 C.ar      23 UNK        -0.0193 
     12 C12         1.9192  -19.3338  -50.1995 C.ar      23 UNK        -0.1150 
     13 C13         1.6265  -19.7166  -48.8882 C.ar      23 UNK        -0.0193 
     14 C14         1.0247  -18.7983  -48.0278 C.ar      23 UNK        -0.1150 
     15 C15         1.9978  -21.1073  -48.3980 C.3       23 UNK        -0.0205 
     16 S16         0.9433  -22.3921  -49.1344 S.3       23 UNK        -0.2404 
     17 C17        -0.4593  -22.4965  -47.9724 C.3       23 UNK        -0.0398 
     18 CA         -0.3214  -23.7399  -47.0619 C.3       11 UNK         0.1400 
     19 N           0.5871  -23.4980  -45.9343 N.am      11 UNK        -0.5000 
     20 C           1.2038  -24.4595  -45.2334 C.2       10 UNK         0.5000 
     21 O           1.0354  -25.6630  -45.4301 O.2       10 UNK        -0.5000 
     22 CA          2.1312  -23.9899  -44.1012 C.3       10 UNK         0.1400 
     23 CB          3.4529  -23.4450  -44.6654 C.3       10 UNK        -0.1800 
     24 N           1.4822  -22.9659  -43.2824 N.am      10 UNK        -0.5000 
     25 C           0.5864  -23.2378  -42.3213 C.2       9 UNK         0.5000 
     26 O           0.2792  -24.3813  -41.9839 O.2       9 UNK        -0.5000 
     27 CA         -0.0997  -22.0441  -41.6245 C.3       9 UNK         0.1400 
     28 CB          0.6456  -21.6759  -40.3330 C.3       9 UNK        -0.1800 
     29 N          -0.2127  -20.8503  -42.4637 N.am      9 UNK        -0.5000 
     30 C          -0.9068  -20.7762  -43.6075 C.2       8 UNK         0.5000 
     31 O          -1.5646  -21.7064  -44.0669 O.2       8 UNK        -0.5000 
     32 CA         -0.8118  -19.4626  -44.4039 C.3       8 UNK         0.1400 
     33 CB         -1.9771  -18.5354  -44.0313 C.3       8 UNK        -0.1800 
     34 N           0.4500  -18.7346  -44.2357 N.am      8 UNK        -0.5000 
     35 C           1.6876  -19.2190  -44.4232 C.2       7 UNK         0.5000 
     36 O           1.9150  -20.3911  -44.7267 O.2       7 UNK        -0.5000 
     37 CA          2.8639  -18.2346  -44.2639 C.3       7 UNK         0.1400 
     38 CB          3.6554  -18.1102  -45.5758 C.3       7 UNK        -0.1800 
     39 N           2.4465  -16.8937  -43.8470 N.am      7 UNK        -0.5000 
     40 C           2.1389  -16.5183  -42.6000 C.2       6 UNK         0.5000 
     41 O           2.1700  -17.2899  -41.6404 O.2       6 UNK        -0.5000 
     42 CA          1.7192  -15.0416  -42.4059 C.3       6 UNK         0.1400 
     43 CB          1.7323  -14.6147  -40.9271 C.3       6 UNK        -0.1800 
     44 N           2.5451  -14.1025  -43.1730 N.am      6 UNK        -0.5000 
     45 C           2.4388  -13.8589  -44.4846 C.2       5 UNK         0.5000 
     46 O           1.6442  -14.4452  -45.2238 O.2       5 UNK        -0.5000 
     47 CA          3.4454  -12.8601  -45.0803 C.3       5 UNK         0.1400 
     48 CB          4.6675  -13.6090  -45.6344 C.3       5 UNK        -0.1800 
     49 N           2.8389  -12.0817  -46.1576 N.am      5 UNK        -0.5000 
     50 C           1.9674  -11.0829  -45.9725 C.2       4 UNK         0.5000 
     51 O           1.6724  -10.6378  -44.8602 O.2       4 UNK        -0.5000 
     52 CA          1.3450  -10.4571  -47.2342 C.3       4 UNK         0.1400 
     53 CB          1.2477  -11.4273  -48.4304 C.3       4 UNK        -0.1800 
     54 N           0.0156   -9.9449  -46.9150 N.am      4 UNK        -0.5000 
     55 C          -0.5196   -8.8166  -47.3978 C.2       3 UNK         0.5000 
     56 O           0.0752   -8.0669  -48.1746 O.2       3 UNK        -0.5000 
     57 CA         -1.9540   -8.4591  -46.9533 C.3       3 UNK         0.1400 
     58 CB         -2.8084   -7.9758  -48.1388 C.3       3 UNK        -0.1800 
     59 N          -2.6273   -9.6022  -46.3377 N.am      3 UNK        -0.5000 
     60 C          -2.9561   -9.7149  -45.0438 C.2       2 UNK         0.5000 
     61 O          -2.7654   -8.8285  -44.2105 O.2       2 UNK        -0.5000 
     62 CA         -3.6000  -11.0448  -44.5935 C.3       2 UNK         0.1400 
     63 CB         -5.1212  -10.8827  -44.4507 C.3       2 UNK        -0.1800 
     64 N          -3.3285  -12.1676  -45.4953 N.am      2 UNK        -0.5000 
     65 C          -2.1180  -12.6998  -45.7164 C.2       1 UNK         0.5000 
     66 O          -1.1052  -12.3393  -45.1199 O.2       1 UNK        -0.5000 
     67 C          -1.6911  -24.3099  -46.6336 C.2       11 UNK         0.5000 
     68 O          -2.4018  -24.8536  -47.4803 O.2       11 UNK        -0.5000 
     69 N          -2.0242  -24.2536  -45.3367 N.am      12 UNK        -0.5000 
     70 CA         -3.1811  -24.9133  -44.7243 C.3       12 UNK         0.1400 
     71 CB         -3.2464  -24.5491  -43.2341 C.3       12 UNK        -0.1800 
     72 C          -3.1849  -26.4459  -44.9029 C.2       12 UNK         0.5000 
     73 O          -4.2606  -27.0424  -44.9459 O.2       12 UNK        -0.5000 
     74 N          -1.9992  -27.0516  -45.0757 N.am      13 UNK        -0.5000 
     75 CA         -1.8248  -28.4626  -45.4364 C.3       13 UNK         0.1400 
     76 CB         -0.3389  -28.8307  -45.3142 C.3       13 UNK        -0.1800 
     77 C          -2.3495  -28.8027  -46.8489 C.2       13 UNK         0.5000 
     78 O          -2.6937  -29.9566  -47.1045 O.2       13 UNK        -0.5000 
     79 N          -2.4304  -27.7907  -47.7232 N.am      14 UNK        -0.5000 
     80 CA         -3.0291  -27.8461  -49.0565 C.3       14 UNK         0.1400 
     81 CB         -2.0577  -27.1909  -50.0561 C.3       14 UNK        -0.1800 
     82 C          -4.4082  -27.1523  -49.0702 C.2       14 UNK         0.5000 
     83 O          -4.8609  -26.7213  -50.1311 O.2       14 UNK        -0.5000 
     84 N          -5.0361  -27.0055  -47.8910 N.am      15 UNK        -0.5000 
     85 CA         -6.3296  -26.3552  -47.6390 C.3       15 UNK         0.1400 
     86 CB         -7.4745  -27.1797  -48.2633 C.3       15 UNK        -0.1800 
     87 C          -6.3735  -24.8690  -48.0601 C.2       15 UNK         0.5000 
     88 O          -7.4501  -24.3487  -48.3551 O.2       15 UNK        -0.5000 
     89 N          -5.1966  -24.2247  -48.1070 N.am      16 UNK        -0.5000 
     90 CA         -4.9304  -22.8690  -48.5970 C.3       16 UNK         0.1400 
     91 CB         -5.6613  -21.8077  -47.7507 C.3       16 UNK        -0.1800 
     92 C          -5.1617  -22.6841  -50.1130 C.2       16 UNK         0.5000 
     93 O          -5.1031  -21.5513  -50.5917 O.2       16 UNK        -0.5000 
     94 N          -5.3595  -23.7789  -50.8651 N.am      17 UNK        -0.5000 
     95 CA         -5.5285  -23.7552  -52.3213 C.3       17 UNK         0.1400 
     96 CB         -6.0270  -25.1238  -52.8070 C.3       17 UNK        -0.1800 
     97 C          -4.2329  -23.3569  -53.0504 C.2       17 UNK         0.5000 
     98 O          -4.2939  -22.7000  -54.0895 O.2       17 UNK        -0.5000 
     99 N          -3.0855  -23.7252  -52.4623 N.am      18 UNK        -0.5000 
    100 CA        -1.7557  -23.2985  -52.8909 C.3       18 UNK         0.1400 
    101 CB        -0.6926  -24.0962  -52.1204 C.3       18 UNK        -0.1800 
    102 C         -1.5593  -21.7828  -52.7085 C.2       18 UNK         0.5000 
    103 O         -1.1463  -21.1103  -53.6518 O.2       18 UNK        -0.5000 
    104 N         -1.9239  -21.2705  -51.5227 N.am      19 UNK        -0.5000 
    105 CA        -1.8701  -19.8478  -51.1748 C.3       19 UNK         0.1400 
    106 CB        -2.2109  -19.6544  -49.6906 C.3       19 UNK        -0.1800 
    107 C         -2.7842  -18.9814  -52.0568 C.2       19 UNK         0.5000 
    108 O         -2.3844  -17.8930  -52.4681 O.2       19 UNK        -0.5000 
    109 N         -3.9796  -19.4991  -52.3686 N.am      20 UNK        -0.5000 
    110 CA        -4.9519  -18.8705  -53.2624 C.3       20 UNK         0.1400 
    111 CB        -6.2648  -19.6667  -53.2160 C.3       20 UNK        -0.1800 
    112 C         -4.4587  -18.7227  -54.7166 C.2       20 UNK         0.5000 
    113 O         -4.9198  -17.8169  -55.4125 O.2       20 UNK        -0.5000 
    114 N         -3.5414  -19.5983  -55.1526 N.am      21 UNK        -0.5000 
    115 CA        -2.9365  -19.5530  -56.4817 C.3       21 UNK         0.1400 
    116 CB        -2.3908  -20.9400  -56.8571 C.3       21 UNK        -0.1800 
    117 C         -1.8423  -18.4750  -56.5817 C.2       21 UNK         0.5000 
    118 O         -1.8561  -17.6939  -57.5345 O.2       21 UNK        -0.5000 
    119 N         -0.9159  -18.4505  -55.6134 N.am      22 UNK        -0.5000 
    120 CA         0.1948  -17.4810  -55.5618 C.3       22 UNK         0.1400 
    121 C         -0.1776  -16.0874  -54.9816 C.2       22 UNK         0.5000 
    122 N         -1.2053  -15.9564  -54.1542 N.am      22 UNK        -0.7600 
    123 O          0.4732  -15.0975  -55.3055 O.2       22 UNK        -0.5000 
    124 C124        1.4695  -18.0634  -54.8959 C.3       23 UNK        -0.0398 
    125 S125        1.1712  -18.8521  -53.2805 S.3       23 UNK        -0.2404 
    126 C126        1.8811  -17.6575  -52.1060 C.3       23 UNK        -0.0205 
    127 H127       -3.9349  -12.6281  -50.7039 H         1 UNK         0.0600 
    128 H128       -5.1051  -11.9730  -49.5536 H         1 UNK         0.0600 
    129 H129       -4.8489  -13.7179  -49.6570 H         1 UNK         0.0600 
    130 H130       -3.6121  -14.5027  -47.9769 H         1 UNK         0.3000 
    131 H131       -1.0570  -13.5833  -47.3281 H         1 UNK         0.0600 
    132 H132       -2.8557  -15.4213  -45.6791 H         1 UNK         0.0800 
    133 H133       -1.1363  -15.2316  -45.4484 H         1 UNK         0.0800 
    134 H134        0.5614  -16.6929  -46.4739 H         1 UNK         0.0800 
    135 H135        0.5459  -15.4845  -47.7322 H         1 UNK         0.0800 
    136 H136        0.7724  -16.1389  -50.1186 H         1 UNK         0.1150 
    137 H137        2.3859  -20.0432  -50.8684 H         1 UNK         0.1150 
    138 H138        0.7995  -19.0868  -47.0151 H         1 UNK         0.1150 
    139 H139        3.0338  -21.3099  -48.6725 H         1 UNK         0.0800 
    140 H140        1.9584  -21.1685  -47.3101 H         1 UNK         0.0800 
    141 H141       -1.3587  -22.5550  -48.5870 H         1 UNK         0.0800 
    142 H142       -0.5492  -21.5810  -47.3858 H         1 UNK         0.0800 
    143 H143        0.1191  -24.5404  -47.6614 H         1 UNK         0.0600 
    144 H144        0.7662  -22.5348  -45.6889 H         1 UNK         0.3000 
    145 H145        2.3665  -24.8533  -43.4749 H         1 UNK         0.0600 
    146 H146        4.1201  -23.1247  -43.8652 H         1 UNK         0.0600 
    147 H147        3.9758  -24.2124  -45.2374 H         1 UNK         0.0600 
    148 H148        3.2957  -22.5947  -45.3296 H         1 UNK         0.0600 
    149 H149        1.6610  -21.9999  -43.5369 H         1 UNK         0.3000 
    150 H150       -1.1109  -22.3596  -41.3591 H         1 UNK         0.0600 
    151 H151        0.7275  -22.5377  -39.6692 H         1 UNK         0.0600 
    152 H152        0.1216  -20.8934  -39.7839 H         1 UNK         0.0600 
    153 H153        1.6568  -21.3226  -40.5394 H         1 UNK         0.0600 
    154 H154        0.3102  -20.0381  -42.1701 H         1 UNK         0.3000 
    155 H155       -0.9043  -19.7182  -45.4609 H         1 UNK         0.0600 
    156 H156       -1.9249  -18.2225  -42.9878 H         1 UNK         0.0600 
    157 H157       -2.9363  -19.0340  -44.1782 H         1 UNK         0.0600 
    158 H158       -1.9827  -17.6397  -44.6498 H         1 UNK         0.0600 
    159 H159        0.3709  -17.7626  -43.9800 H         1 UNK         0.3000 
    160 H160        3.5279  -18.6513  -43.5039 H         1 UNK         0.0600 
    161 H161        3.0630  -17.6427  -46.3624 H         1 UNK         0.0600 
    162 H162        3.9755  -19.0871  -45.9412 H         1 UNK         0.0600 
    163 H163        4.5533  -17.5082  -45.4354 H         1 UNK         0.0600 
    164 H164        2.3509  -16.1952  -44.5769 H         1 UNK         0.3000 
    165 H165        0.6896  -14.9605  -42.7611 H         1 UNK         0.0600 
    166 H166        1.3952  -13.5844  -40.8112 H         1 UNK         0.0600 
    167 H167        1.0654  -15.2387  -40.3306 H         1 UNK         0.0600 
    168 H168        2.7308  -14.6925  -40.4952 H         1 UNK         0.0600 
    169 H169        3.2594  -13.6182  -42.6484 H         1 UNK         0.3000 
    170 H170        3.7798  -12.1773  -44.2962 H         1 UNK         0.0600 
    171 H171        5.1619  -14.1850  -44.8509 H         1 UNK         0.0600 
    172 H172        4.3888  -14.3061  -46.4261 H         1 UNK         0.0600 
    173 H173        5.4043  -12.9160  -46.0409 H         1 UNK         0.0600 
    174 H174        3.0046  -12.4128  -47.0963 H         1 UNK         0.3000 
    175 H175        1.9977   -9.6277  -47.5137 H         1 UNK         0.0600 
    176 H176        0.7153  -12.3404  -48.1656 H         1 UNK         0.0600 
    177 H177        0.7191  -10.9688  -49.2664 H         1 UNK         0.0600 
    178 H178        2.2347  -11.7095  -48.7975 H         1 UNK         0.0600 
    179 H179       -0.4956  -10.4790  -46.2219 H         1 UNK         0.3000 
    180 H180       -1.8667   -7.6362  -46.2415 H         1 UNK         0.0600 
    181 H181       -3.8186   -7.7215  -47.8177 H         1 UNK         0.0600 
    182 H182       -2.8855   -8.7392  -48.9141 H         1 UNK         0.0600 
    183 H183       -2.3814   -7.0826  -48.5962 H         1 UNK         0.0600 
    184 H184       -2.7848  -10.3904  -46.9588 H         1 UNK         0.3000 
    185 H185       -3.1872  -11.2921  -43.6133 H         1 UNK         0.0600 
    186 H186       -5.5806  -11.7908  -44.0600 H         1 UNK         0.0600 
    187 H187       -5.3653  -10.0741  -43.7603 H         1 UNK         0.0600 
    188 H188       -5.5921  -10.6511  -45.4070 H         1 UNK         0.0600 
    189 H189       -4.1071  -12.5107  -46.0389 H         1 UNK         0.3000 
    190 H190       -1.4527  -23.6880  -44.7204 H         1 UNK         0.3000 
    191 H191       -4.0780  -24.5251  -45.2112 H         1 UNK         0.0600 
    192 H192       -4.1028  -25.0227  -42.7522 H         1 UNK         0.0600 
    193 H193       -3.3526  -23.4736  -43.0936 H         1 UNK         0.0600 
    194 H194       -2.3506  -24.8715  -42.7027 H         1 UNK         0.0600 
    195 H195       -1.1568  -26.4920  -45.0320 H         1 UNK         0.3000 
    196 H196       -2.3878  -29.0655  -44.7211 H         1 UNK         0.0600 
    197 H197        0.2736  -28.2664  -46.0185 H         1 UNK         0.0600 
    198 H198        0.0367  -28.6329  -44.3100 H         1 UNK         0.0600 
    199 H199       -0.1808  -29.8905  -45.5178 H         1 UNK         0.0600 
    200 H200       -2.1627  -26.8621  -47.4170 H         1 UNK         0.3000 
    201 H201       -3.1871  -28.8820  -49.3619 H         1 UNK         0.0600 
    202 H202       -1.9092  -26.1325  -49.8400 H         1 UNK         0.0600 
    203 H203       -2.4303  -27.2686  -51.0783 H         1 UNK         0.0600 
    204 H204       -1.0820  -27.6762  -50.0318 H         1 UNK         0.0600 
    205 H205       -4.5743  -27.3591  -47.0619 H         1 UNK         0.3000 
    206 H206       -6.4690  -26.3639  -46.5573 H         1 UNK         0.0600 
    207 H207       -7.4275  -28.2217  -47.9470 H         1 UNK         0.0600 
    208 H208       -8.4481  -26.7944  -47.9583 H         1 UNK         0.0600 
    209 H209       -7.4413  -27.1579  -49.3531 H         1 UNK         0.0600 
    210 H210       -4.3618  -24.7477  -47.8609 H         1 UNK         0.3000 
    211 H211       -3.8623  -22.7106  -48.4485 H         1 UNK         0.0600 
    212 H212       -5.3287  -20.8024  -48.0119 H         1 UNK         0.0600 
    213 H213       -5.4631  -21.9469  -46.6879 H         1 UNK         0.0600 
    214 H214       -6.7406  -21.8398  -47.9000 H         1 UNK         0.0600 
    215 H215       -5.3655  -24.6920  -50.4236 H         1 UNK         0.3000 
    216 H216       -6.2908  -23.0111  -52.5611 H         1 UNK         0.0600 
    217 H217       -5.2844  -25.9055  -52.6437 H         1 UNK         0.0600 
    218 H218       -6.2463  -25.1001  -53.8751 H         1 UNK         0.0600 
    219 H219       -6.9420  -25.4174  -52.2922 H         1 UNK         0.0600 
    220 H220       -3.1410  -24.2840  -51.6242 H         1 UNK         0.3000 
    221 H221       -1.6493  -23.5239  -53.9543 H         1 UNK         0.0600 
    222 H222       -0.7560  -25.1598  -52.3508 H         1 UNK         0.0600 
    223 H223       -0.8031  -23.9826  -51.0418 H         1 UNK         0.0600 
    224 H224        0.3129  -23.7655  -52.3843 H         1 UNK         0.0600 
    225 H225       -2.2953  -21.8928  -50.8242 H         1 UNK         0.3000 
    226 H226       -0.8466  -19.5064  -51.3267 H         1 UNK         0.0600 
    227 H227       -3.1791  -20.0808  -49.4304 H         1 UNK         0.0600 
    228 H228       -1.4543  -20.1058  -49.0532 H         1 UNK         0.0600 
    229 H229       -2.2425  -18.5943  -49.4392 H         1 UNK         0.0600 
    230 H230       -4.2609  -20.3710  -51.9305 H         1 UNK         0.3000 
    231 H231       -5.1491  -17.8667  -52.8810 H         1 UNK         0.0600 
    232 H232       -6.1293  -20.6843  -53.5824 H         1 UNK         0.0600 
    233 H233       -7.0303  -19.1949  -53.8332 H         1 UNK         0.0600 
    234 H234       -6.6563  -19.7253  -52.2002 H         1 UNK         0.0600 
    235 H235       -3.2029  -20.3112  -54.5194 H         1 UNK         0.3000 
    236 H236       -3.7158  -19.3050  -57.2058 H         1 UNK         0.0600 
    237 H237       -3.1691  -21.7007  -56.7918 H         1 UNK         0.0600 
    238 H238       -2.0159  -20.9438  -57.8811 H         1 UNK         0.0600 
    239 H239       -1.5696  -21.2468  -56.2102 H         1 UNK         0.0600 
    240 H240       -0.9637  -19.1205  -54.8548 H         1 UNK         0.3000 
    241 H241        0.4834  -17.2769  -56.5950 H         1 UNK         0.0600 
    242 H242       -1.4354  -15.0422  -53.8015 H         1 UNK         0.3800 
    243 H243       -1.6822  -16.7692  -53.7705 H         1 UNK         0.3800 
    244 H244        2.2507  -17.3065  -54.8045 H         1 UNK         0.0800 
    245 H245        1.8872  -18.8305  -55.5490 H         1 UNK         0.0800 
    246 H246        1.4749  -16.6677  -52.3204 H         1 UNK         0.0800 
    247 H247        2.9601  -17.5982  -52.2535 H         1 UNK         0.0800 
@<TRIPOS>BOND
     1    1    2 1    
     2    1  127 1    
     3    1  128 1    
     4    1  129 1    
     5    2    3 2    
     6    2    4 am   BACKBONE|DICT|INTERRES
     7    4    5 1    
     8    4  130 1    
     9    5    6 1    
    10    5   65 1    
    11    5  131 1    
    12    6    7 1    
    13    6  132 1    
    14    6  133 1    
    15    7    8 1    
    16    8    9 1    
    17    8  134 1    
    18    8  135 1    
    19    9   10 ar   
    20    9   14 ar   
    21   10   11 ar   
    22   10  136 1    
    23   11   12 ar   
    24   11  126 1    
    25   12   13 ar   
    26   12  137 1    
    27   13   14 ar   
    28   13   15 1    
    29   14  138 1    
    30   15   16 1    
    31   15  139 1    
    32   15  140 1    
    33   16   17 1    
    34   17   18 1    
    35   17  141 1    
    36   17  142 1    
    37   18   19 1    
    38   18   67 1    
    39   18  143 1    
    40   19   20 am   BACKBONE|DICT|INTERRES
    41   19  144 1    
    42   20   21 2    
    43   20   22 1    
    44   22   23 1    
    45   22   24 1    
    46   22  145 1    
    47   23  146 1    
    48   23  147 1    
    49   23  148 1    
    50   24   25 am   BACKBONE|DICT|INTERRES
    51   24  149 1    
    52   25   26 2    
    53   25   27 1    
    54   27   28 1    
    55   27   29 1    
    56   27  150 1    
    57   28  151 1    
    58   28  152 1    
    59   28  153 1    
    60   29   30 am   BACKBONE|DICT|INTERRES
    61   29  154 1    
    62   30   31 2    
    63   30   32 1    
    64   32   33 1    
    65   32   34 1    
    66   32  155 1    
    67   33  156 1    
    68   33  157 1    
    69   33  158 1    
    70   34   35 am   BACKBONE|DICT|INTERRES
    71   34  159 1    
    72   35   36 2    
    73   35   37 1    
    74   37   38 1    
    75   37   39 1    
    76   37  160 1    
    77   38  161 1    
    78   38  162 1    
    79   38  163 1    
    80   39   40 am   BACKBONE|DICT|INTERRES
    81   39  164 1    
    82   40   41 2    
    83   40   42 1    
    84   42   43 1    
    85   42   44 1    
    86   42  165 1    
    87   43  166 1    
    88   43  167 1    
    89   43  168 1    
    90   44   45 am   BACKBONE|DICT|INTERRES
    91   44  169 1    
    92   45   46 2    
    93   45   47 1    
    94   47   48 1    
    95   47   49 1    
    96   47  170 1    
    97   48  171 1    
    98   48  172 1    
    99   48  173 1    
   100   49   50 am   BACKBONE|DICT|INTERRES
   101   49  174 1    
   102   50   51 2    
   103   50   52 1    
   104   52   53 1    
   105   52   54 1    
   106   52  175 1    
   107   53  176 1    
   108   53  177 1    
   109   53  178 1    
   110   54   55 am   BACKBONE|DICT|INTERRES
   111   54  179 1    
   112   55   56 2    
   113   55   57 1    
   114   57   58 1    
   115   57   59 1    
   116   57  180 1    
   117   58  181 1    
   118   58  182 1    
   119   58  183 1    
   120   59   60 am   BACKBONE|DICT|INTERRES
   121   59  184 1    
   122   60   61 2    
   123   60   62 1    
   124   62   63 1    
   125   62   64 1    
   126   62  185 1    
   127   63  186 1    
   128   63  187 1    
   129   63  188 1    
   130   64   65 am   BACKBONE|DICT|INTERRES
   131   64  189 1    
   132   65   66 2    
   133   67   68 2    
   134   67   69 am   BACKBONE|DICT|INTERRES
   135   69   70 1    
   136   69  190 1    
   137   70   71 1    
   138   70   72 1    
   139   70  191 1    
   140   71  192 1    
   141   71  193 1    
   142   71  194 1    
   143   72   73 2    
   144   72   74 am   BACKBONE|DICT|INTERRES
   145   74   75 1    
   146   74  195 1    
   147   75   76 1    
   148   75   77 1    
   149   75  196 1    
   150   76  197 1    
   151   76  198 1    
   152   76  199 1    
   153   77   78 2    
   154   77   79 am   BACKBONE|DICT|INTERRES
   155   79   80 1    
   156   79  200 1    
   157   80   81 1    
   158   80   82 1    
   159   80  201 1    
   160   81  202 1    
   161   81  203 1    
   162   81  204 1    
   163   82   83 2    
   164   82   84 am   BACKBONE|DICT|INTERRES
   165   84   85 1    
   166   84  205 1    
   167   85   86 1    
   168   85   87 1    
   169   85  206 1    
   170   86  207 1    
   171   86  208 1    
   172   86  209 1    
   173   87   88 2    
   174   87   89 am   BACKBONE|DICT|INTERRES
   175   89   90 1    
   176   89  210 1    
   177   90   91 1    
   178   90   92 1    
   179   90  211 1    
   180   91  212 1    
   181   91  213 1    
   182   91  214 1    
   183   92   93 2    
   184   92   94 am   BACKBONE|DICT|INTERRES
   185   94   95 1    
   186   94  215 1    
   187   95   96 1    
   188   95   97 1    
   189   95  216 1    
   190   96  217 1    
   191   96  218 1    
   192   96  219 1    
   193   97   98 2    
   194   97   99 am   BACKBONE|DICT|INTERRES
   195   99  100 1    
   196   99  220 1    
   197  100  101 1    
   198  100  102 1    
   199  100  221 1    
   200  101  222 1    
   201  101  223 1    
   202  101  224 1    
   203  102  103 2    
   204  102  104 am   BACKBONE|DICT|INTERRES
   205  104  105 1    
   206  104  225 1    
   207  105  106 1    
   208  105  107 1    
   209  105  226 1    
   210  106  227 1    
   211  106  228 1    
   212  106  229 1    
   213  107  108 2    
   214  107  109 am   BACKBONE|DICT|INTERRES
   215  109  110 1    
   216  109  230 1    
   217  110  111 1    
   218  110  112 1    
   219  110  231 1    
   220  111  232 1    
   221  111  233 1    
   222  111  234 1    
   223  112  113 2    
   224  112  114 am   BACKBONE|DICT|INTERRES
   225  114  115 1    
   226  114  235 1    
   227  115  116 1    
   228  115  117 1    
   229  115  236 1    
   230  116  237 1    
   231  116  238 1    
   232  116  239 1    
   233  117  118 2    
   234  117  119 am   BACKBONE|DICT|INTERRES
   235  119  120 1    
   236  119  240 1    
   237  120  121 1    
   238  120  124 1    
   239  120  241 1    
   240  121  122 am   BACKBONE|DICT|INTERRES
   241  121  123 2    
   242  122  242 1    
   243  122  243 1    
   244  124  125 1    
   245  124  244 1    
   246  124  245 1    
   247  125  126 1    
   248  126  246 1    
   249  126  247 1    
@<TRIPOS>SUBSTRUCTURE
     1 UNK         1 GROUP             0       ****    0 ROOT    
