@<TRIPOS>MOLECULE
3R540
247   249    1
SMALL
USER_CHARGES


@<TRIPOS>ATOM
      1 CA          7.7357  -14.4408  -46.7579 C.3       0 UNK        -0.1800 
      2 C           6.2325  -14.5736  -46.9570 C.2       0 UNK         0.5000 
      3 O           5.5097  -14.8273  -45.9929 O.2       0 UNK        -0.5000 
      4 N           5.7649  -14.4049  -48.2021 N.am      1 UNK        -0.5000 
      5 CA          4.3612  -14.4851  -48.6210 C.3       1 UNK         0.1400 
      6 C6          4.2341  -14.3355  -50.1605 C.3       23 UNK        -0.0398 
      7 S7          2.5206  -14.4410  -50.7816 S.3       23 UNK        -0.2404 
      8 C8          2.3100  -16.2346  -50.9766 C.3       23 UNK        -0.0205 
      9 C9          0.8359  -16.5922  -50.9081 C.ar      23 UNK        -0.0193 
     10 C10         0.0467  -16.5681  -52.0609 C.ar      23 UNK        -0.1150 
     11 C11        -1.3199  -16.8530  -51.9892 C.ar      23 UNK        -0.0193 
     12 C12        -1.8948  -17.1675  -50.7546 C.ar      23 UNK        -0.1150 
     13 C13        -1.1106  -17.2087  -49.5967 C.ar      23 UNK        -0.0193 
     14 C14         0.2535  -16.9179  -49.6805 C.ar      23 UNK        -0.1150 
     15 C15        -1.7285  -17.5542  -48.2486 C.3       23 UNK        -0.0205 
     16 S16        -2.6051  -19.1496  -48.2601 S.3       23 UNK        -0.2404 
     17 C17        -1.2965  -20.2981  -48.8097 C.3       23 UNK        -0.0398 
     18 CA         -1.1461  -21.5517  -47.9214 C.3       11 UNK         0.1400 
     19 N          -0.7763  -21.2253  -46.5409 N.am      11 UNK        -0.5000 
     20 C          -0.3640  -22.1207  -45.6345 C.2       10 UNK         0.5000 
     21 O          -0.2344  -23.3204  -45.8814 O.2       10 UNK        -0.5000 
     22 CA         -0.0865  -21.6175  -44.2084 C.3       10 UNK         0.1400 
     23 CB          1.4129  -21.3261  -44.0456 C.3       10 UNK        -0.1800 
     24 N          -0.8627  -20.4461  -43.7838 N.am      10 UNK        -0.5000 
     25 C          -2.2003  -20.3329  -43.7898 C.2       9 UNK         0.5000 
     26 O          -2.9551  -21.1680  -44.2890 O.2       9 UNK        -0.5000 
     27 CA         -2.7984  -19.0821  -43.1210 C.3       9 UNK         0.1400 
     28 CB         -2.9655  -19.3110  -41.6111 C.3       9 UNK        -0.1800 
     29 N          -1.9779  -17.8910  -43.3386 N.am      9 UNK        -0.5000 
     30 C          -2.0842  -17.0835  -44.4022 C.2       8 UNK         0.5000 
     31 O          -2.9380  -17.2232  -45.2760 O.2       8 UNK        -0.5000 
     32 CA         -1.0725  -15.9244  -44.5217 C.3       8 UNK         0.1400 
     33 CB         -1.6649  -14.6225  -43.9628 C.3       8 UNK        -0.1800 
     34 N           0.1978  -16.1966  -43.8505 N.am      8 UNK        -0.5000 
     35 C           1.0933  -17.1075  -44.2542 C.2       7 UNK         0.5000 
     36 O           0.9801  -17.7708  -45.2847 O.2       7 UNK        -0.5000 
     37 CA          2.3018  -17.3341  -43.3284 C.3       7 UNK         0.1400 
     38 CB          3.4339  -16.3526  -43.6665 C.3       7 UNK        -0.1800 
     39 N           1.9544  -17.2143  -41.9094 N.am      7 UNK        -0.5000 
     40 C           1.1659  -18.0735  -41.2476 C.2       6 UNK         0.5000 
     41 O           0.6423  -19.0554  -41.7693 O.2       6 UNK        -0.5000 
     42 CA          0.8666  -17.7525  -39.7728 C.3       6 UNK         0.1400 
     43 CB          2.0609  -18.1208  -38.8799 C.3       6 UNK        -0.1800 
     44 N           0.5232  -16.3457  -39.5734 N.am      6 UNK        -0.5000 
     45 C          -0.5731  -15.7522  -40.0676 C.2       5 UNK         0.5000 
     46 O          -1.4530  -16.3479  -40.6876 O.2       5 UNK        -0.5000 
     47 CA         -0.6748  -14.2257  -39.8814 C.3       5 UNK         0.1400 
     48 CB         -1.4026  -13.8895  -38.5716 C.3       5 UNK        -0.1800 
     49 N           0.6272  -13.5497  -39.9014 N.am      5 UNK        -0.5000 
     50 C           1.4748  -13.5644  -40.9377 C.2       4 UNK         0.5000 
     51 O           1.2485  -14.1531  -42.0007 O.2       4 UNK        -0.5000 
     52 CA          2.8173  -12.8506  -40.7334 C.3       4 UNK         0.1400 
     53 CB          3.7540  -13.6786  -39.8368 C.3       4 UNK        -0.1800 
     54 N           3.4285  -12.6789  -42.0415 N.am      4 UNK        -0.5000 
     55 C           4.2140  -11.6728  -42.4326 C.2       3 UNK         0.5000 
     56 O           4.6120  -10.7826  -41.6800 O.2       3 UNK        -0.5000 
     57 CA          4.6173  -11.6518  -43.9215 C.3       3 UNK         0.1400 
     58 CB          6.0867  -12.0652  -44.0894 C.3       3 UNK        -0.1800 
     59 N           3.7810  -12.5093  -44.7700 N.am      3 UNK        -0.5000 
     60 C           2.5065  -12.2460  -45.1003 C.2       2 UNK         0.5000 
     61 O           1.9030  -11.2438  -44.7141 O.2       2 UNK        -0.5000 
     62 CA          1.7880  -13.2819  -45.9946 C.3       2 UNK         0.1400 
     63 CB          0.5946  -12.6888  -46.7705 C.3       2 UNK        -0.1800 
     64 N           2.6843  -14.0015  -46.9057 N.am      2 UNK        -0.5000 
     65 C           3.4894  -13.4743  -47.8416 C.2       1 UNK         0.5000 
     66 O           3.5925  -12.2689  -48.0793 O.2       1 UNK        -0.5000 
     67 C          -2.3606  -22.5016  -48.0325 C.2       11 UNK         0.5000 
     68 O          -2.4708  -23.2114  -49.0318 O.2       11 UNK        -0.5000 
     69 N          -3.2144  -22.5624  -46.9994 N.am      12 UNK        -0.5000 
     70 CA         -4.3068  -23.5338  -46.9021 C.3       12 UNK         0.1400 
     71 CB         -5.2191  -23.1591  -45.7259 C.3       12 UNK        -0.1800 
     72 C          -3.8116  -24.9879  -46.7676 C.2       12 UNK         0.5000 
     73 O          -4.5375  -25.9049  -47.1482 O.2       12 UNK        -0.5000 
     74 N          -2.5869  -25.1725  -46.2570 N.am      13 UNK        -0.5000 
     75 CA         -1.8984  -26.4576  -46.2017 C.3       13 UNK         0.1400 
     76 CB         -1.1651  -26.5883  -44.8569 C.3       13 UNK        -0.1800 
     77 C          -0.9183  -26.5895  -47.3778 C.2       13 UNK         0.5000 
     78 O          -0.9617  -27.5907  -48.0918 O.2       13 UNK        -0.5000 
     79 N          -0.0589  -25.5770  -47.5655 N.am      14 UNK        -0.5000 
     80 CA          1.0583  -25.5977  -48.5129 C.3       14 UNK         0.1400 
     81 CB          2.0106  -24.4319  -48.2063 C.3       14 UNK        -0.1800 
     82 C           0.6361  -25.5847  -49.9933 C.2       14 UNK         0.5000 
     83 O           1.2897  -26.2409  -50.8051 O.2       14 UNK        -0.5000 
     84 N          -0.4451  -24.8627  -50.3173 N.am      15 UNK        -0.5000 
     85 CA         -1.0426  -24.8152  -51.6556 C.3       15 UNK         0.1400 
     86 CB         -1.2353  -23.3469  -52.0774 C.3       15 UNK        -0.1800 
     87 C          -2.3722  -25.5930  -51.7069 C.2       15 UNK         0.5000 
     88 O          -3.0381  -25.5773  -52.7400 O.2       15 UNK        -0.5000 
     89 N          -2.7499  -26.2435  -50.5963 N.am      16 UNK        -0.5000 
     90 CA         -3.9151  -27.1108  -50.3713 C.3       16 UNK         0.1400 
     91 CB         -3.8682  -28.3381  -51.3017 C.3       16 UNK        -0.1800 
     92 C          -5.2997  -26.4289  -50.4325 C.2       16 UNK         0.5000 
     93 O          -6.2431  -26.9623  -49.8467 O.2       16 UNK        -0.5000 
     94 N          -5.4186  -25.2887  -51.1230 N.am      17 UNK        -0.5000 
     95 CA         -6.6700  -24.5478  -51.2987 C.3       17 UNK         0.1400 
     96 CB         -7.3214  -24.9507  -52.6343 C.3       17 UNK        -0.1800 
     97 C          -6.4859  -23.0241  -51.1777 C.2       17 UNK         0.5000 
     98 O          -7.4168  -22.2846  -51.5012 O.2       17 UNK        -0.5000 
     99 N          -5.3140  -22.5685  -50.7054 N.am      18 UNK        -0.5000 
    100 CA        -4.9635  -21.1621  -50.4736 C.3       18 UNK         0.1400 
    101 CB        -5.7279  -20.6248  -49.2403 C.3       18 UNK        -0.1800 
    102 C         -5.1346  -20.2978  -51.7424 C.2       18 UNK         0.5000 
    103 O         -4.5855  -20.6452  -52.7885 O.2       18 UNK        -0.5000 
    104 N         -5.9178  -19.2147  -51.6517 N.am      19 UNK        -0.5000 
    105 CA        -6.2103  -18.2885  -52.7467 C.3       19 UNK         0.1400 
    106 CB        -7.0409  -17.1166  -52.2051 C.3       19 UNK        -0.1800 
    107 C         -6.9108  -18.9351  -53.9587 C.2       19 UNK         0.5000 
    108 O         -6.7406  -18.4478  -55.0770 O.2       19 UNK        -0.5000 
    109 N         -7.6483  -20.0342  -53.7403 N.am      20 UNK        -0.5000 
    110 CA        -8.2861  -20.8060  -54.8092 C.3       20 UNK         0.1400 
    111 CB        -9.3908  -21.6959  -54.2217 C.3       20 UNK        -0.1800 
    112 C         -7.2800  -21.6369  -55.6303 C.2       20 UNK         0.5000 
    113 O         -7.5743  -21.9577  -56.7824 O.2       20 UNK        -0.5000 
    114 N         -6.1106  -21.9485  -55.0503 N.am      21 UNK        -0.5000 
    115 CA        -4.9837  -22.5454  -55.7676 C.3       21 UNK         0.1400 
    116 CB        -4.0908  -23.3231  -54.7919 C.3       21 UNK        -0.1800 
    117 C         -4.1729  -21.4759  -56.5199 C.2       21 UNK         0.5000 
    118 O         -3.6972  -21.7483  -57.6231 O.2       21 UNK        -0.5000 
    119 N         -4.0451  -20.2806  -55.9253 N.am      22 UNK        -0.5000 
    120 CA        -3.4261  -19.1005  -56.5519 C.3       22 UNK         0.1400 
    121 C         -4.2166  -18.5816  -57.7857 C.2       22 UNK         0.5000 
    122 N         -5.5345  -18.4498  -57.6954 N.am      22 UNK        -0.7600 
    123 O         -3.6314  -18.2960  -58.8268 O.2       22 UNK        -0.5000 
    124 C124       -3.2042  -17.9396  -55.5512 C.3       23 UNK        -0.0398 
    125 S125       -2.1922  -18.3970  -54.1076 S.3       23 UNK        -0.2404 
    126 C126       -2.1763  -16.7986  -53.2423 C.3       23 UNK        -0.0205 
    127 H127        8.2478  -14.1883  -47.6866 H         1 UNK         0.0600 
    128 H128        7.9529  -13.6618  -46.0277 H         1 UNK         0.0600 
    129 H129        8.1470  -15.3793  -46.3867 H         1 UNK         0.0600 
    130 H130        6.4208  -14.1741  -48.9345 H         1 UNK         0.3000 
    131 H131        4.0204  -15.4909  -48.3666 H         1 UNK         0.0600 
    132 H132        4.8351  -15.0949  -50.6627 H         1 UNK         0.0800 
    133 H133        4.6416  -13.3740  -50.4777 H         1 UNK         0.0800 
    134 H134        2.8560  -16.7662  -50.1959 H         1 UNK         0.0800 
    135 H135        2.7387  -16.5529  -51.9282 H         1 UNK         0.0800 
    136 H136        0.4932  -16.3126  -53.0117 H         1 UNK         0.1150 
    137 H137       -2.9516  -17.3876  -50.6945 H         1 UNK         0.1150 
    138 H138        0.8625  -16.9326  -48.7872 H         1 UNK         0.1150 
    139 H139       -0.9686  -17.5811  -47.4659 H         1 UNK         0.0800 
    140 H140       -2.4309  -16.7676  -47.9708 H         1 UNK         0.0800 
    141 H141       -0.3410  -19.7730  -48.8340 H         1 UNK         0.0800 
    142 H142       -1.4962  -20.5807  -49.8449 H         1 UNK         0.0800 
    143 H143       -0.3073  -22.1126  -48.3347 H         1 UNK         0.0600 
    144 H144       -0.8864  -20.2624  -46.2557 H         1 UNK         0.3000 
    145 H145       -0.3475  -22.4331  -43.5316 H         1 UNK         0.0600 
    146 H146        1.6709  -21.1447  -43.0027 H         1 UNK         0.0600 
    147 H147        2.0172  -22.1705  -44.3805 H         1 UNK         0.0600 
    148 H148        1.7163  -20.4545  -44.6263 H         1 UNK         0.0600 
    149 H149       -0.3347  -19.7369  -43.2845 H         1 UNK         0.3000 
    150 H150       -3.7920  -18.9213  -43.5448 H         1 UNK         0.0600 
    151 H151       -3.5888  -20.1842  -41.4147 H         1 UNK         0.0600 
    152 H152       -3.4444  -18.4551  -41.1351 H         1 UNK         0.0600 
    153 H153       -2.0069  -19.4728  -41.1170 H         1 UNK         0.0600 
    154 H154       -1.2877  -17.6765  -42.6310 H         1 UNK         0.3000 
    155 H155       -0.8664  -15.7737  -45.5835 H         1 UNK         0.0600 
    156 H156       -1.9254  -14.7214  -42.9091 H         1 UNK         0.0600 
    157 H157       -2.5726  -14.3457  -44.5003 H         1 UNK         0.0600 
    158 H158       -0.9634  -13.7934  -44.0580 H         1 UNK         0.0600 
    159 H159        0.4039  -15.6508  -43.0196 H         1 UNK         0.3000 
    160 H160        2.6680  -18.3482  -43.5015 H         1 UNK         0.0600 
    161 H161        4.3092  -16.5250  -43.0401 H         1 UNK         0.0600 
    162 H162        3.1273  -15.3156  -43.5364 H         1 UNK         0.0600 
    163 H163        3.7506  -16.4718  -44.7031 H         1 UNK         0.0600 
    164 H164        2.2966  -16.3978  -41.4262 H         1 UNK         0.3000 
    165 H165        0.0109  -18.3580  -39.4662 H         1 UNK         0.0600 
    166 H166        1.8254  -17.9707  -37.8261 H         1 UNK         0.0600 
    167 H167        2.3315  -19.1702  -39.0048 H         1 UNK         0.0600 
    168 H168        2.9429  -17.5238  -39.1149 H         1 UNK         0.0600 
    169 H169        1.1884  -15.7789  -39.0692 H         1 UNK         0.3000 
    170 H170       -1.2656  -13.8319  -40.7107 H         1 UNK         0.0600 
    171 H171       -2.3851  -14.3625  -38.5388 H         1 UNK         0.0600 
    172 H172       -0.8437  -14.2325  -37.7000 H         1 UNK         0.0600 
    173 H173       -1.5577  -12.8151  -38.4707 H         1 UNK         0.0600 
    174 H174        0.8862  -13.0503  -39.0626 H         1 UNK         0.3000 
    175 H175        2.6265  -11.8759  -40.2796 H         1 UNK         0.0600 
    176 H176        3.9476  -14.6654  -40.2596 H         1 UNK         0.0600 
    177 H177        4.7141  -13.1793  -39.7054 H         1 UNK         0.0600 
    178 H178        3.3271  -13.8221  -38.8437 H         1 UNK         0.0600 
    179 H179        3.0862  -13.3245  -42.7402 H         1 UNK         0.3000 
    180 H180        4.5135  -10.6221  -44.2696 H         1 UNK         0.0600 
    181 H181        6.2480  -13.1042  -43.7991 H         1 UNK         0.0600 
    182 H182        6.7427  -11.4461  -43.4760 H         1 UNK         0.0600 
    183 H183        6.4083  -11.9489  -45.1241 H         1 UNK         0.0600 
    184 H184        4.2222  -13.3423  -45.1454 H         1 UNK         0.3000 
    185 H185        1.3897  -14.0308  -45.3097 H         1 UNK         0.0600 
    186 H186       -0.1472  -12.2685  -46.0905 H         1 UNK         0.0600 
    187 H187        0.9084  -11.8932  -47.4467 H         1 UNK         0.0600 
    188 H188        0.0917  -13.4536  -47.3627 H         1 UNK         0.0600 
    189 H189        2.7219  -15.0014  -46.7679 H         1 UNK         0.3000 
    190 H190       -3.0624  -21.9666  -46.1913 H         1 UNK         0.3000 
    191 H191       -4.8944  -23.4769  -47.8205 H         1 UNK         0.0600 
    192 H192       -4.6935  -23.2277  -44.7728 H         1 UNK         0.0600 
    193 H193       -6.0815  -23.8248  -45.6738 H         1 UNK         0.0600 
    194 H194       -5.5979  -22.1420  -45.8277 H         1 UNK         0.0600 
    195 H195       -2.0411  -24.3605  -45.9954 H         1 UNK         0.3000 
    196 H196       -2.6164  -27.2778  -46.2685 H         1 UNK         0.0600 
    197 H197       -0.6370  -27.5404  -44.7921 H         1 UNK         0.0600 
    198 H198       -1.8669  -26.5490  -44.0237 H         1 UNK         0.0600 
    199 H199       -0.4310  -25.7953  -44.7106 H         1 UNK         0.0600 
    200 H200       -0.0928  -24.7826  -46.9296 H         1 UNK         0.3000 
    201 H201        1.6091  -26.5255  -48.3441 H         1 UNK         0.0600 
    202 H202        2.3658  -24.4730  -47.1764 H         1 UNK         0.0600 
    203 H203        1.5313  -23.4656  -48.3552 H         1 UNK         0.0600 
    204 H204        2.8877  -24.4646  -48.8538 H         1 UNK         0.0600 
    205 H205       -0.9484  -24.3523  -49.5993 H         1 UNK         0.3000 
    206 H206       -0.3786  -25.2816  -52.3856 H         1 UNK         0.0600 
    207 H207       -0.3245  -22.7675  -51.9267 H         1 UNK         0.0600 
    208 H208       -1.4848  -23.2817  -53.1366 H         1 UNK         0.0600 
    209 H209       -2.0393  -22.8589  -51.5275 H         1 UNK         0.0600 
    210 H210       -2.1210  -26.1802  -49.8086 H         1 UNK         0.3000 
    211 H211       -3.8057  -27.4758  -49.3488 H         1 UNK         0.0600 
    212 H212       -3.9949  -28.0606  -52.3484 H         1 UNK         0.0600 
    213 H213       -4.6618  -29.0444  -51.0552 H         1 UNK         0.0600 
    214 H214       -2.9209  -28.8689  -51.2060 H         1 UNK         0.0600 
    215 H215       -4.6188  -24.9872  -51.6693 H         1 UNK         0.3000 
    216 H216       -7.3626  -24.8122  -50.4974 H         1 UNK         0.0600 
    217 H217       -8.3283  -24.5419  -52.7157 H         1 UNK         0.0600 
    218 H218       -7.4103  -26.0336  -52.7213 H         1 UNK         0.0600 
    219 H219       -6.7503  -24.5911  -53.4893 H         1 UNK         0.0600 
    220 H220       -4.5998  -23.2392  -50.4594 H         1 UNK         0.3000 
    221 H221       -3.8987  -21.1403  -50.2457 H         1 UNK         0.0600 
    222 H222       -6.8091  -20.6553  -49.3789 H         1 UNK         0.0600 
    223 H223       -5.4958  -21.2104  -48.3524 H         1 UNK         0.0600 
    224 H224       -5.4514  -19.5948  -49.0138 H         1 UNK         0.0600 
    225 H225       -6.3578  -19.0161  -50.7652 H         1 UNK         0.3000 
    226 H226       -5.2564  -17.8932  -53.0979 H         1 UNK         0.0600 
    227 H227       -7.9975  -17.4537  -51.8038 H         1 UNK         0.0600 
    228 H228       -6.5097  -16.5890  -51.4126 H         1 UNK         0.0600 
    229 H229       -7.2519  -16.3906  -52.9915 H         1 UNK         0.0600 
    230 H230       -7.7065  -20.4176  -52.8045 H         1 UNK         0.3000 
    231 H231       -8.7622  -20.1036  -55.4969 H         1 UNK         0.0600 
    232 H232      -10.1182  -21.1071  -53.6628 H         1 UNK         0.0600 
    233 H233       -8.9868  -22.4533  -53.5531 H         1 UNK         0.0600 
    234 H234       -9.9320  -22.2163  -55.0127 H         1 UNK         0.0600 
    235 H235       -5.9207  -21.6147  -54.1129 H         1 UNK         0.3000 
    236 H236       -5.3637  -23.2571  -56.5038 H         1 UNK         0.0600 
    237 H237       -3.2587  -23.7946  -55.3159 H         1 UNK         0.0600 
    238 H238       -3.6659  -22.6808  -54.0222 H         1 UNK         0.0600 
    239 H239       -4.6477  -24.1162  -54.2966 H         1 UNK         0.0600 
    240 H240       -4.4063  -20.1602  -54.9884 H         1 UNK         0.3000 
    241 H241       -2.4433  -19.4114  -56.9119 H         1 UNK         0.0600 
    242 H242       -6.0562  -18.1175  -58.4905 H         1 UNK         0.3800 
    243 H243       -6.0102  -18.6011  -56.8094 H         1 UNK         0.3800 
    244 H244       -2.7067  -17.1073  -56.0528 H         1 UNK         0.0800 
    245 H245       -4.1600  -17.5519  -55.1976 H         1 UNK         0.0800 
    246 H246       -1.7989  -16.0252  -53.9132 H         1 UNK         0.0800 
    247 H247       -3.1969  -16.5116  -52.9854 H         1 UNK         0.0800 
@<TRIPOS>BOND
     1    1    2 1    
     2    1  127 1    
     3    1  128 1    
     4    1  129 1    
     5    2    3 2    
     6    2    4 am   BACKBONE|DICT|INTERRES
     7    4    5 1    
     8    4  130 1    
     9    5    6 1    
    10    5   65 1    
    11    5  131 1    
    12    6    7 1    
    13    6  132 1    
    14    6  133 1    
    15    7    8 1    
    16    8    9 1    
    17    8  134 1    
    18    8  135 1    
    19    9   10 ar   
    20    9   14 ar   
    21   10   11 ar   
    22   10  136 1    
    23   11   12 ar   
    24   11  126 1    
    25   12   13 ar   
    26   12  137 1    
    27   13   14 ar   
    28   13   15 1    
    29   14  138 1    
    30   15   16 1    
    31   15  139 1    
    32   15  140 1    
    33   16   17 1    
    34   17   18 1    
    35   17  141 1    
    36   17  142 1    
    37   18   19 1    
    38   18   67 1    
    39   18  143 1    
    40   19   20 am   BACKBONE|DICT|INTERRES
    41   19  144 1    
    42   20   21 2    
    43   20   22 1    
    44   22   23 1    
    45   22   24 1    
    46   22  145 1    
    47   23  146 1    
    48   23  147 1    
    49   23  148 1    
    50   24   25 am   BACKBONE|DICT|INTERRES
    51   24  149 1    
    52   25   26 2    
    53   25   27 1    
    54   27   28 1    
    55   27   29 1    
    56   27  150 1    
    57   28  151 1    
    58   28  152 1    
    59   28  153 1    
    60   29   30 am   BACKBONE|DICT|INTERRES
    61   29  154 1    
    62   30   31 2    
    63   30   32 1    
    64   32   33 1    
    65   32   34 1    
    66   32  155 1    
    67   33  156 1    
    68   33  157 1    
    69   33  158 1    
    70   34   35 am   BACKBONE|DICT|INTERRES
    71   34  159 1    
    72   35   36 2    
    73   35   37 1    
    74   37   38 1    
    75   37   39 1    
    76   37  160 1    
    77   38  161 1    
    78   38  162 1    
    79   38  163 1    
    80   39   40 am   BACKBONE|DICT|INTERRES
    81   39  164 1    
    82   40   41 2    
    83   40   42 1    
    84   42   43 1    
    85   42   44 1    
    86   42  165 1    
    87   43  166 1    
    88   43  167 1    
    89   43  168 1    
    90   44   45 am   BACKBONE|DICT|INTERRES
    91   44  169 1    
    92   45   46 2    
    93   45   47 1    
    94   47   48 1    
    95   47   49 1    
    96   47  170 1    
    97   48  171 1    
    98   48  172 1    
    99   48  173 1    
   100   49   50 am   BACKBONE|DICT|INTERRES
   101   49  174 1    
   102   50   51 2    
   103   50   52 1    
   104   52   53 1    
   105   52   54 1    
   106   52  175 1    
   107   53  176 1    
   108   53  177 1    
   109   53  178 1    
   110   54   55 am   BACKBONE|DICT|INTERRES
   111   54  179 1    
   112   55   56 2    
   113   55   57 1    
   114   57   58 1    
   115   57   59 1    
   116   57  180 1    
   117   58  181 1    
   118   58  182 1    
   119   58  183 1    
   120   59   60 am   BACKBONE|DICT|INTERRES
   121   59  184 1    
   122   60   61 2    
   123   60   62 1    
   124   62   63 1    
   125   62   64 1    
   126   62  185 1    
   127   63  186 1    
   128   63  187 1    
   129   63  188 1    
   130   64   65 am   BACKBONE|DICT|INTERRES
   131   64  189 1    
   132   65   66 2    
   133   67   68 2    
   134   67   69 am   BACKBONE|DICT|INTERRES
   135   69   70 1    
   136   69  190 1    
   137   70   71 1    
   138   70   72 1    
   139   70  191 1    
   140   71  192 1    
   141   71  193 1    
   142   71  194 1    
   143   72   73 2    
   144   72   74 am   BACKBONE|DICT|INTERRES
   145   74   75 1    
   146   74  195 1    
   147   75   76 1    
   148   75   77 1    
   149   75  196 1    
   150   76  197 1    
   151   76  198 1    
   152   76  199 1    
   153   77   78 2    
   154   77   79 am   BACKBONE|DICT|INTERRES
   155   79   80 1    
   156   79  200 1    
   157   80   81 1    
   158   80   82 1    
   159   80  201 1    
   160   81  202 1    
   161   81  203 1    
   162   81  204 1    
   163   82   83 2    
   164   82   84 am   BACKBONE|DICT|INTERRES
   165   84   85 1    
   166   84  205 1    
   167   85   86 1    
   168   85   87 1    
   169   85  206 1    
   170   86  207 1    
   171   86  208 1    
   172   86  209 1    
   173   87   88 2    
   174   87   89 am   BACKBONE|DICT|INTERRES
   175   89   90 1    
   176   89  210 1    
   177   90   91 1    
   178   90   92 1    
   179   90  211 1    
   180   91  212 1    
   181   91  213 1    
   182   91  214 1    
   183   92   93 2    
   184   92   94 am   BACKBONE|DICT|INTERRES
   185   94   95 1    
   186   94  215 1    
   187   95   96 1    
   188   95   97 1    
   189   95  216 1    
   190   96  217 1    
   191   96  218 1    
   192   96  219 1    
   193   97   98 2    
   194   97   99 am   BACKBONE|DICT|INTERRES
   195   99  100 1    
   196   99  220 1    
   197  100  101 1    
   198  100  102 1    
   199  100  221 1    
   200  101  222 1    
   201  101  223 1    
   202  101  224 1    
   203  102  103 2    
   204  102  104 am   BACKBONE|DICT|INTERRES
   205  104  105 1    
   206  104  225 1    
   207  105  106 1    
   208  105  107 1    
   209  105  226 1    
   210  106  227 1    
   211  106  228 1    
   212  106  229 1    
   213  107  108 2    
   214  107  109 am   BACKBONE|DICT|INTERRES
   215  109  110 1    
   216  109  230 1    
   217  110  111 1    
   218  110  112 1    
   219  110  231 1    
   220  111  232 1    
   221  111  233 1    
   222  111  234 1    
   223  112  113 2    
   224  112  114 am   BACKBONE|DICT|INTERRES
   225  114  115 1    
   226  114  235 1    
   227  115  116 1    
   228  115  117 1    
   229  115  236 1    
   230  116  237 1    
   231  116  238 1    
   232  116  239 1    
   233  117  118 2    
   234  117  119 am   BACKBONE|DICT|INTERRES
   235  119  120 1    
   236  119  240 1    
   237  120  121 1    
   238  120  124 1    
   239  120  241 1    
   240  121  122 am   BACKBONE|DICT|INTERRES
   241  121  123 2    
   242  122  242 1    
   243  122  243 1    
   244  124  125 1    
   245  124  244 1    
   246  124  245 1    
   247  125  126 1    
   248  126  246 1    
   249  126  247 1    
@<TRIPOS>SUBSTRUCTURE
     1 UNK         1 GROUP             0       ****    0 ROOT    
