@<TRIPOS>MOLECULE
3R540
247   249    1
SMALL
USER_CHARGES


@<TRIPOS>ATOM
      1 CA          1.8967  -10.8395  -50.9867 C.3       0 UNK        -0.1800 
      2 C           2.3898  -11.0188  -49.5580 C.2       0 UNK         0.5000 
      3 O           2.6342  -10.0316  -48.8644 O.2       0 UNK        -0.5000 
      4 N           2.5356  -12.2745  -49.1173 N.am      1 UNK        -0.5000 
      5 CA          2.9751  -12.6504  -47.7666 C.3       1 UNK         0.1400 
      6 C6          3.5537  -14.0866  -47.7282 C.3       23 UNK        -0.0398 
      7 S7          2.4239  -15.3710  -48.3736 S.3       23 UNK        -0.2404 
      8 C8          3.2850  -15.8918  -49.8905 C.3       23 UNK        -0.0205 
      9 C9          2.6457  -17.1323  -50.4980 C.ar      23 UNK        -0.0193 
     10 C10         1.5099  -17.0215  -51.3068 C.ar      23 UNK        -0.1150 
     11 C11         0.9262  -18.1615  -51.8695 C.ar      23 UNK        -0.0193 
     12 C12         1.4857  -19.4178  -51.6208 C.ar      23 UNK        -0.1150 
     13 C13         2.6295  -19.5394  -50.8296 C.ar      23 UNK        -0.0193 
     14 C14         3.2000  -18.3947  -50.2641 C.ar      23 UNK        -0.1150 
     15 C15         3.2831  -20.8965  -50.6258 C.3       23 UNK        -0.0205 
     16 S16         2.9214  -21.5900  -48.9869 S.3       23 UNK        -0.2404 
     17 C17         1.4284  -22.6111  -49.2838 C.3       23 UNK        -0.0398 
     18 CA          0.3565  -22.5380  -48.1557 C.3       11 UNK         0.1400 
     19 N           0.9289  -22.5440  -46.8063 N.am      11 UNK        -0.5000 
     20 C           1.4764  -23.6371  -46.2552 C.2       10 UNK         0.5000 
     21 O           1.3656  -24.7677  -46.7318 O.2       10 UNK        -0.5000 
     22 CA          2.3195  -23.4481  -44.9815 C.3       10 UNK         0.1400 
     23 CB          3.7177  -22.9200  -45.3362 C.3       10 UNK        -0.1800 
     24 N           1.6901  -22.5541  -44.0152 N.am      10 UNK        -0.5000 
     25 C           0.6835  -22.9072  -43.2053 C.2       9 UNK         0.5000 
     26 O           0.2306  -24.0498  -43.1367 O.2       9 UNK        -0.5000 
     27 CA          0.0716  -21.7987  -42.3259 C.3       9 UNK         0.1400 
     28 CB          0.7597  -21.7507  -40.9534 C.3       9 UNK        -0.1800 
     29 N           0.1430  -20.4736  -42.9400 N.am      9 UNK        -0.5000 
     30 C          -0.4865  -20.1186  -44.0673 C.2       8 UNK         0.5000 
     31 O          -1.2453  -20.8488  -44.7087 O.2       8 UNK        -0.5000 
     32 CA         -0.1476  -18.7257  -44.6082 C.3       8 UNK         0.1400 
     33 CB         -0.9095  -17.6246  -43.8590 C.3       8 UNK        -0.1800 
     34 N           1.2931  -18.4712  -44.5755 N.am      8 UNK        -0.5000 
     35 C           2.1749  -19.0700  -45.3898 C.2       7 UNK         0.5000 
     36 O           1.8435  -19.8669  -46.2647 O.2       7 UNK        -0.5000 
     37 CA          3.6705  -18.7676  -45.1794 C.3       7 UNK         0.1400 
     38 CB          4.1086  -17.5987  -46.0706 C.3       7 UNK        -0.1800 
     39 N           4.0035  -18.4623  -43.7892 N.am      7 UNK        -0.5000 
     40 C           3.9380  -19.3370  -42.7748 C.2       6 UNK         0.5000 
     41 O           3.6557  -20.5261  -42.9145 O.2       6 UNK        -0.5000 
     42 CA          4.1467  -18.7576  -41.3603 C.3       6 UNK         0.1400 
     43 CB          5.6366  -18.7554  -40.9882 C.3       6 UNK        -0.1800 
     44 N           3.6050  -17.3991  -41.2260 N.am      6 UNK        -0.5000 
     45 C           2.3122  -17.0934  -41.3986 C.2       5 UNK         0.5000 
     46 O           1.4431  -17.9447  -41.6057 O.2       5 UNK        -0.5000 
     47 CA          1.9591  -15.5948  -41.4491 C.3       5 UNK         0.1400 
     48 CB          2.4497  -14.9779  -42.7708 C.3       5 UNK        -0.1800 
     49 N           0.5165  -15.3856  -41.3640 N.am      5 UNK        -0.5000 
     50 C          -0.2153  -15.4738  -40.2476 C.2       4 UNK         0.5000 
     51 O           0.2774  -15.6411  -39.1304 O.2       4 UNK        -0.5000 
     52 CA         -1.7525  -15.3992  -40.3935 C.3       4 UNK         0.1400 
     53 CB         -2.3777  -14.3885  -39.4096 C.3       4 UNK        -0.1800 
     54 N          -2.2443  -15.1810  -41.7645 N.am      4 UNK        -0.5000 
     55 C          -2.1237  -14.0807  -42.5216 C.2       3 UNK         0.5000 
     56 O          -1.5482  -13.0513  -42.1622 O.2       3 UNK        -0.5000 
     57 CA         -2.7854  -14.1533  -43.9116 C.3       3 UNK         0.1400 
     58 CB         -4.2957  -13.8905  -43.8025 C.3       3 UNK        -0.1800 
     59 N          -2.2099  -13.1912  -44.8504 N.am      3 UNK        -0.5000 
     60 C          -0.9966  -13.2892  -45.4084 C.2       2 UNK         0.5000 
     61 O          -0.2468  -14.2528  -45.2394 O.2       2 UNK        -0.5000 
     62 CA         -0.6017  -12.1173  -46.3325 C.3       2 UNK         0.1400 
     63 CB         -0.5165  -10.7824  -45.5613 C.3       2 UNK        -0.1800 
     64 N           0.6184  -12.3508  -47.1145 N.am      2 UNK        -0.5000 
     65 C           1.8889  -12.4299  -46.6860 C.2       1 UNK         0.5000 
     66 O           2.2361  -12.3049  -45.5105 O.2       1 UNK        -0.5000 
     67 C          -0.6527  -21.4005  -48.3896 C.2       11 UNK         0.5000 
     68 O          -1.7482  -21.6780  -48.8760 O.2       11 UNK        -0.5000 
     69 N          -0.3005  -20.1494  -48.0647 N.am      12 UNK        -0.5000 
     70 CA         -1.0343  -18.9522  -48.5091 C.3       12 UNK         0.1400 
     71 CB         -0.1807  -17.6985  -48.2691 C.3       12 UNK        -0.1800 
     72 C          -2.4555  -18.7805  -47.9289 C.2       12 UNK         0.5000 
     73 O          -3.2150  -17.9583  -48.4401 O.2       12 UNK        -0.5000 
     74 N          -2.8005  -19.5594  -46.8988 N.am      13 UNK        -0.5000 
     75 CA         -4.1657  -19.7440  -46.4129 C.3       13 UNK         0.1400 
     76 CB         -4.3296  -19.1003  -45.0282 C.3       13 UNK        -0.1800 
     77 C          -4.5127  -21.2399  -46.3732 C.2       13 UNK         0.5000 
     78 O          -5.6346  -21.6079  -46.7236 O.2       13 UNK        -0.5000 
     79 N          -3.5444  -22.0771  -45.9718 N.am      14 UNK        -0.5000 
     80 CA         -3.6879  -23.5253  -45.8184 C.3       14 UNK         0.1400 
     81 CB         -2.3880  -24.0934  -45.2377 C.3       14 UNK        -0.1800 
     82 C          -4.0814  -24.2854  -47.0993 C.2       14 UNK         0.5000 
     83 O          -4.8155  -25.2701  -47.0047 O.2       14 UNK        -0.5000 
     84 N          -3.6340  -23.8179  -48.2740 N.am      15 UNK        -0.5000 
     85 CA         -3.9542  -24.4046  -49.5787 C.3       15 UNK         0.1400 
     86 CB         -2.8199  -24.0897  -50.5701 C.3       15 UNK        -0.1800 
     87 C          -5.3331  -23.9362  -50.0881 C.2       15 UNK         0.5000 
     88 O          -5.4320  -23.4032  -51.1946 O.2       15 UNK        -0.5000 
     89 N          -6.3684  -24.1296  -49.2587 N.am      16 UNK        -0.5000 
     90 CA         -7.7788  -23.8041  -49.4950 C.3       16 UNK         0.1400 
     91 CB         -8.3605  -24.7309  -50.5842 C.3       16 UNK        -0.1800 
     92 C          -7.9989  -22.3088  -49.8027 C.2       16 UNK         0.5000 
     93 O          -8.5803  -21.9702  -50.8330 O.2       16 UNK        -0.5000 
     94 N          -7.4783  -21.4334  -48.9287 N.am      17 UNK        -0.5000 
     95 CA         -7.4533  -19.9703  -49.0767 C.3       17 UNK         0.1400 
     96 CB         -8.8778  -19.3782  -49.0292 C.3       17 UNK        -0.1800 
     97 C          -6.6471  -19.5259  -50.3173 C.2       17 UNK         0.5000 
     98 O          -7.0289  -18.5780  -51.0044 O.2       17 UNK        -0.5000 
     99 N          -5.5613  -20.2660  -50.5831 N.am      18 UNK        -0.5000 
    100 CA        -4.6517  -20.1872  -51.7283 C.3       18 UNK         0.1400 
    101 CB        -4.0017  -18.7949  -51.8613 C.3       18 UNK        -0.1800 
    102 C         -5.2480  -20.6652  -53.0670 C.2       18 UNK         0.5000 
    103 O         -4.5435  -20.5988  -54.0744 O.2       18 UNK        -0.5000 
    104 N         -6.4851  -21.1840  -53.0887 N.am      19 UNK        -0.5000 
    105 CA        -7.1385  -21.6925  -54.3004 C.3       19 UNK         0.1400 
    106 CB        -8.6126  -22.0043  -54.0069 C.3       19 UNK        -0.1800 
    107 C         -6.4420  -22.9253  -54.9103 C.2       19 UNK         0.5000 
    108 O         -6.5231  -23.1216  -56.1233 O.2       19 UNK        -0.5000 
    109 N         -5.7527  -23.7125  -54.0736 N.am      20 UNK        -0.5000 
    110 CA        -4.9429  -24.8601  -54.4849 C.3       20 UNK         0.1400 
    111 CB        -5.1424  -25.9967  -53.4673 C.3       20 UNK        -0.1800 
    112 C         -3.4497  -24.5018  -54.6539 C.2       20 UNK         0.5000 
    113 O         -2.6483  -25.4017  -54.9107 O.2       20 UNK        -0.5000 
    114 N         -3.0928  -23.2179  -54.5084 N.am      21 UNK        -0.5000 
    115 CA        -1.7399  -22.6915  -54.6648 C.3       21 UNK         0.1400 
    116 CB        -1.2063  -22.2265  -53.2941 C.3       21 UNK        -0.1800 
    117 C         -1.7558  -21.5853  -55.7336 C.2       21 UNK         0.5000 
    118 O         -1.7395  -21.9011  -56.9243 O.2       21 UNK        -0.5000 
    119 N         -1.7734  -20.3197  -55.2981 N.am      22 UNK        -0.5000 
    120 CA        -1.7636  -19.1212  -56.1533 C.3       22 UNK         0.1400 
    121 C         -3.0557  -18.9028  -56.9932 C.2       22 UNK         0.5000 
    122 N         -4.2034  -19.4361  -56.5965 N.am      22 UNK        -0.7600 
    123 O         -3.0117  -18.2387  -58.0253 O.2       22 UNK        -0.5000 
    124 C124       -1.4310  -17.8407  -55.3443 C.3       23 UNK        -0.0398 
    125 S125        0.1916  -17.9237  -54.5116 S.3       23 UNK        -0.2404 
    126 C126       -0.2963  -18.0419  -52.7628 C.3       23 UNK        -0.0205 
    127 H127        1.7257  -11.7966  -51.4803 H         1 UNK         0.0600 
    128 H128        2.6305  -10.2830  -51.5698 H         1 UNK         0.0600 
    129 H129        0.9603  -10.2815  -50.9932 H         1 UNK         0.0600 
    130 H130        2.3147  -13.0476  -49.7285 H         1 UNK         0.3000 
    131 H131        3.7949  -11.9801  -47.4981 H         1 UNK         0.0600 
    132 H132        4.4841  -14.1101  -48.2965 H         1 UNK         0.0800 
    133 H133        3.8355  -14.3567  -46.7091 H         1 UNK         0.0800 
    134 H134        4.3332  -16.0908  -49.6619 H         1 UNK         0.0800 
    135 H135        3.2761  -15.0769  -50.6155 H         1 UNK         0.0800 
    136 H136        1.0816  -16.0477  -51.4980 H         1 UNK         0.1150 
    137 H137        1.0457  -20.2982  -52.0649 H         1 UNK         0.1150 
    138 H138        4.0834  -18.4888  -49.6483 H         1 UNK         0.1150 
    139 H139        2.9860  -21.5984  -51.4064 H         1 UNK         0.0800 
    140 H140        4.3641  -20.7851  -50.7211 H         1 UNK         0.0800 
    141 H141        1.7703  -23.6425  -49.3773 H         1 UNK         0.0800 
    142 H142        0.9934  -22.3661  -50.2546 H         1 UNK         0.0800 
    143 H143       -0.2463  -23.4453  -48.2420 H         1 UNK         0.0600 
    144 H144        1.1058  -21.6352  -46.3895 H         1 UNK         0.3000 
    145 H145        2.4453  -24.4279  -44.5157 H         1 UNK         0.0600 
    146 H146        4.3425  -22.8254  -44.4479 H         1 UNK         0.0600 
    147 H147        4.2268  -23.5972  -46.0230 H         1 UNK         0.0600 
    148 H148        3.6694  -21.9443  -45.8188 H         1 UNK         0.0600 
    149 H149        2.0650  -21.6169  -43.9434 H         1 UNK         0.3000 
    150 H150       -0.9824  -22.0415  -42.1751 H         1 UNK         0.0600 
    151 H151        0.6943  -22.7158  -40.4496 H         1 UNK         0.0600 
    152 H152        0.2920  -21.0112  -40.3032 H         1 UNK         0.0600 
    153 H153        1.8167  -21.4971  -41.0424 H         1 UNK         0.0600 
    154 H154        0.7350  -19.7884  -42.4838 H         1 UNK         0.3000 
    155 H155       -0.4699  -18.7020  -45.6437 H         1 UNK         0.0600 
    156 H156       -1.9757  -17.6826  -44.0716 H         1 UNK         0.0600 
    157 H157       -0.5708  -16.6364  -44.1657 H         1 UNK         0.0600 
    158 H158       -0.7937  -17.7022  -42.7790 H         1 UNK         0.0600 
    159 H159        1.6325  -17.8919  -43.8214 H         1 UNK         0.3000 
    160 H160        4.2349  -19.6528  -45.4781 H         1 UNK         0.0600 
    161 H161        5.1811  -17.4203  -45.9936 H         1 UNK         0.0600 
    162 H162        3.8886  -17.8059  -47.1189 H         1 UNK         0.0600 
    163 H163        3.5923  -16.6766  -45.8017 H         1 UNK         0.0600 
    164 H164        4.2525  -17.5070  -43.5820 H         1 UNK         0.3000 
    165 H165        3.6172  -19.4035  -40.6566 H         1 UNK         0.0600 
    166 H166        5.7863  -18.4174  -39.9627 H         1 UNK         0.0600 
    167 H167        6.0581  -19.7587  -41.0633 H         1 UNK         0.0600 
    168 H168        6.2164  -18.1056  -41.6449 H         1 UNK         0.0600 
    169 H169        4.2718  -16.6591  -41.0586 H         1 UNK         0.3000 
    170 H170        2.4463  -15.0892  -40.6129 H         1 UNK         0.0600 
    171 H171        3.5330  -15.0538  -42.8696 H         1 UNK         0.0600 
    172 H172        2.0042  -15.4679  -43.6381 H         1 UNK         0.0600 
    173 H173        2.1970  -13.9186  -42.8285 H         1 UNK         0.0600 
    174 H174        0.0311  -15.2495  -42.2375 H         1 UNK         0.3000 
    175 H175       -2.1160  -16.3883  -40.1110 H         1 UNK         0.0600 
    176 H176       -3.4634  -14.3653  -39.5038 H         1 UNK         0.0600 
    177 H177       -2.1493  -14.6555  -38.3772 H         1 UNK         0.0600 
    178 H178       -2.0040  -13.3773  -39.5716 H         1 UNK         0.0600 
    179 H179       -2.7450  -15.9663  -42.1558 H         1 UNK         0.3000 
    180 H180       -2.6372  -15.1561  -44.3172 H         1 UNK         0.0600 
    181 H181       -4.5034  -12.8956  -43.4061 H         1 UNK         0.0600 
    182 H182       -4.7749  -14.6130  -43.1405 H         1 UNK         0.0600 
    183 H183       -4.7821  -13.9731  -44.7748 H         1 UNK         0.0600 
    184 H184       -2.7546  -12.3582  -45.0175 H         1 UNK         0.3000 
    185 H185       -1.4007  -12.0225  -47.0693 H         1 UNK         0.0600 
    186 H186       -1.4860  -10.4998  -45.1504 H         1 UNK         0.0600 
    187 H187        0.1821  -10.8392  -44.7260 H         1 UNK         0.0600 
    188 H188       -0.1952   -9.9696  -46.2129 H         1 UNK         0.0600 
    189 H189        0.4695  -12.4988  -48.1019 H         1 UNK         0.3000 
    190 H190        0.6019  -19.9925  -47.6206 H         1 UNK         0.3000 
    191 H191       -1.1525  -19.0544  -49.5901 H         1 UNK         0.0600 
    192 H192       -0.2766  -17.2968  -47.2621 H         1 UNK         0.0600 
    193 H193       -0.4761  -16.9011  -48.9516 H         1 UNK         0.0600 
    194 H194        0.8743  -17.9023  -48.4453 H         1 UNK         0.0600 
    195 H195       -2.1055  -20.1985  -46.5357 H         1 UNK         0.3000 
    196 H196       -4.8751  -19.2699  -47.0927 H         1 UNK         0.0600 
    197 H197       -5.3442  -19.2391  -44.6529 H         1 UNK         0.0600 
    198 H198       -4.1456  -18.0270  -45.0727 H         1 UNK         0.0600 
    199 H199       -3.6478  -19.5325  -44.2955 H         1 UNK         0.0600 
    200 H200       -2.6767  -21.6855  -45.6180 H         1 UNK         0.3000 
    201 H201       -4.4834  -23.6937  -45.0898 H         1 UNK         0.0600 
    202 H202       -2.1745  -23.6517  -44.2650 H         1 UNK         0.0600 
    203 H203       -1.5372  -23.8978  -45.8902 H         1 UNK         0.0600 
    204 H204       -2.4545  -25.1729  -45.0961 H         1 UNK         0.0600 
    205 H205       -3.0570  -22.9818  -48.2928 H         1 UNK         0.3000 
    206 H206       -4.0013  -25.4907  -49.4772 H         1 UNK         0.0600 
    207 H207       -1.8488  -24.3786  -50.1685 H         1 UNK         0.0600 
    208 H208       -2.9536  -24.6291  -51.5072 H         1 UNK         0.0600 
    209 H209       -2.7814  -23.0283  -50.8125 H         1 UNK         0.0600 
    210 H210       -6.1573  -24.5582  -48.3634 H         1 UNK         0.3000 
    211 H211       -8.3094  -24.0100  -48.5645 H         1 UNK         0.0600 
    212 H212       -7.8843  -24.5703  -51.5522 H         1 UNK         0.0600 
    213 H213       -9.4297  -24.5591  -50.7136 H         1 UNK         0.0600 
    214 H214       -8.2306  -25.7799  -50.3187 H         1 UNK         0.0600 
    215 H215       -6.9751  -21.7874  -48.1187 H         1 UNK         0.3000 
    216 H216       -6.9167  -19.5833  -48.2110 H         1 UNK         0.0600 
    217 H217       -8.8447  -18.2889  -48.9892 H         1 UNK         0.0600 
    218 H218       -9.4162  -19.7181  -48.1447 H         1 UNK         0.0600 
    219 H219       -9.4646  -19.6527  -49.9060 H         1 UNK         0.0600 
    220 H220       -5.3931  -21.0524  -49.9725 H         1 UNK         0.3000 
    221 H221       -3.8518  -20.8931  -51.5033 H         1 UNK         0.0600 
    222 H222       -4.7338  -18.0170  -52.0756 H         1 UNK         0.0600 
    223 H223       -3.4706  -18.5180  -50.9533 H         1 UNK         0.0600 
    224 H224       -3.2765  -18.7773  -52.6733 H         1 UNK         0.0600 
    225 H225       -7.0042  -21.2685  -52.2231 H         1 UNK         0.3000 
    226 H226       -7.1059  -20.8962  -55.0470 H         1 UNK         0.0600 
    227 H227       -9.1440  -22.2675  -54.9222 H         1 UNK         0.0600 
    228 H228       -8.7152  -22.8440  -53.3190 H         1 UNK         0.0600 
    229 H229       -9.1215  -21.1450  -53.5698 H         1 UNK         0.0600 
    230 H230       -5.7278  -23.4787  -53.0830 H         1 UNK         0.3000 
    231 H231       -5.2878  -25.2272  -55.4535 H         1 UNK         0.0600 
    232 H232       -6.1969  -26.2545  -53.3684 H         1 UNK         0.0600 
    233 H233       -4.7724  -25.7283  -52.4796 H         1 UNK         0.0600 
    234 H234       -4.6169  -26.9001  -53.7789 H         1 UNK         0.0600 
    235 H235       -3.8174  -22.5248  -54.3613 H         1 UNK         0.3000 
    236 H236       -1.0642  -23.4642  -55.0369 H         1 UNK         0.0600 
    237 H237       -1.8799  -21.5254  -52.8017 H         1 UNK         0.0600 
    238 H238       -1.0678  -23.0769  -52.6273 H         1 UNK         0.0600 
    239 H239       -0.2335  -21.7454  -53.3981 H         1 UNK         0.0600 
    240 H240       -1.8230  -20.1550  -54.3060 H         1 UNK         0.3000 
    241 H241       -0.9599  -19.2631  -56.8787 H         1 UNK         0.0600 
    242 H242       -4.2613  -19.9410  -55.7136 H         1 UNK         0.3800 
    243 H243       -5.0332  -19.2957  -57.1491 H         1 UNK         0.3800 
    244 H244       -1.4045  -16.9729  -56.0060 H         1 UNK         0.0800 
    245 H245       -2.2146  -17.6348  -54.6135 H         1 UNK         0.0800 
    246 H246       -0.8856  -17.1670  -52.4832 H         1 UNK         0.0800 
    247 H247       -0.9365  -18.9121  -52.6188 H         1 UNK         0.0800 
@<TRIPOS>BOND
     1    1    2 1    
     2    1  127 1    
     3    1  128 1    
     4    1  129 1    
     5    2    3 2    
     6    2    4 am   BACKBONE|DICT|INTERRES
     7    4    5 1    
     8    4  130 1    
     9    5    6 1    
    10    5   65 1    
    11    5  131 1    
    12    6    7 1    
    13    6  132 1    
    14    6  133 1    
    15    7    8 1    
    16    8    9 1    
    17    8  134 1    
    18    8  135 1    
    19    9   10 ar   
    20    9   14 ar   
    21   10   11 ar   
    22   10  136 1    
    23   11   12 ar   
    24   11  126 1    
    25   12   13 ar   
    26   12  137 1    
    27   13   14 ar   
    28   13   15 1    
    29   14  138 1    
    30   15   16 1    
    31   15  139 1    
    32   15  140 1    
    33   16   17 1    
    34   17   18 1    
    35   17  141 1    
    36   17  142 1    
    37   18   19 1    
    38   18   67 1    
    39   18  143 1    
    40   19   20 am   BACKBONE|DICT|INTERRES
    41   19  144 1    
    42   20   21 2    
    43   20   22 1    
    44   22   23 1    
    45   22   24 1    
    46   22  145 1    
    47   23  146 1    
    48   23  147 1    
    49   23  148 1    
    50   24   25 am   BACKBONE|DICT|INTERRES
    51   24  149 1    
    52   25   26 2    
    53   25   27 1    
    54   27   28 1    
    55   27   29 1    
    56   27  150 1    
    57   28  151 1    
    58   28  152 1    
    59   28  153 1    
    60   29   30 am   BACKBONE|DICT|INTERRES
    61   29  154 1    
    62   30   31 2    
    63   30   32 1    
    64   32   33 1    
    65   32   34 1    
    66   32  155 1    
    67   33  156 1    
    68   33  157 1    
    69   33  158 1    
    70   34   35 am   BACKBONE|DICT|INTERRES
    71   34  159 1    
    72   35   36 2    
    73   35   37 1    
    74   37   38 1    
    75   37   39 1    
    76   37  160 1    
    77   38  161 1    
    78   38  162 1    
    79   38  163 1    
    80   39   40 am   BACKBONE|DICT|INTERRES
    81   39  164 1    
    82   40   41 2    
    83   40   42 1    
    84   42   43 1    
    85   42   44 1    
    86   42  165 1    
    87   43  166 1    
    88   43  167 1    
    89   43  168 1    
    90   44   45 am   BACKBONE|DICT|INTERRES
    91   44  169 1    
    92   45   46 2    
    93   45   47 1    
    94   47   48 1    
    95   47   49 1    
    96   47  170 1    
    97   48  171 1    
    98   48  172 1    
    99   48  173 1    
   100   49   50 am   BACKBONE|DICT|INTERRES
   101   49  174 1    
   102   50   51 2    
   103   50   52 1    
   104   52   53 1    
   105   52   54 1    
   106   52  175 1    
   107   53  176 1    
   108   53  177 1    
   109   53  178 1    
   110   54   55 am   BACKBONE|DICT|INTERRES
   111   54  179 1    
   112   55   56 2    
   113   55   57 1    
   114   57   58 1    
   115   57   59 1    
   116   57  180 1    
   117   58  181 1    
   118   58  182 1    
   119   58  183 1    
   120   59   60 am   BACKBONE|DICT|INTERRES
   121   59  184 1    
   122   60   61 2    
   123   60   62 1    
   124   62   63 1    
   125   62   64 1    
   126   62  185 1    
   127   63  186 1    
   128   63  187 1    
   129   63  188 1    
   130   64   65 am   BACKBONE|DICT|INTERRES
   131   64  189 1    
   132   65   66 2    
   133   67   68 2    
   134   67   69 am   BACKBONE|DICT|INTERRES
   135   69   70 1    
   136   69  190 1    
   137   70   71 1    
   138   70   72 1    
   139   70  191 1    
   140   71  192 1    
   141   71  193 1    
   142   71  194 1    
   143   72   73 2    
   144   72   74 am   BACKBONE|DICT|INTERRES
   145   74   75 1    
   146   74  195 1    
   147   75   76 1    
   148   75   77 1    
   149   75  196 1    
   150   76  197 1    
   151   76  198 1    
   152   76  199 1    
   153   77   78 2    
   154   77   79 am   BACKBONE|DICT|INTERRES
   155   79   80 1    
   156   79  200 1    
   157   80   81 1    
   158   80   82 1    
   159   80  201 1    
   160   81  202 1    
   161   81  203 1    
   162   81  204 1    
   163   82   83 2    
   164   82   84 am   BACKBONE|DICT|INTERRES
   165   84   85 1    
   166   84  205 1    
   167   85   86 1    
   168   85   87 1    
   169   85  206 1    
   170   86  207 1    
   171   86  208 1    
   172   86  209 1    
   173   87   88 2    
   174   87   89 am   BACKBONE|DICT|INTERRES
   175   89   90 1    
   176   89  210 1    
   177   90   91 1    
   178   90   92 1    
   179   90  211 1    
   180   91  212 1    
   181   91  213 1    
   182   91  214 1    
   183   92   93 2    
   184   92   94 am   BACKBONE|DICT|INTERRES
   185   94   95 1    
   186   94  215 1    
   187   95   96 1    
   188   95   97 1    
   189   95  216 1    
   190   96  217 1    
   191   96  218 1    
   192   96  219 1    
   193   97   98 2    
   194   97   99 am   BACKBONE|DICT|INTERRES
   195   99  100 1    
   196   99  220 1    
   197  100  101 1    
   198  100  102 1    
   199  100  221 1    
   200  101  222 1    
   201  101  223 1    
   202  101  224 1    
   203  102  103 2    
   204  102  104 am   BACKBONE|DICT|INTERRES
   205  104  105 1    
   206  104  225 1    
   207  105  106 1    
   208  105  107 1    
   209  105  226 1    
   210  106  227 1    
   211  106  228 1    
   212  106  229 1    
   213  107  108 2    
   214  107  109 am   BACKBONE|DICT|INTERRES
   215  109  110 1    
   216  109  230 1    
   217  110  111 1    
   218  110  112 1    
   219  110  231 1    
   220  111  232 1    
   221  111  233 1    
   222  111  234 1    
   223  112  113 2    
   224  112  114 am   BACKBONE|DICT|INTERRES
   225  114  115 1    
   226  114  235 1    
   227  115  116 1    
   228  115  117 1    
   229  115  236 1    
   230  116  237 1    
   231  116  238 1    
   232  116  239 1    
   233  117  118 2    
   234  117  119 am   BACKBONE|DICT|INTERRES
   235  119  120 1    
   236  119  240 1    
   237  120  121 1    
   238  120  124 1    
   239  120  241 1    
   240  121  122 am   BACKBONE|DICT|INTERRES
   241  121  123 2    
   242  122  242 1    
   243  122  243 1    
   244  124  125 1    
   245  124  244 1    
   246  124  245 1    
   247  125  126 1    
   248  126  246 1    
   249  126  247 1    
@<TRIPOS>SUBSTRUCTURE
     1 UNK         1 GROUP             0       ****    0 ROOT    
