@<TRIPOS>MOLECULE
3R540
247   249    1
SMALL
USER_CHARGES


@<TRIPOS>ATOM
      1 CA          4.4264  -18.9572  -42.0852 C.3       0 UNK        -0.1800 
      2 C           3.2157  -18.4368  -42.8467 C.2       0 UNK         0.5000 
      3 O           2.2586  -19.1829  -43.0641 O.2       0 UNK        -0.5000 
      4 N           3.2583  -17.1626  -43.2560 N.am      1 UNK        -0.5000 
      5 CA          2.1610  -16.4850  -43.9483 C.3       1 UNK         0.1400 
      6 C6          2.6179  -15.2525  -44.7661 C.3       23 UNK        -0.0398 
      7 S7          3.8600  -15.6831  -46.0395 S.3       23 UNK        -0.2404 
      8 C8          3.0278  -15.3330  -47.6342 C.3       23 UNK        -0.0205 
      9 C9          2.8449  -16.5536  -48.5376 C.ar      23 UNK        -0.0193 
     10 C10         1.6687  -16.7007  -49.2842 C.ar      23 UNK        -0.1150 
     11 C11         1.4701  -17.8246  -50.0947 C.ar      23 UNK        -0.0193 
     12 C12         2.4666  -18.8022  -50.1672 C.ar      23 UNK        -0.1150 
     13 C13         3.6514  -18.6651  -49.4401 C.ar      23 UNK        -0.0193 
     14 C14         3.8407  -17.5327  -48.6429 C.ar      23 UNK        -0.1150 
     15 C15         4.7237  -19.7430  -49.4994 C.3       23 UNK        -0.0205 
     16 S16         4.5778  -20.9228  -48.1171 S.3       23 UNK        -0.2404 
     17 C17         3.2249  -22.0043  -48.6931 C.3       23 UNK        -0.0398 
     18 CA          3.0988  -23.2947  -47.8439 C.3       11 UNK         0.1400 
     19 N           2.7748  -23.0173  -46.4429 N.am      11 UNK        -0.5000 
     20 C           3.1989  -23.7550  -45.4076 C.2       10 UNK         0.5000 
     21 O           3.9083  -24.7549  -45.5227 O.2       10 UNK        -0.5000 
     22 CA          2.7565  -23.3026  -44.0012 C.3       10 UNK         0.1400 
     23 CB          3.7717  -22.3078  -43.4211 C.3       10 UNK        -0.1800 
     24 N           1.4270  -22.6906  -43.9893 N.am      10 UNK        -0.5000 
     25 C           0.2901  -23.3527  -44.2519 C.2       9 UNK         0.5000 
     26 O           0.2477  -24.5655  -44.4413 O.2       9 UNK        -0.5000 
     27 CA         -1.0052  -22.5241  -44.3745 C.3       9 UNK         0.1400 
     28 CB         -1.8254  -22.5907  -43.0785 C.3       9 UNK        -0.1800 
     29 N          -0.7485  -21.1227  -44.7151 N.am      9 UNK        -0.5000 
     30 C          -0.2420  -20.7252  -45.8875 C.2       8 UNK         0.5000 
     31 O          -0.0421  -21.4845  -46.8390 O.2       8 UNK        -0.5000 
     32 CA          0.1735  -19.2569  -45.9892 C.3       8 UNK         0.1400 
     33 CB          1.6030  -19.1553  -46.5395 C.3       8 UNK        -0.1800 
     34 N          -0.7590  -18.5398  -46.8502 N.am      8 UNK        -0.5000 
     35 C          -0.9476  -17.2154  -46.8462 C.2       7 UNK         0.5000 
     36 O          -0.3522  -16.4389  -46.0992 O.2       7 UNK        -0.5000 
     37 CA         -2.0169  -16.6622  -47.7914 C.3       7 UNK         0.1400 
     38 CB         -3.3770  -16.5774  -47.0776 C.3       7 UNK        -0.1800 
     39 N          -1.6278  -15.3395  -48.2781 N.am      7 UNK        -0.5000 
     40 C          -1.9896  -14.8573  -49.4744 C.2       6 UNK         0.5000 
     41 O          -2.6535  -15.4993  -50.2904 O.2       6 UNK        -0.5000 
     42 CA         -1.5273  -13.4451  -49.8587 C.3       6 UNK         0.1400 
     43 CB         -2.4976  -12.3804  -49.3271 C.3       6 UNK        -0.1800 
     44 N          -0.1735  -13.1361  -49.3988 N.am      6 UNK        -0.5000 
     45 C           0.8178  -12.7231  -50.2026 C.2       5 UNK         0.5000 
     46 O           0.7308  -12.7098  -51.4298 O.2       5 UNK        -0.5000 
     47 CA          2.1337  -12.2451  -49.5476 C.3       5 UNK         0.1400 
     48 CB          2.7743  -11.0658  -50.3100 C.3       5 UNK        -0.1800 
     49 N           2.0245  -11.9342  -48.1169 N.am      5 UNK        -0.5000 
     50 C           1.2694  -10.9877  -47.5409 C.2       4 UNK         0.5000 
     51 O           0.5479  -10.1960  -48.1503 O.2       4 UNK        -0.5000 
     52 CA          1.3020  -10.9623  -46.0021 C.3       4 UNK         0.1400 
     53 CB          1.6284   -9.5549  -45.4767 C.3       4 UNK        -0.1800 
     54 N           0.0517  -11.4229  -45.3933 N.am      4 UNK        -0.5000 
     55 C          -0.5742  -12.5808  -45.6408 C.2       3 UNK         0.5000 
     56 O          -0.2225  -13.3992  -46.4967 O.2       3 UNK        -0.5000 
     57 CA         -1.7808  -12.9048  -44.7551 C.3       3 UNK         0.1400 
     58 CB         -3.1024  -12.8351  -45.5351 C.3       3 UNK        -0.1800 
     59 N          -1.5739  -14.2514  -44.2450 N.am      3 UNK        -0.5000 
     60 C          -1.9034  -14.6807  -43.0208 C.2       2 UNK         0.5000 
     61 O          -2.5312  -14.0077  -42.2027 O.2       2 UNK        -0.5000 
     62 CA         -1.4259  -16.0917  -42.6344 C.3       2 UNK         0.1400 
     63 CB         -2.5015  -17.1375  -42.9679 C.3       2 UNK        -0.1800 
     64 N          -0.1961  -16.4415  -43.3400 N.am      2 UNK        -0.5000 
     65 C           1.0426  -16.1279  -42.9514 C.2       1 UNK         0.5000 
     66 O           1.3169  -15.5778  -41.8825 O.2       1 UNK        -0.5000 
     67 C           2.0545  -24.2427  -48.4609 C.2       11 UNK         0.5000 
     68 O           2.4290  -25.2111  -49.1235 O.2       11 UNK        -0.5000 
     69 N           0.7667  -23.9363  -48.2541 N.am      12 UNK        -0.5000 
     70 CA         -0.3505  -24.5936  -48.9353 C.3       12 UNK         0.1400 
     71 CB         -1.4400  -23.5429  -49.1624 C.3       12 UNK        -0.1800 
     72 C          -0.9312  -25.8086  -48.1884 C.2       12 UNK         0.5000 
     73 O          -1.7758  -26.5033  -48.7561 O.2       12 UNK        -0.5000 
     74 N          -0.5015  -26.0401  -46.9404 N.am      13 UNK        -0.5000 
     75 CA         -0.9749  -27.0926  -46.0366 C.3       13 UNK         0.1400 
     76 CB         -0.5775  -28.4905  -46.5662 C.3       13 UNK        -0.1800 
     77 C          -2.4769  -26.9317  -45.7095 C.2       13 UNK         0.5000 
     78 O          -2.9233  -25.8145  -45.4342 O.2       13 UNK        -0.5000 
     79 N          -3.2317  -28.0388  -45.7484 N.am      14 UNK        -0.5000 
     80 CA         -4.6501  -28.1400  -45.3872 C.3       14 UNK         0.1400 
     81 CB         -5.0702  -29.6164  -45.4591 C.3       14 UNK        -0.1800 
     82 C          -5.6099  -27.2671  -46.2224 C.2       14 UNK         0.5000 
     83 O          -6.7289  -27.0128  -45.7753 O.2       14 UNK        -0.5000 
     84 N          -5.1648  -26.8074  -47.4005 N.am      15 UNK        -0.5000 
     85 CA         -5.8940  -25.8642  -48.2506 C.3       15 UNK         0.1400 
     86 CB         -5.2689  -25.8710  -49.6545 C.3       15 UNK        -0.1800 
     87 C          -5.9253  -24.4282  -47.6870 C.2       15 UNK         0.5000 
     88 O          -6.7131  -23.6148  -48.1729 O.2       15 UNK        -0.5000 
     89 N          -5.0438  -24.1192  -46.7183 N.am      16 UNK        -0.5000 
     90 CA         -4.9020  -22.8354  -46.0112 C.3       16 UNK         0.1400 
     91 CB         -6.1397  -22.5710  -45.1310 C.3       16 UNK        -0.1800 
     92 C          -4.5749  -21.6352  -46.9289 C.2       16 UNK         0.5000 
     93 O          -4.7418  -20.4850  -46.5238 O.2       16 UNK        -0.5000 
     94 N          -4.1295  -21.9413  -48.1554 N.am      17 UNK        -0.5000 
     95 CA         -3.8431  -21.0510  -49.2811 C.3       17 UNK         0.1400 
     96 CB         -2.7193  -20.0604  -48.9417 C.3       17 UNK        -0.1800 
     97 C          -5.0828  -20.3592  -49.8785 C.2       17 UNK         0.5000 
     98 O          -4.9224  -19.4560  -50.7002 O.2       17 UNK        -0.5000 
     99 N          -6.2893  -20.8326  -49.5336 N.am      18 UNK        -0.5000 
    100 CA        -7.5514  -20.3606  -50.1082 C.3       18 UNK         0.1400 
    101 CB        -8.7236  -20.9201  -49.2884 C.3       18 UNK        -0.1800 
    102 C         -7.6880  -20.7438  -51.5938 C.2       18 UNK         0.5000 
    103 O         -8.2117  -19.9588  -52.3843 O.2       18 UNK        -0.5000 
    104 N         -7.1762  -21.9319  -51.9445 N.am      19 UNK        -0.5000 
    105 CA        -7.0793  -22.4231  -53.3187 C.3       19 UNK         0.1400 
    106 CB        -6.9780  -23.9563  -53.2887 C.3       19 UNK        -0.1800 
    107 C         -5.8810  -21.8225  -54.0808 C.2       19 UNK         0.5000 
    108 O         -5.9222  -21.7599  -55.3099 O.2       19 UNK        -0.5000 
    109 N         -4.8335  -21.4138  -53.3488 N.am      20 UNK        -0.5000 
    110 CA        -3.6139  -20.8257  -53.9029 C.3       20 UNK         0.1400 
    111 CB        -2.4557  -20.9633  -52.8998 C.3       20 UNK        -0.1800 
    112 C         -3.8298  -19.3589  -54.3074 C.2       20 UNK         0.5000 
    113 O         -3.5804  -19.0173  -55.4636 O.2       20 UNK        -0.5000 
    114 N         -4.3098  -18.5439  -53.3518 N.am      21 UNK        -0.5000 
    115 CA        -4.6317  -17.1170  -53.4673 C.3       21 UNK         0.1400 
    116 CB        -5.9466  -16.9418  -54.2536 C.3       21 UNK        -0.1800 
    117 C         -3.4665  -16.2922  -54.0552 C.2       21 UNK         0.5000 
    118 O         -3.5483  -15.8253  -55.1935 O.2       21 UNK        -0.5000 
    119 N         -2.3823  -16.1694  -53.2789 N.am      22 UNK        -0.5000 
    120 CA        -1.1138  -15.5458  -53.7028 C.3       22 UNK         0.1400 
    121 C         -1.1751  -14.0117  -53.9728 C.2       22 UNK         0.5000 
    122 N         -2.2281  -13.3034  -53.5813 N.am      22 UNK        -0.7600 
    123 O         -0.2610  -13.4607  -54.5800 O.2       22 UNK        -0.5000 
    124 C124        0.0625  -15.9017  -52.7527 C.3       23 UNK        -0.0398 
    125 S125        0.3462  -17.7035  -52.6392 S.3       23 UNK        -0.2404 
    126 C126        0.1661  -18.0239  -50.8564 C.3       23 UNK        -0.0205 
    127 H127        5.0756  -18.1452  -41.7571 H         1 UNK         0.0600 
    128 H128        5.0099  -19.6254  -42.7177 H         1 UNK         0.0600 
    129 H129        4.1066  -19.5119  -41.2032 H         1 UNK         0.0600 
    130 H130        4.0630  -16.5921  -43.0412 H         1 UNK         0.3000 
    131 H131        1.7452  -17.1929  -44.6570 H         1 UNK         0.0600 
    132 H132        3.0529  -14.4989  -44.1077 H         1 UNK         0.0800 
    133 H133        1.7593  -14.7773  -45.2410 H         1 UNK         0.0800 
    134 H134        3.6464  -14.6149  -48.1703 H         1 UNK         0.0800 
    135 H135        2.0651  -14.8522  -47.4578 H         1 UNK         0.0800 
    136 H136        0.8981  -15.9476  -49.2191 H         1 UNK         0.1150 
    137 H137        2.3121  -19.6777  -50.7820 H         1 UNK         0.1150 
    138 H138        4.7578  -17.4315  -48.0804 H         1 UNK         0.1150 
    139 H139        4.6850  -20.2742  -50.4515 H         1 UNK         0.0800 
    140 H140        5.7083  -19.2752  -49.4557 H         1 UNK         0.0800 
    141 H141        2.2907  -21.4420  -48.6871 H         1 UNK         0.0800 
    142 H142        3.4211  -22.2600  -49.7361 H         1 UNK         0.0800 
    143 H143        4.0630  -23.8062  -47.8911 H         1 UNK         0.0600 
    144 H144        2.1738  -22.2259  -46.2675 H         1 UNK         0.3000 
    145 H145        2.7320  -24.1841  -43.3570 H         1 UNK         0.0600 
    146 H146        3.4951  -22.0022  -42.4119 H         1 UNK         0.0600 
    147 H147        4.7666  -22.7512  -43.3662 H         1 UNK         0.0600 
    148 H148        3.8461  -21.4103  -44.0365 H         1 UNK         0.0600 
    149 H149        1.3866  -21.6964  -43.8143 H         1 UNK         0.3000 
    150 H150       -1.5973  -22.9686  -45.1776 H         1 UNK         0.0600 
    151 H151       -2.0667  -23.6240  -42.8249 H         1 UNK         0.0600 
    152 H152       -2.7689  -22.0540  -43.1801 H         1 UNK         0.0600 
    153 H153       -1.2826  -22.1621  -42.2352 H         1 UNK         0.0600 
    154 H154       -0.8802  -20.4482  -43.9753 H         1 UNK         0.3000 
    155 H155        0.1463  -18.8242  -44.9883 H         1 UNK         0.0600 
    156 H156        1.9373  -18.1243  -46.5912 H         1 UNK         0.0600 
    157 H157        1.6677  -19.5625  -47.5459 H         1 UNK         0.0600 
    158 H158        2.3133  -19.6964  -45.9135 H         1 UNK         0.0600 
    159 H159       -1.3024  -19.1262  -47.4684 H         1 UNK         0.3000 
    160 H160       -2.1007  -17.3417  -48.6384 H         1 UNK         0.0600 
    161 H161       -3.3394  -15.9047  -46.2205 H         1 UNK         0.0600 
    162 H162       -3.6929  -17.5545  -46.7099 H         1 UNK         0.0600 
    163 H163       -4.1552  -16.2190  -47.7514 H         1 UNK         0.0600 
    164 H164       -1.0523  -14.7914  -47.6442 H         1 UNK         0.3000 
    165 H165       -1.5745  -13.4037  -50.9465 H         1 UNK         0.0600 
    166 H166       -2.4259  -12.2758  -48.2462 H         1 UNK         0.0600 
    167 H167       -2.2815  -11.4059  -49.7654 H         1 UNK         0.0600 
    168 H168       -3.5317  -12.6263  -49.5722 H         1 UNK         0.0600 
    169 H169       -0.0254  -13.1350  -48.3939 H         1 UNK         0.3000 
    170 H170        2.8209  -13.0859  -49.6312 H         1 UNK         0.0600 
    171 H171        3.0123  -11.3446  -51.3372 H         1 UNK         0.0600 
    172 H172        2.1100  -10.2023  -50.3535 H         1 UNK         0.0600 
    173 H173        3.7052  -10.7503  -49.8391 H         1 UNK         0.0600 
    174 H174        2.5594  -12.5348  -47.5069 H         1 UNK         0.3000 
    175 H175        2.0920  -11.6340  -45.6598 H         1 UNK         0.0600 
    176 H176        0.8424   -8.8401  -45.7236 H         1 UNK         0.0600 
    177 H177        1.7531   -9.5559  -44.3937 H         1 UNK         0.0600 
    178 H178        2.5581   -9.1827  -45.9091 H         1 UNK         0.0600 
    179 H179       -0.3354  -10.8129  -44.6882 H         1 UNK         0.3000 
    180 H180       -1.8160  -12.1933  -43.9272 H         1 UNK         0.0600 
    181 H181       -3.1152  -13.5335  -46.3715 H         1 UNK         0.0600 
    182 H182       -3.2672  -11.8339  -45.9345 H         1 UNK         0.0600 
    183 H183       -3.9500  -13.0724  -44.8921 H         1 UNK         0.0600 
    184 H184       -1.0354  -14.8550  -44.8580 H         1 UNK         0.3000 
    185 H185       -1.2466  -16.1091  -41.5573 H         1 UNK         0.0600 
    186 H186       -2.7161  -17.1713  -44.0366 H         1 UNK         0.0600 
    187 H187       -2.1900  -18.1349  -42.6574 H         1 UNK         0.0600 
    188 H188       -3.4362  -16.9139  -42.4520 H         1 UNK         0.0600 
    189 H189       -0.3118  -16.7773  -44.2917 H         1 UNK         0.3000 
    190 H190        0.5319  -23.1153  -47.7025 H         1 UNK         0.3000 
    191 H191       -0.0228  -24.9483  -49.9149 H         1 UNK         0.0600 
    192 H192       -2.2989  -23.9652  -49.6845 H         1 UNK         0.0600 
    193 H193       -1.0673  -22.7143  -49.7649 H         1 UNK         0.0600 
    194 H194       -1.7834  -23.1408  -48.2101 H         1 UNK         0.0600 
    195 H195        0.1385  -25.3773  -46.5225 H         1 UNK         0.3000 
    196 H196       -0.4493  -26.9514  -45.0925 H         1 UNK         0.0600 
    197 H197       -0.7768  -29.2661  -45.8259 H         1 UNK         0.0600 
    198 H198        0.4895  -28.5318  -46.7859 H         1 UNK         0.0600 
    199 H199       -1.1108  -28.7551  -47.4798 H         1 UNK         0.0600 
    200 H200       -2.7822  -28.9037  -46.0116 H         1 UNK         0.3000 
    201 H201       -4.7441  -27.8094  -44.3509 H         1 UNK         0.0600 
    202 H202       -4.4682  -30.2322  -44.7906 H         1 UNK         0.0600 
    203 H203       -4.9661  -30.0142  -46.4694 H         1 UNK         0.0600 
    204 H204       -6.1123  -29.7433  -45.1624 H         1 UNK         0.0600 
    205 H205       -4.2304  -27.0580  -47.6943 H         1 UNK         0.3000 
    206 H206       -6.9286  -26.2028  -48.3364 H         1 UNK         0.0600 
    207 H207       -5.2969  -26.8685  -50.0932 H         1 UNK         0.0600 
    208 H208       -5.8105  -25.2066  -50.3289 H         1 UNK         0.0600 
    209 H209       -4.2292  -25.5440  -49.6348 H         1 UNK         0.0600 
    210 H210       -4.4136  -24.8493  -46.3980 H         1 UNK         0.3000 
    211 H211       -4.0445  -22.9508  -45.3479 H         1 UNK         0.0600 
    212 H212       -7.0299  -22.3810  -45.7316 H         1 UNK         0.0600 
    213 H213       -5.9873  -21.7031  -44.4884 H         1 UNK         0.0600 
    214 H214       -6.3487  -23.4208  -44.4810 H         1 UNK         0.0600 
    215 H215       -4.0590  -22.9271  -48.3593 H         1 UNK         0.3000 
    216 H216       -3.4727  -21.6964  -50.0776 H         1 UNK         0.0600 
    217 H217       -3.0261  -19.3985  -48.1357 H         1 UNK         0.0600 
    218 H218       -2.4612  -19.4398  -49.7997 H         1 UNK         0.0600 
    219 H219       -1.8145  -20.5843  -48.6383 H         1 UNK         0.0600 
    220 H220       -6.3482  -21.6042  -48.8787 H         1 UNK         0.3000 
    221 H221       -7.5730  -19.2709  -50.0391 H         1 UNK         0.0600 
    222 H222       -8.7502  -22.0102  -49.3140 H         1 UNK         0.0600 
    223 H223       -8.6564  -20.6122  -48.2447 H         1 UNK         0.0600 
    224 H224       -9.6775  -20.5584  -49.6743 H         1 UNK         0.0600 
    225 H225       -6.7997  -22.5240  -51.2190 H         1 UNK         0.3000 
    226 H226       -7.9892  -22.1514  -53.8583 H         1 UNK         0.0600 
    227 H227       -7.8410  -24.3995  -52.7912 H         1 UNK         0.0600 
    228 H228       -6.9422  -24.3646  -54.2996 H         1 UNK         0.0600 
    229 H229       -6.0804  -24.2919  -52.7679 H         1 UNK         0.0600 
    230 H230       -4.9070  -21.4583  -52.3460 H         1 UNK         0.3000 
    231 H231       -3.3391  -21.3859  -54.7997 H         1 UNK         0.0600 
    232 H232       -2.6276  -20.3836  -51.9947 H         1 UNK         0.0600 
    233 H233       -1.5230  -20.6042  -53.3371 H         1 UNK         0.0600 
    234 H234       -2.3000  -22.0031  -52.6119 H         1 UNK         0.0600 
    235 H235       -4.4824  -18.9389  -52.4299 H         1 UNK         0.3000 
    236 H236       -4.8012  -16.7511  -52.4531 H         1 UNK         0.0600 
    237 H237       -6.7644  -17.4797  -53.7734 H         1 UNK         0.0600 
    238 H238       -6.2334  -15.8910  -54.3058 H         1 UNK         0.0600 
    239 H239       -5.8605  -17.3108  -55.2762 H         1 UNK         0.0600 
    240 H240       -2.4085  -16.5275  -52.3334 H         1 UNK         0.3000 
    241 H241       -0.8735  -15.9866  -54.6724 H         1 UNK         0.0600 
    242 H242       -3.0017  -13.7512  -53.1184 H         1 UNK         0.3800 
    243 H243       -2.2593  -12.3157  -53.7775 H         1 UNK         0.3800 
    244 H244        0.9907  -15.4506  -53.1080 H         1 UNK         0.0800 
    245 H245       -0.1088  -15.4847  -51.7605 H         1 UNK         0.0800 
    246 H246       -0.1625  -19.0557  -50.7247 H         1 UNK         0.0800 
    247 H247       -0.6278  -17.4014  -50.4477 H         1 UNK         0.0800 
@<TRIPOS>BOND
     1    1    2 1    
     2    1  127 1    
     3    1  128 1    
     4    1  129 1    
     5    2    3 2    
     6    2    4 am   BACKBONE|DICT|INTERRES
     7    4    5 1    
     8    4  130 1    
     9    5    6 1    
    10    5   65 1    
    11    5  131 1    
    12    6    7 1    
    13    6  132 1    
    14    6  133 1    
    15    7    8 1    
    16    8    9 1    
    17    8  134 1    
    18    8  135 1    
    19    9   10 ar   
    20    9   14 ar   
    21   10   11 ar   
    22   10  136 1    
    23   11   12 ar   
    24   11  126 1    
    25   12   13 ar   
    26   12  137 1    
    27   13   14 ar   
    28   13   15 1    
    29   14  138 1    
    30   15   16 1    
    31   15  139 1    
    32   15  140 1    
    33   16   17 1    
    34   17   18 1    
    35   17  141 1    
    36   17  142 1    
    37   18   19 1    
    38   18   67 1    
    39   18  143 1    
    40   19   20 am   BACKBONE|DICT|INTERRES
    41   19  144 1    
    42   20   21 2    
    43   20   22 1    
    44   22   23 1    
    45   22   24 1    
    46   22  145 1    
    47   23  146 1    
    48   23  147 1    
    49   23  148 1    
    50   24   25 am   BACKBONE|DICT|INTERRES
    51   24  149 1    
    52   25   26 2    
    53   25   27 1    
    54   27   28 1    
    55   27   29 1    
    56   27  150 1    
    57   28  151 1    
    58   28  152 1    
    59   28  153 1    
    60   29   30 am   BACKBONE|DICT|INTERRES
    61   29  154 1    
    62   30   31 2    
    63   30   32 1    
    64   32   33 1    
    65   32   34 1    
    66   32  155 1    
    67   33  156 1    
    68   33  157 1    
    69   33  158 1    
    70   34   35 am   BACKBONE|DICT|INTERRES
    71   34  159 1    
    72   35   36 2    
    73   35   37 1    
    74   37   38 1    
    75   37   39 1    
    76   37  160 1    
    77   38  161 1    
    78   38  162 1    
    79   38  163 1    
    80   39   40 am   BACKBONE|DICT|INTERRES
    81   39  164 1    
    82   40   41 2    
    83   40   42 1    
    84   42   43 1    
    85   42   44 1    
    86   42  165 1    
    87   43  166 1    
    88   43  167 1    
    89   43  168 1    
    90   44   45 am   BACKBONE|DICT|INTERRES
    91   44  169 1    
    92   45   46 2    
    93   45   47 1    
    94   47   48 1    
    95   47   49 1    
    96   47  170 1    
    97   48  171 1    
    98   48  172 1    
    99   48  173 1    
   100   49   50 am   BACKBONE|DICT|INTERRES
   101   49  174 1    
   102   50   51 2    
   103   50   52 1    
   104   52   53 1    
   105   52   54 1    
   106   52  175 1    
   107   53  176 1    
   108   53  177 1    
   109   53  178 1    
   110   54   55 am   BACKBONE|DICT|INTERRES
   111   54  179 1    
   112   55   56 2    
   113   55   57 1    
   114   57   58 1    
   115   57   59 1    
   116   57  180 1    
   117   58  181 1    
   118   58  182 1    
   119   58  183 1    
   120   59   60 am   BACKBONE|DICT|INTERRES
   121   59  184 1    
   122   60   61 2    
   123   60   62 1    
   124   62   63 1    
   125   62   64 1    
   126   62  185 1    
   127   63  186 1    
   128   63  187 1    
   129   63  188 1    
   130   64   65 am   BACKBONE|DICT|INTERRES
   131   64  189 1    
   132   65   66 2    
   133   67   68 2    
   134   67   69 am   BACKBONE|DICT|INTERRES
   135   69   70 1    
   136   69  190 1    
   137   70   71 1    
   138   70   72 1    
   139   70  191 1    
   140   71  192 1    
   141   71  193 1    
   142   71  194 1    
   143   72   73 2    
   144   72   74 am   BACKBONE|DICT|INTERRES
   145   74   75 1    
   146   74  195 1    
   147   75   76 1    
   148   75   77 1    
   149   75  196 1    
   150   76  197 1    
   151   76  198 1    
   152   76  199 1    
   153   77   78 2    
   154   77   79 am   BACKBONE|DICT|INTERRES
   155   79   80 1    
   156   79  200 1    
   157   80   81 1    
   158   80   82 1    
   159   80  201 1    
   160   81  202 1    
   161   81  203 1    
   162   81  204 1    
   163   82   83 2    
   164   82   84 am   BACKBONE|DICT|INTERRES
   165   84   85 1    
   166   84  205 1    
   167   85   86 1    
   168   85   87 1    
   169   85  206 1    
   170   86  207 1    
   171   86  208 1    
   172   86  209 1    
   173   87   88 2    
   174   87   89 am   BACKBONE|DICT|INTERRES
   175   89   90 1    
   176   89  210 1    
   177   90   91 1    
   178   90   92 1    
   179   90  211 1    
   180   91  212 1    
   181   91  213 1    
   182   91  214 1    
   183   92   93 2    
   184   92   94 am   BACKBONE|DICT|INTERRES
   185   94   95 1    
   186   94  215 1    
   187   95   96 1    
   188   95   97 1    
   189   95  216 1    
   190   96  217 1    
   191   96  218 1    
   192   96  219 1    
   193   97   98 2    
   194   97   99 am   BACKBONE|DICT|INTERRES
   195   99  100 1    
   196   99  220 1    
   197  100  101 1    
   198  100  102 1    
   199  100  221 1    
   200  101  222 1    
   201  101  223 1    
   202  101  224 1    
   203  102  103 2    
   204  102  104 am   BACKBONE|DICT|INTERRES
   205  104  105 1    
   206  104  225 1    
   207  105  106 1    
   208  105  107 1    
   209  105  226 1    
   210  106  227 1    
   211  106  228 1    
   212  106  229 1    
   213  107  108 2    
   214  107  109 am   BACKBONE|DICT|INTERRES
   215  109  110 1    
   216  109  230 1    
   217  110  111 1    
   218  110  112 1    
   219  110  231 1    
   220  111  232 1    
   221  111  233 1    
   222  111  234 1    
   223  112  113 2    
   224  112  114 am   BACKBONE|DICT|INTERRES
   225  114  115 1    
   226  114  235 1    
   227  115  116 1    
   228  115  117 1    
   229  115  236 1    
   230  116  237 1    
   231  116  238 1    
   232  116  239 1    
   233  117  118 2    
   234  117  119 am   BACKBONE|DICT|INTERRES
   235  119  120 1    
   236  119  240 1    
   237  120  121 1    
   238  120  124 1    
   239  120  241 1    
   240  121  122 am   BACKBONE|DICT|INTERRES
   241  121  123 2    
   242  122  242 1    
   243  122  243 1    
   244  124  125 1    
   245  124  244 1    
   246  124  245 1    
   247  125  126 1    
   248  126  246 1    
   249  126  247 1    
@<TRIPOS>SUBSTRUCTURE
     1 UNK         1 GROUP             0       ****    0 ROOT    
