@<TRIPOS>MOLECULE
3R540
247   249    1
SMALL
USER_CHARGES


@<TRIPOS>ATOM
      1 CA          1.9417   -7.6277  -48.5763 C.3       0 UNK        -0.1800 
      2 C           2.6116   -8.9847  -48.7418 C.2       0 UNK         0.5000 
      3 O           3.7154   -9.0610  -49.2827 O.2       0 UNK        -0.5000 
      4 N           1.9456  -10.0535  -48.2865 N.am      1 UNK        -0.5000 
      5 CA          2.4601  -11.4276  -48.2930 C.3       1 UNK         0.1400 
      6 C6          1.3145  -12.4558  -48.1119 C.3       23 UNK        -0.0398 
      7 S7          1.5694  -13.9562  -49.1093 S.3       23 UNK        -0.2404 
      8 C8          0.1690  -14.9521  -48.5202 C.3       23 UNK        -0.0205 
      9 C9         -0.1070  -16.1361  -49.4328 C.ar      23 UNK        -0.0193 
     10 C10        -1.2714  -16.1712  -50.2045 C.ar      23 UNK        -0.1150 
     11 C11        -1.5507  -17.2659  -51.0295 C.ar      23 UNK        -0.0193 
     12 C12        -0.6404  -18.3261  -51.0876 C.ar      23 UNK        -0.1150 
     13 C13         0.5414  -18.2918  -50.3399 C.ar      23 UNK        -0.0193 
     14 C14         0.7957  -17.1998  -49.5050 C.ar      23 UNK        -0.1150 
     15 C15         1.5646  -19.4128  -50.4631 C.3       23 UNK        -0.0205 
     16 S16         1.7705  -20.3427  -48.9135 S.3       23 UNK        -0.2404 
     17 C17         0.1097  -21.0633  -48.7238 C.3       23 UNK        -0.0398 
     18 CA          0.1054  -22.2536  -47.7411 C.3       11 UNK         0.1400 
     19 N           0.3384  -21.8345  -46.3577 N.am      11 UNK        -0.5000 
     20 C           0.5388  -22.6714  -45.3312 C.2       10 UNK         0.5000 
     21 O           0.6040  -23.8951  -45.4491 O.2       10 UNK        -0.5000 
     22 CA          0.6192  -22.0388  -43.9308 C.3       10 UNK         0.1400 
     23 CB          2.0065  -21.4298  -43.6792 C.3       10 UNK        -0.1800 
     24 N          -0.4184  -21.0273  -43.7181 N.am      10 UNK        -0.5000 
     25 C          -1.7335  -21.2907  -43.7092 C.2       9 UNK         0.5000 
     26 O          -2.2008  -22.4239  -43.8253 O.2       9 UNK        -0.5000 
     27 CA         -2.6910  -20.0913  -43.5841 C.3       9 UNK         0.1400 
     28 CB         -2.8270  -19.6568  -42.1174 C.3       9 UNK        -0.1800 
     29 N          -2.2868  -18.9459  -44.3999 N.am      9 UNK        -0.5000 
     30 C          -2.2205  -18.9449  -45.7393 C.2       8 UNK         0.5000 
     31 O          -2.5265  -19.9069  -46.4411 O.2       8 UNK        -0.5000 
     32 CA         -1.6573  -17.6767  -46.4062 C.3       8 UNK         0.1400 
     33 CB         -2.7213  -16.5726  -46.4917 C.3       8 UNK        -0.1800 
     34 N          -0.4658  -17.1699  -45.7232 N.am      8 UNK        -0.5000 
     35 C           0.6765  -17.8620  -45.6000 C.2       7 UNK         0.5000 
     36 O           0.8460  -18.9921  -46.0521 O.2       7 UNK        -0.5000 
     37 CA          1.7952  -17.2082  -44.7757 C.3       7 UNK         0.1400 
     38 CB          2.5620  -16.1674  -45.6071 C.3       7 UNK        -0.1800 
     39 N           1.2765  -16.6107  -43.5442 N.am      7 UNK        -0.5000 
     40 C           0.7639  -17.3256  -42.5305 C.2       6 UNK         0.5000 
     41 O           0.7597  -18.5559  -42.4945 O.2       6 UNK        -0.5000 
     42 CA          0.0851  -16.5388  -41.3969 C.3       6 UNK         0.1400 
     43 CB          1.0981  -16.1504  -40.3098 C.3       6 UNK        -0.1800 
     44 N          -0.6128  -15.3504  -41.8941 N.am      6 UNK        -0.5000 
     45 C          -1.7400  -15.4087  -42.6206 C.2       5 UNK         0.5000 
     46 O          -2.2942  -16.4654  -42.9202 O.2       5 UNK        -0.5000 
     47 CA         -2.3475  -14.0851  -43.1224 C.3       5 UNK         0.1400 
     48 CB         -3.4441  -13.6023  -42.1618 C.3       5 UNK        -0.1800 
     49 N          -1.3692  -13.0147  -43.3069 N.am      5 UNK        -0.5000 
     50 C          -0.3807  -13.0204  -44.2100 C.2       4 UNK         0.5000 
     51 O          -0.1860  -13.9492  -44.9985 O.2       4 UNK        -0.5000 
     52 CA          0.5747  -11.8034  -44.2156 C.3       4 UNK         0.1400 
     53 CB          0.2343  -10.7244  -43.1633 C.3       4 UNK        -0.1800 
     54 N           1.9797  -12.2005  -44.0792 N.am      4 UNK        -0.5000 
     55 C           2.5020  -12.9934  -43.1292 C.2       3 UNK         0.5000 
     56 O           1.8387  -13.4958  -42.2216 O.2       3 UNK        -0.5000 
     57 CA          4.0062  -13.2980  -43.2378 C.3       3 UNK         0.1400 
     58 CB          4.4189  -14.5905  -42.5068 C.3       3 UNK        -0.1800 
     59 N           4.3966  -13.3638  -44.6450 N.am      3 UNK        -0.5000 
     60 C           5.5491  -12.9113  -45.1473 C.2       2 UNK         0.5000 
     61 O           6.4832  -12.4981  -44.4589 O.2       2 UNK        -0.5000 
     62 CA          5.6711  -12.8856  -46.6853 C.3       2 UNK         0.1400 
     63 CB          6.2708  -14.2079  -47.1884 C.3       2 UNK        -0.1800 
     64 N           4.4331  -12.6143  -47.4340 N.am      2 UNK        -0.5000 
     65 C           3.5670  -11.6102  -47.2299 C.2       1 UNK         0.5000 
     66 O           3.5917  -10.8681  -46.2442 O.2       1 UNK        -0.5000 
     67 C          -1.1899  -23.0762  -47.8823 C.2       11 UNK         0.5000 
     68 O          -1.1750  -24.0997  -48.5646 O.2       11 UNK        -0.5000 
     69 N          -2.2703  -22.6502  -47.2136 N.am      12 UNK        -0.5000 
     70 CA         -3.5527  -23.3545  -47.1865 C.3       12 UNK         0.1400 
     71 CB         -4.6021  -22.4974  -46.4668 C.3       12 UNK        -0.1800 
     72 C          -3.4582  -24.7454  -46.5359 C.2       12 UNK         0.5000 
     73 O          -4.0425  -25.6995  -47.0475 O.2       12 UNK        -0.5000 
     74 N          -2.6969  -24.8489  -45.4388 N.am      13 UNK        -0.5000 
     75 CA         -2.4065  -26.1124  -44.7624 C.3       13 UNK         0.1400 
     76 CB         -1.7196  -25.8257  -43.4185 C.3       13 UNK        -0.1800 
     77 C          -1.5533  -27.0643  -45.6233 C.2       13 UNK         0.5000 
     78 O          -1.7889  -28.2732  -45.6060 O.2       13 UNK        -0.5000 
     79 N          -0.5839  -26.5042  -46.3579 N.am      14 UNK        -0.5000 
     80 CA          0.3418  -27.2479  -47.2076 C.3       14 UNK         0.1400 
     81 CB          1.5887  -26.3874  -47.4662 C.3       14 UNK        -0.1800 
     82 C          -0.2729  -27.7087  -48.5420 C.2       14 UNK         0.5000 
     83 O          -0.0222  -28.8428  -48.9528 O.2       14 UNK        -0.5000 
     84 N          -1.0162  -26.8200  -49.2153 N.am      15 UNK        -0.5000 
     85 CA         -1.3675  -26.9527  -50.6324 C.3       15 UNK         0.1400 
     86 CB         -0.4506  -26.0222  -51.4476 C.3       15 UNK        -0.1800 
     87 C          -2.8584  -26.7098  -50.9350 C.2       15 UNK         0.5000 
     88 O          -3.2020  -26.4938  -52.0995 O.2       15 UNK        -0.5000 
     89 N          -3.7223  -26.7747  -49.9115 N.am      16 UNK        -0.5000 
     90 CA         -5.1854  -26.6553  -49.9731 C.3       16 UNK         0.1400 
     91 CB         -5.8079  -27.8358  -50.7515 C.3       16 UNK        -0.1800 
     92 C          -5.6412  -25.2748  -50.4859 C.2       16 UNK         0.5000 
     93 O          -5.7711  -24.3497  -49.6850 O.2       16 UNK        -0.5000 
     94 N          -5.8728  -25.1539  -51.8004 N.am      17 UNK        -0.5000 
     95 CA         -6.1622  -23.8889  -52.4799 C.3       17 UNK         0.1400 
     96 CB         -6.8019  -24.1818  -53.8444 C.3       17 UNK        -0.1800 
     97 C          -4.9027  -23.0170  -52.6506 C.2       17 UNK         0.5000 
     98 O          -5.0071  -21.7889  -52.6147 O.2       17 UNK        -0.5000 
     99 N          -3.7383  -23.6678  -52.7787 N.am      18 UNK        -0.5000 
    100 CA        -2.4136  -23.0800  -52.9655 C.3       18 UNK         0.1400 
    101 CB        -1.9900  -22.2844  -51.7114 C.3       18 UNK        -0.1800 
    102 C         -2.2937  -22.2954  -54.2895 C.2       18 UNK         0.5000 
    103 O         -2.7584  -22.7755  -55.3248 O.2       18 UNK        -0.5000 
    104 N         -1.6387  -21.1279  -54.2440 N.am      19 UNK        -0.5000 
    105 CA        -1.3098  -20.2826  -55.3953 C.3       19 UNK         0.1400 
    106 CB        -0.2541  -19.2555  -54.9528 C.3       19 UNK        -0.1800 
    107 C         -2.5161  -19.5645  -56.0346 C.2       19 UNK         0.5000 
    108 O         -2.3775  -19.0251  -57.1335 O.2       19 UNK        -0.5000 
    109 N         -3.6605  -19.5487  -55.3439 N.am      20 UNK        -0.5000 
    110 CA        -4.8968  -18.9148  -55.7831 C.3       20 UNK         0.1400 
    111 CB        -4.8831  -17.4195  -55.3941 C.3       20 UNK        -0.1800 
    112 C         -6.0649  -19.7209  -55.1982 C.2       20 UNK         0.5000 
    113 O         -6.2732  -20.8624  -55.6106 O.2       20 UNK        -0.5000 
    114 N         -6.7836  -19.1298  -54.2396 N.am      21 UNK        -0.5000 
    115 CA        -7.8503  -19.7608  -53.4638 C.3       21 UNK         0.1400 
    116 CB        -9.2162  -19.3024  -54.0066 C.3       21 UNK        -0.1800 
    117 C         -7.6678  -19.4572  -51.9642 C.2       21 UNK         0.5000 
    118 O         -8.6501  -19.4051  -51.2224 O.2       21 UNK        -0.5000 
    119 N         -6.4119  -19.2439  -51.5480 N.am      22 UNK        -0.5000 
    120 CA        -6.0133  -19.0214  -50.1489 C.3       22 UNK         0.1400 
    121 C         -6.1778  -20.2912  -49.2734 C.2       22 UNK         0.5000 
    122 N         -5.8781  -21.4637  -49.8153 N.am      22 UNK        -0.7600 
    123 O         -6.5925  -20.2063  -48.1216 O.2       22 UNK        -0.5000 
    124 C124       -4.5649  -18.4809  -50.0314 C.3       23 UNK        -0.0398 
    125 S125       -4.3277  -16.9281  -50.9596 S.3       23 UNK        -0.2404 
    126 C126       -2.8042  -17.2784  -51.8989 C.3       23 UNK        -0.0205 
    127 H127        2.5667   -6.9730  -47.9690 H         1 UNK         0.0600 
    128 H128        0.9679   -7.7118  -48.0931 H         1 UNK         0.0600 
    129 H129        1.7987   -7.1582  -49.5496 H         1 UNK         0.0600 
    130 H130        1.0568   -9.9160  -47.8283 H         1 UNK         0.3000 
    131 H131        2.9181  -11.5800  -49.2732 H         1 UNK         0.0600 
    132 H132        0.3647  -12.0284  -48.4375 H         1 UNK         0.0800 
    133 H133        1.1714  -12.7344  -47.0670 H         1 UNK         0.0800 
    134 H134        0.3815  -15.3058  -47.5131 H         1 UNK         0.0800 
    135 H135       -0.7174  -14.3208  -48.4420 H         1 UNK         0.0800 
    136 H136       -1.9662  -15.3442  -50.1640 H         1 UNK         0.1150 
    137 H137       -0.8384  -19.1671  -51.7351 H         1 UNK         0.1150 
    138 H138        1.7036  -17.1731  -48.9190 H         1 UNK         0.1150 
    139 H139        1.2962  -20.1027  -51.2646 H         1 UNK         0.0800 
    140 H140        2.5268  -18.9819  -50.7427 H         1 UNK         0.0800 
    141 H141       -0.2225  -21.3822  -49.7099 H         1 UNK         0.0800 
    142 H142       -0.5828  -20.2847  -48.3995 H         1 UNK         0.0800 
    143 H143        0.9256  -22.9197  -48.0176 H         1 UNK         0.0600 
    144 H144        0.3539  -20.8316  -46.1873 H         1 UNK         0.3000 
    145 H145        0.4629  -22.8345  -43.1995 H         1 UNK         0.0600 
    146 H146        2.7904  -22.1753  -43.8175 H         1 UNK         0.0600 
    147 H147        2.2155  -20.6037  -44.3589 H         1 UNK         0.0600 
    148 H148        2.0917  -21.0532  -42.6598 H         1 UNK         0.0600 
    149 H149       -0.1029  -20.0738  -43.5748 H         1 UNK         0.3000 
    150 H150       -3.6734  -20.4148  -43.9337 H         1 UNK         0.0600 
    151 H151       -3.1492  -20.4897  -41.4912 H         1 UNK         0.0600 
    152 H152       -3.5660  -18.8628  -42.0086 H         1 UNK         0.0600 
    153 H153       -1.8813  -19.2904  -41.7172 H         1 UNK         0.0600 
    154 H154       -2.0665  -18.0892  -43.8994 H         1 UNK         0.3000 
    155 H155       -1.3651  -17.9425  -47.4244 H         1 UNK         0.0600 
    156 H156       -3.0776  -16.2762  -45.5058 H         1 UNK         0.0600 
    157 H157       -2.3330  -15.6844  -46.9893 H         1 UNK         0.0600 
    158 H158       -3.5865  -16.9113  -47.0621 H         1 UNK         0.0600 
    159 H159       -0.5240  -16.2464  -45.3143 H         1 UNK         0.3000 
    160 H160        2.4988  -17.9975  -44.5020 H         1 UNK         0.0600 
    161 H161        2.0002  -15.2422  -45.7283 H         1 UNK         0.0600 
    162 H162        2.7859  -16.5478  -46.6049 H         1 UNK         0.0600 
    163 H163        3.5167  -15.9299  -45.1421 H         1 UNK         0.0600 
    164 H164        1.2015  -15.6035  -43.5080 H         1 UNK         0.3000 
    165 H165       -0.6563  -17.1951  -40.9361 H         1 UNK         0.0600 
    166 H166        0.6256  -15.5725  -39.5156 H         1 UNK         0.0600 
    167 H167        1.5302  -17.0407  -39.8514 H         1 UNK         0.0600 
    168 H168        1.9232  -15.5626  -40.7098 H         1 UNK         0.0600 
    169 H169       -0.1633  -14.4566  -41.7383 H         1 UNK         0.3000 
    170 H170       -2.8085  -14.2839  -44.0918 H         1 UNK         0.0600 
    171 H171       -4.2078  -14.3691  -42.0238 H         1 UNK         0.0600 
    172 H172       -3.0397  -13.3611  -41.1779 H         1 UNK         0.0600 
    173 H173       -3.9444  -12.7139  -42.5476 H         1 UNK         0.0600 
    174 H174       -1.4427  -12.2251  -42.6821 H         1 UNK         0.3000 
    175 H175        0.4745  -11.3437  -45.1992 H         1 UNK         0.0600 
    176 H176        0.3136  -11.1047  -42.1440 H         1 UNK         0.0600 
    177 H177        0.9128   -9.8754  -43.2480 H         1 UNK         0.0600 
    178 H178       -0.7754  -10.3359  -43.3023 H         1 UNK         0.0600 
    179 H179        2.6140  -11.7955  -44.7609 H         1 UNK         0.3000 
    180 H180        4.5153  -12.4586  -42.7599 H         1 UNK         0.0600 
    181 H181        3.8765  -15.4594  -42.8775 H         1 UNK         0.0600 
    182 H182        4.2189  -14.5135  -41.4375 H         1 UNK         0.0600 
    183 H183        5.4849  -14.7862  -42.6215 H         1 UNK         0.0600 
    184 H184        3.6859  -13.6767  -45.2899 H         1 UNK         0.3000 
    185 H185        6.3683  -12.0827  -46.9325 H         1 UNK         0.0600 
    186 H186        7.2051  -14.4367  -46.6737 H         1 UNK         0.0600 
    187 H187        5.5912  -15.0451  -47.0227 H         1 UNK         0.0600 
    188 H188        6.4936  -14.1616  -48.2545 H         1 UNK         0.0600 
    189 H189        4.2929  -13.1917  -48.2512 H         1 UNK         0.3000 
    190 H190       -2.2311  -21.7613  -46.7215 H         1 UNK         0.3000 
    191 H191       -3.8654  -23.4849  -48.2226 H         1 UNK         0.0600 
    192 H192       -4.3806  -22.3882  -45.4055 H         1 UNK         0.0600 
    193 H193       -5.5934  -22.9436  -46.5533 H         1 UNK         0.0600 
    194 H194       -4.6550  -21.4991  -46.8975 H         1 UNK         0.0600 
    195 H195       -2.2932  -24.0069  -45.0392 H         1 UNK         0.3000 
    196 H196       -3.3563  -26.6107  -44.5576 H         1 UNK         0.0600 
    197 H197       -1.5152  -26.7512  -42.8788 H         1 UNK         0.0600 
    198 H198       -2.3494  -25.2073  -42.7786 H         1 UNK         0.0600 
    199 H199       -0.7703  -25.3067  -43.5529 H         1 UNK         0.0600 
    200 H200       -0.4240  -25.5062  -46.2728 H         1 UNK         0.3000 
    201 H201        0.6626  -28.1402  -46.6657 H         1 UNK         0.0600 
    202 H202        2.0884  -26.1277  -46.5328 H         1 UNK         0.0600 
    203 H203        1.3376  -25.4585  -47.9795 H         1 UNK         0.0600 
    204 H204        2.3117  -26.9203  -48.0851 H         1 UNK         0.0600 
    205 H205       -1.1545  -25.8917  -48.8170 H         1 UNK         0.3000 
    206 H206       -1.1795  -27.9730  -50.9714 H         1 UNK         0.0600 
    207 H207       -0.6378  -26.1126  -52.5181 H         1 UNK         0.0600 
    208 H208       -0.5944  -24.9783  -51.1686 H         1 UNK         0.0600 
    209 H209        0.5993  -26.2664  -51.2856 H         1 UNK         0.0600 
    210 H210       -3.3431  -26.8849  -48.9799 H         1 UNK         0.3000 
    211 H211       -5.5451  -26.7315  -48.9465 H         1 UNK         0.0600 
    212 H212       -5.4533  -27.8976  -51.7804 H         1 UNK         0.0600 
    213 H213       -6.8949  -27.7512  -50.7831 H         1 UNK         0.0600 
    214 H214       -5.5738  -28.7840  -50.2676 H         1 UNK         0.0600 
    215 H215       -5.7101  -25.9601  -52.3867 H         1 UNK         0.3000 
    216 H216       -6.8824  -23.3258  -51.8825 H         1 UNK         0.0600 
    217 H217       -6.1312  -24.7495  -54.4906 H         1 UNK         0.0600 
    218 H218       -7.0511  -23.2559  -54.3642 H         1 UNK         0.0600 
    219 H219       -7.7252  -24.7506  -53.7337 H         1 UNK         0.0600 
    220 H220       -3.7546  -24.6825  -52.7546 H         1 UNK         0.3000 
    221 H221       -1.7300  -23.9227  -53.0655 H         1 UNK         0.0600 
    222 H222       -2.5681  -21.3686  -51.5831 H         1 UNK         0.0600 
    223 H223       -2.1247  -22.8842  -50.8119 H         1 UNK         0.0600 
    224 H224       -0.9351  -22.0160  -51.7646 H         1 UNK         0.0600 
    225 H225       -1.2863  -20.8187  -53.3517 H         1 UNK         0.3000 
    226 H226       -0.8673  -20.9182  -56.1650 H         1 UNK         0.0600 
    227 H227        0.6290  -19.7447  -54.5412 H         1 UNK         0.0600 
    228 H228        0.0781  -18.6483  -55.7958 H         1 UNK         0.0600 
    229 H229       -0.6466  -18.5749  -54.1963 H         1 UNK         0.0600 
    230 H230       -3.7181  -20.0900  -54.4921 H         1 UNK         0.3000 
    231 H231       -4.9832  -18.9898  -56.8692 H         1 UNK         0.0600 
    232 H232       -5.8121  -16.9271  -55.6841 H         1 UNK         0.0600 
    233 H233       -4.0743  -16.8938  -55.9018 H         1 UNK         0.0600 
    234 H234       -4.7427  -17.2748  -54.3223 H         1 UNK         0.0600 
    235 H235       -6.5448  -18.1860  -53.9677 H         1 UNK         0.3000 
    236 H236       -7.7893  -20.8469  -53.5582 H         1 UNK         0.0600 
    237 H237       -9.3188  -19.5429  -55.0649 H         1 UNK         0.0600 
    238 H238      -10.0351  -19.7969  -53.4829 H         1 UNK         0.0600 
    239 H239       -9.3515  -18.2263  -53.8924 H         1 UNK         0.0600 
    240 H240       -5.6628  -19.3695  -52.2118 H         1 UNK         0.3000 
    241 H241       -6.6819  -18.2629  -49.7364 H         1 UNK         0.0600 
    242 H242       -5.5519  -21.4984  -50.7738 H         1 UNK         0.3800 
    243 H243       -5.9854  -22.3293  -49.3021 H         1 UNK         0.3800 
    244 H244       -4.3134  -18.2868  -48.9875 H         1 UNK         0.0800 
    245 H245       -3.8505  -19.2295  -50.3788 H         1 UNK         0.0800 
    246 H246       -2.6914  -16.5173  -52.6719 H         1 UNK         0.0800 
    247 H247       -2.9134  -18.2295  -52.4221 H         1 UNK         0.0800 
@<TRIPOS>BOND
     1    1    2 1    
     2    1  127 1    
     3    1  128 1    
     4    1  129 1    
     5    2    3 2    
     6    2    4 am   BACKBONE|DICT|INTERRES
     7    4    5 1    
     8    4  130 1    
     9    5    6 1    
    10    5   65 1    
    11    5  131 1    
    12    6    7 1    
    13    6  132 1    
    14    6  133 1    
    15    7    8 1    
    16    8    9 1    
    17    8  134 1    
    18    8  135 1    
    19    9   10 ar   
    20    9   14 ar   
    21   10   11 ar   
    22   10  136 1    
    23   11   12 ar   
    24   11  126 1    
    25   12   13 ar   
    26   12  137 1    
    27   13   14 ar   
    28   13   15 1    
    29   14  138 1    
    30   15   16 1    
    31   15  139 1    
    32   15  140 1    
    33   16   17 1    
    34   17   18 1    
    35   17  141 1    
    36   17  142 1    
    37   18   19 1    
    38   18   67 1    
    39   18  143 1    
    40   19   20 am   BACKBONE|DICT|INTERRES
    41   19  144 1    
    42   20   21 2    
    43   20   22 1    
    44   22   23 1    
    45   22   24 1    
    46   22  145 1    
    47   23  146 1    
    48   23  147 1    
    49   23  148 1    
    50   24   25 am   BACKBONE|DICT|INTERRES
    51   24  149 1    
    52   25   26 2    
    53   25   27 1    
    54   27   28 1    
    55   27   29 1    
    56   27  150 1    
    57   28  151 1    
    58   28  152 1    
    59   28  153 1    
    60   29   30 am   BACKBONE|DICT|INTERRES
    61   29  154 1    
    62   30   31 2    
    63   30   32 1    
    64   32   33 1    
    65   32   34 1    
    66   32  155 1    
    67   33  156 1    
    68   33  157 1    
    69   33  158 1    
    70   34   35 am   BACKBONE|DICT|INTERRES
    71   34  159 1    
    72   35   36 2    
    73   35   37 1    
    74   37   38 1    
    75   37   39 1    
    76   37  160 1    
    77   38  161 1    
    78   38  162 1    
    79   38  163 1    
    80   39   40 am   BACKBONE|DICT|INTERRES
    81   39  164 1    
    82   40   41 2    
    83   40   42 1    
    84   42   43 1    
    85   42   44 1    
    86   42  165 1    
    87   43  166 1    
    88   43  167 1    
    89   43  168 1    
    90   44   45 am   BACKBONE|DICT|INTERRES
    91   44  169 1    
    92   45   46 2    
    93   45   47 1    
    94   47   48 1    
    95   47   49 1    
    96   47  170 1    
    97   48  171 1    
    98   48  172 1    
    99   48  173 1    
   100   49   50 am   BACKBONE|DICT|INTERRES
   101   49  174 1    
   102   50   51 2    
   103   50   52 1    
   104   52   53 1    
   105   52   54 1    
   106   52  175 1    
   107   53  176 1    
   108   53  177 1    
   109   53  178 1    
   110   54   55 am   BACKBONE|DICT|INTERRES
   111   54  179 1    
   112   55   56 2    
   113   55   57 1    
   114   57   58 1    
   115   57   59 1    
   116   57  180 1    
   117   58  181 1    
   118   58  182 1    
   119   58  183 1    
   120   59   60 am   BACKBONE|DICT|INTERRES
   121   59  184 1    
   122   60   61 2    
   123   60   62 1    
   124   62   63 1    
   125   62   64 1    
   126   62  185 1    
   127   63  186 1    
   128   63  187 1    
   129   63  188 1    
   130   64   65 am   BACKBONE|DICT|INTERRES
   131   64  189 1    
   132   65   66 2    
   133   67   68 2    
   134   67   69 am   BACKBONE|DICT|INTERRES
   135   69   70 1    
   136   69  190 1    
   137   70   71 1    
   138   70   72 1    
   139   70  191 1    
   140   71  192 1    
   141   71  193 1    
   142   71  194 1    
   143   72   73 2    
   144   72   74 am   BACKBONE|DICT|INTERRES
   145   74   75 1    
   146   74  195 1    
   147   75   76 1    
   148   75   77 1    
   149   75  196 1    
   150   76  197 1    
   151   76  198 1    
   152   76  199 1    
   153   77   78 2    
   154   77   79 am   BACKBONE|DICT|INTERRES
   155   79   80 1    
   156   79  200 1    
   157   80   81 1    
   158   80   82 1    
   159   80  201 1    
   160   81  202 1    
   161   81  203 1    
   162   81  204 1    
   163   82   83 2    
   164   82   84 am   BACKBONE|DICT|INTERRES
   165   84   85 1    
   166   84  205 1    
   167   85   86 1    
   168   85   87 1    
   169   85  206 1    
   170   86  207 1    
   171   86  208 1    
   172   86  209 1    
   173   87   88 2    
   174   87   89 am   BACKBONE|DICT|INTERRES
   175   89   90 1    
   176   89  210 1    
   177   90   91 1    
   178   90   92 1    
   179   90  211 1    
   180   91  212 1    
   181   91  213 1    
   182   91  214 1    
   183   92   93 2    
   184   92   94 am   BACKBONE|DICT|INTERRES
   185   94   95 1    
   186   94  215 1    
   187   95   96 1    
   188   95   97 1    
   189   95  216 1    
   190   96  217 1    
   191   96  218 1    
   192   96  219 1    
   193   97   98 2    
   194   97   99 am   BACKBONE|DICT|INTERRES
   195   99  100 1    
   196   99  220 1    
   197  100  101 1    
   198  100  102 1    
   199  100  221 1    
   200  101  222 1    
   201  101  223 1    
   202  101  224 1    
   203  102  103 2    
   204  102  104 am   BACKBONE|DICT|INTERRES
   205  104  105 1    
   206  104  225 1    
   207  105  106 1    
   208  105  107 1    
   209  105  226 1    
   210  106  227 1    
   211  106  228 1    
   212  106  229 1    
   213  107  108 2    
   214  107  109 am   BACKBONE|DICT|INTERRES
   215  109  110 1    
   216  109  230 1    
   217  110  111 1    
   218  110  112 1    
   219  110  231 1    
   220  111  232 1    
   221  111  233 1    
   222  111  234 1    
   223  112  113 2    
   224  112  114 am   BACKBONE|DICT|INTERRES
   225  114  115 1    
   226  114  235 1    
   227  115  116 1    
   228  115  117 1    
   229  115  236 1    
   230  116  237 1    
   231  116  238 1    
   232  116  239 1    
   233  117  118 2    
   234  117  119 am   BACKBONE|DICT|INTERRES
   235  119  120 1    
   236  119  240 1    
   237  120  121 1    
   238  120  124 1    
   239  120  241 1    
   240  121  122 am   BACKBONE|DICT|INTERRES
   241  121  123 2    
   242  122  242 1    
   243  122  243 1    
   244  124  125 1    
   245  124  244 1    
   246  124  245 1    
   247  125  126 1    
   248  126  246 1    
   249  126  247 1    
@<TRIPOS>SUBSTRUCTURE
     1 UNK         1 GROUP             0       ****    0 ROOT    
