@<TRIPOS>MOLECULE
3R540
247   249    1
SMALL
USER_CHARGES


@<TRIPOS>ATOM
      1 CA          4.2740   -9.2126  -48.2360 C.3       0 UNK        -0.1800 
      2 C           4.4942  -10.3703  -47.2726 C.2       0 UNK         0.5000 
      3 O           4.7244  -10.1438  -46.0855 O.2       0 UNK        -0.5000 
      4 N           4.4192  -11.6072  -47.7791 N.am      1 UNK        -0.5000 
      5 CA          4.5886  -12.8495  -47.0126 C.3       1 UNK         0.1400 
      6 C6          5.2931  -13.9390  -47.8590 C.3       23 UNK        -0.0398 
      7 S7          4.3881  -14.4628  -49.3621 S.3       23 UNK        -0.2404 
      8 C8          3.7557  -16.0588  -48.7670 C.3       23 UNK        -0.0205 
      9 C9          2.9780  -16.8613  -49.7979 C.ar      23 UNK        -0.0193 
     10 C10         1.9343  -16.2898  -50.5331 C.ar      23 UNK        -0.1150 
     11 C11         1.1768  -17.0707  -51.4119 C.ar      23 UNK        -0.0193 
     12 C12         1.4617  -18.4333  -51.5464 C.ar      23 UNK        -0.1150 
     13 C13         2.5033  -19.0134  -50.8176 C.ar      23 UNK        -0.0193 
     14 C14         3.2602  -18.2205  -49.9533 C.ar      23 UNK        -0.1150 
     15 C15         2.8163  -20.4958  -50.9528 C.3       23 UNK        -0.0205 
     16 S16         2.4454  -21.4087  -49.4216 S.3       23 UNK        -0.2404 
     17 C17         0.6277  -21.3032  -49.3869 C.3       23 UNK        -0.0398 
     18 CA          0.0236  -22.2742  -48.3470 C.3       11 UNK         0.1400 
     19 N           0.2559  -21.8486  -46.9622 N.am      11 UNK        -0.5000 
     20 C          -0.0122  -22.6026  -45.8855 C.2       10 UNK         0.5000 
     21 O          -0.4285  -23.7595  -45.9495 O.2       10 UNK        -0.5000 
     22 CA          0.1488  -21.9373  -44.5056 C.3       10 UNK         0.1400 
     23 CB          1.6226  -21.8901  -44.0765 C.3       10 UNK        -0.1800 
     24 N          -0.4273  -20.5927  -44.4666 N.am      10 UNK        -0.5000 
     25 C          -1.7295  -20.3244  -44.6418 C.2       9 UNK         0.5000 
     26 O          -2.5921  -21.1897  -44.7843 O.2       9 UNK        -0.5000 
     27 CA         -2.1316  -18.8424  -44.7272 C.3       9 UNK         0.1400 
     28 CB         -2.3486  -18.2446  -43.3288 C.3       9 UNK        -0.1800 
     29 N          -1.1478  -18.0475  -45.4605 N.am      9 UNK        -0.5000 
     30 C          -0.9072  -18.1617  -46.7752 C.2       8 UNK         0.5000 
     31 O          -1.5132  -18.9311  -47.5200 O.2       8 UNK        -0.5000 
     32 CA          0.2392  -17.3022  -47.3349 C.3       8 UNK         0.1400 
     33 CB         -0.2502  -15.8743  -47.6105 C.3       8 UNK        -0.1800 
     34 N           1.3876  -17.2593  -46.4270 N.am      8 UNK        -0.5000 
     35 C           2.1426  -18.3248  -46.1240 C.2       7 UNK         0.5000 
     36 O           1.9703  -19.4418  -46.6096 O.2       7 UNK        -0.5000 
     37 CA          3.2224  -18.1250  -45.0452 C.3       7 UNK         0.1400 
     38 CB          4.5658  -17.7018  -45.6534 C.3       7 UNK        -0.1800 
     39 N           2.8251  -17.1647  -44.0132 N.am      7 UNK        -0.5000 
     40 C           1.8513  -17.3894  -43.1224 C.2       6 UNK         0.5000 
     41 O           1.1550  -18.4057  -43.1490 O.2       6 UNK        -0.5000 
     42 CA          1.5617  -16.3196  -42.0468 C.3       6 UNK         0.1400 
     43 CB          1.5471  -16.9396  -40.6359 C.3       6 UNK        -0.1800 
     44 N           2.4033  -15.1147  -42.0567 N.am      6 UNK        -0.5000 
     45 C           3.7276  -15.0110  -41.8597 C.2       5 UNK         0.5000 
     46 O           4.4906  -15.9739  -41.7891 O.2       5 UNK        -0.5000 
     47 CA          4.2978  -13.5882  -41.6785 C.3       5 UNK         0.1400 
     48 CB          4.9262  -13.0636  -42.9765 C.3       5 UNK        -0.1800 
     49 N           3.2979  -12.6281  -41.2035 N.am      5 UNK        -0.5000 
     50 C           2.8394  -12.5872  -39.9437 C.2       4 UNK         0.5000 
     51 O           3.2737  -13.3012  -39.0390 O.2       4 UNK        -0.5000 
     52 CA          1.6967  -11.5990  -39.6335 C.3       4 UNK         0.1400 
     53 CB          2.2573  -10.3084  -39.0165 C.3       4 UNK        -0.1800 
     54 N           0.8598  -11.2486  -40.7846 N.am      4 UNK        -0.5000 
     55 C           0.1131  -12.1031  -41.4971 C.2       3 UNK         0.5000 
     56 O           0.0855  -13.3176  -41.2942 O.2       3 UNK        -0.5000 
     57 CA         -0.7384  -11.5236  -42.6450 C.3       3 UNK         0.1400 
     58 CB         -0.7148   -9.9808  -42.7454 C.3       3 UNK        -0.1800 
     59 N          -0.3879  -12.1301  -43.9329 N.am      3 UNK        -0.5000 
     60 C           0.8085  -12.1005  -44.5373 C.2       2 UNK         0.5000 
     61 O           1.8049  -11.5579  -44.0526 O.2       2 UNK        -0.5000 
     62 CA          0.8844  -12.7954  -45.9127 C.3       2 UNK         0.1400 
     63 CB         -0.2048  -12.2852  -46.8744 C.3       2 UNK        -0.1800 
     64 N           2.1816  -12.5897  -46.5498 N.am      2 UNK        -0.5000 
     65 C           3.2720  -13.3411  -46.3583 C.2       1 UNK         0.5000 
     66 O           3.2661  -14.3803  -45.6939 O.2       1 UNK        -0.5000 
     67 C          -1.4706  -22.5196  -48.6308 C.2       11 UNK         0.5000 
     68 O          -1.8013  -23.5381  -49.2363 O.2       11 UNK        -0.5000 
     69 N          -2.3485  -21.6181  -48.1661 N.am      12 UNK        -0.5000 
     70 CA         -3.8022  -21.7539  -48.2800 C.3       12 UNK         0.1400 
     71 CB         -4.4926  -20.4780  -47.7786 C.3       12 UNK        -0.1800 
     72 C          -4.3450  -22.9968  -47.5544 C.2       12 UNK         0.5000 
     73 O          -5.1793  -23.7044  -48.1181 O.2       12 UNK        -0.5000 
     74 N          -3.8334  -23.2663  -46.3457 N.am      13 UNK        -0.5000 
     75 CA         -4.1426  -24.4613  -45.5620 C.3       13 UNK         0.1400 
     76 CB         -3.5465  -24.3282  -44.1526 C.3       13 UNK        -0.1800 
     77 C          -3.6624  -25.7543  -46.2450 C.2       13 UNK         0.5000 
     78 O          -4.4289  -26.7148  -46.3195 O.2       13 UNK        -0.5000 
     79 N          -2.4275  -25.7445  -46.7687 N.am      14 UNK        -0.5000 
     80 CA         -1.8271  -26.8569  -47.5109 C.3       14 UNK         0.1400 
     81 CB         -0.3446  -26.5565  -47.7781 C.3       14 UNK        -0.1800 
     82 C          -2.5646  -27.1749  -48.8259 C.2       14 UNK         0.5000 
     83 O          -2.7378  -28.3479  -49.1585 O.2       14 UNK        -0.5000 
     84 N          -3.0155  -26.1279  -49.5290 N.am      15 UNK        -0.5000 
     85 CA         -3.8298  -26.2173  -50.7420 C.3       15 UNK         0.1400 
     86 CB         -3.7392  -24.8811  -51.4975 C.3       15 UNK        -0.1800 
     87 C          -5.3056  -26.5719  -50.4706 C.2       15 UNK         0.5000 
     88 O          -6.0368  -26.8270  -51.4259 O.2       15 UNK        -0.5000 
     89 N          -5.7335  -26.5445  -49.1991 N.am      16 UNK        -0.5000 
     90 CA         -7.1109  -26.7203  -48.7237 C.3       16 UNK         0.1400 
     91 CB         -7.5885  -28.1700  -48.9475 C.3       16 UNK        -0.1800 
     92 C          -8.0716  -25.6619  -49.3099 C.2       16 UNK         0.5000 
     93 O          -9.1928  -25.9849  -49.7059 O.2       16 UNK        -0.5000 
     94 N          -7.5843  -24.4139  -49.3686 N.am      17 UNK        -0.5000 
     95 CA         -8.2278  -23.2097  -49.9029 C.3       17 UNK         0.1400 
     96 CB         -9.4869  -22.8505  -49.0867 C.3       17 UNK        -0.1800 
     97 C          -8.4922  -23.2404  -51.4254 C.2       17 UNK         0.5000 
     98 O          -9.2862  -22.4349  -51.9157 O.2       17 UNK        -0.5000 
     99 N          -7.8201  -24.1401  -52.1582 N.am      18 UNK        -0.5000 
    100 CA        -7.8611  -24.2075  -53.6192 C.3       18 UNK         0.1400 
    101 CB        -7.2992  -25.5612  -54.0799 C.3       18 UNK        -0.1800 
    102 C         -7.0719  -23.0565  -54.2708 C.2       18 UNK         0.5000 
    103 O         -6.1740  -22.4839  -53.6479 O.2       18 UNK        -0.5000 
    104 N         -7.3813  -22.7912  -55.5474 N.am      19 UNK        -0.5000 
    105 CA        -6.7920  -21.7396  -56.3878 C.3       19 UNK         0.1400 
    106 CB        -7.5952  -21.6551  -57.6961 C.3       19 UNK        -0.1800 
    107 C         -5.2829  -21.8944  -56.6834 C.2       19 UNK         0.5000 
    108 O         -4.6852  -20.9879  -57.2650 O.2       19 UNK        -0.5000 
    109 N         -4.6863  -23.0214  -56.2706 N.am      20 UNK        -0.5000 
    110 CA        -3.2431  -23.2632  -56.2566 C.3       20 UNK         0.1400 
    111 CB        -2.9952  -24.7373  -55.8997 C.3       20 UNK        -0.1800 
    112 C         -2.4781  -22.3389  -55.2840 C.2       20 UNK         0.5000 
    113 O         -1.2800  -22.1276  -55.4771 O.2       20 UNK        -0.5000 
    114 N         -3.1754  -21.8022  -54.2745 N.am      21 UNK        -0.5000 
    115 CA        -2.6776  -20.8003  -53.3382 C.3       21 UNK         0.1400 
    116 CB        -2.7121  -21.3938  -51.9221 C.3       21 UNK        -0.1800 
    117 C         -3.5490  -19.5356  -53.4160 C.2       21 UNK         0.5000 
    118 O         -4.6467  -19.5615  -53.9774 O.2       21 UNK        -0.5000 
    119 N         -3.0417  -18.4492  -52.8264 N.am      22 UNK        -0.5000 
    120 CA        -3.7242  -17.1505  -52.6960 C.3       22 UNK         0.1400 
    121 C         -4.8423  -17.0970  -51.6105 C.2       22 UNK         0.5000 
    122 N         -5.0247  -18.1205  -50.7852 N.am      22 UNK        -0.7600 
    123 O         -5.5706  -16.1116  -51.5275 O.2       22 UNK        -0.5000 
    124 C124       -2.7055  -15.9895  -52.5361 C.3       23 UNK        -0.0398 
    125 S125       -1.4640  -16.2854  -51.2255 S.3       23 UNK        -0.2404 
    126 C126        0.0511  -16.4455  -52.2181 C.3       23 UNK        -0.0205 
    127 H127        4.0777   -9.5605  -49.2506 H         1 UNK         0.0600 
    128 H128        5.1559   -8.5726  -48.2610 H         1 UNK         0.0600 
    129 H129        3.4243   -8.6114  -47.9123 H         1 UNK         0.0600 
    130 H130        4.2277  -11.7337  -48.7637 H         1 UNK         0.3000 
    131 H131        5.2578  -12.6398  -46.1754 H         1 UNK         0.0600 
    132 H132        6.2641  -13.5617  -48.1827 H         1 UNK         0.0800 
    133 H133        5.5252  -14.8049  -47.2375 H         1 UNK         0.0800 
    134 H134        3.1054  -15.8784  -47.9146 H         1 UNK         0.0800 
    135 H135        4.6011  -16.6449  -48.4057 H         1 UNK         0.0800 
    136 H136        1.6994  -15.2420  -50.4089 H         1 UNK         0.1150 
    137 H137        0.8731  -19.0420  -52.2181 H         1 UNK         0.1150 
    138 H138        4.0517  -18.6779  -49.3761 H         1 UNK         0.1150 
    139 H139        2.2683  -20.9396  -51.7854 H         1 UNK         0.0800 
    140 H140        3.8753  -20.6149  -51.1857 H         1 UNK         0.0800 
    141 H141        0.2660  -21.5356  -50.3906 H         1 UNK         0.0800 
    142 H142        0.3296  -20.2739  -49.1795 H         1 UNK         0.0800 
    143 H143        0.5173  -23.2408  -48.4696 H         1 UNK         0.0600 
    144 H144        0.6567  -20.9244  -46.8310 H         1 UNK         0.3000 
    145 H145       -0.3922  -22.5471  -43.7790 H         1 UNK         0.0600 
    146 H146        1.7333  -21.4333  -43.0928 H         1 UNK         0.0600 
    147 H147        2.0412  -22.8956  -44.0188 H         1 UNK         0.0600 
    148 H148        2.2330  -21.3239  -44.7789 H         1 UNK         0.0600 
    149 H149        0.2105  -19.8221  -44.2988 H         1 UNK         0.3000 
    150 H150       -3.0786  -18.7844  -45.2673 H         1 UNK         0.0600 
    151 H151       -3.1197  -18.7951  -42.7885 H         1 UNK         0.0600 
    152 H152       -2.6740  -17.2060  -43.3894 H         1 UNK         0.0600 
    153 H153       -1.4422  -18.2778  -42.7245 H         1 UNK         0.0600 
    154 H154       -0.5654  -17.4319  -44.9141 H         1 UNK         0.3000 
    155 H155        0.5640  -17.7462  -48.2782 H         1 UNK         0.0600 
    156 H156       -0.6464  -15.4045  -46.7109 H         1 UNK         0.0600 
    157 H157        0.5500  -15.2471  -48.0035 H         1 UNK         0.0600 
    158 H158       -1.0530  -15.8771  -48.3471 H         1 UNK         0.0600 
    159 H159        1.6072  -16.3768  -45.9870 H         1 UNK         0.3000 
    160 H160        3.3720  -19.0927  -44.5619 H         1 UNK         0.0600 
    161 H161        4.5334  -16.6804  -46.0270 H         1 UNK         0.0600 
    162 H162        4.8476  -18.3541  -46.4811 H         1 UNK         0.0600 
    163 H163        5.3625  -17.7549  -44.9114 H         1 UNK         0.0600 
    164 H164        3.3491  -16.3022  -43.9565 H         1 UNK         0.3000 
    165 H165        0.5506  -15.9674  -42.2553 H         1 UNK         0.0600 
    166 H166        1.2705  -16.1992  -39.8849 H         1 UNK         0.0600 
    167 H167        0.8231  -17.7526  -40.5688 H         1 UNK         0.0600 
    168 H168        2.5214  -17.3465  -40.3635 H         1 UNK         0.0600 
    169 H169        1.8757  -14.2502  -42.0664 H         1 UNK         0.3000 
    170 H170        5.0931  -13.6584  -40.9332 H         1 UNK         0.0600 
    171 H171        5.5935  -13.8012  -43.4244 H         1 UNK         0.0600 
    172 H172        4.1645  -12.8139  -43.7116 H         1 UNK         0.0600 
    173 H173        5.5118  -12.1630  -42.7917 H         1 UNK         0.0600 
    174 H174        2.8850  -12.0155  -41.8953 H         1 UNK         0.3000 
    175 H175        1.0513  -12.0773  -38.8939 H         1 UNK         0.0600 
    176 H176        2.8878   -9.7667  -39.7227 H         1 UNK         0.0600 
    177 H177        1.4558   -9.6408  -38.6996 H         1 UNK         0.0600 
    178 H178        2.8631  -10.5262  -38.1357 H         1 UNK         0.0600 
    179 H179        0.8421  -10.2729  -41.0434 H         1 UNK         0.3000 
    180 H180       -1.7666  -11.8207  -42.4337 H         1 UNK         0.0600 
    181 H181        0.2822   -9.5927  -42.9566 H         1 UNK         0.0600 
    182 H182       -1.0653   -9.5195  -41.8212 H         1 UNK         0.0600 
    183 H183       -1.3745   -9.6354  -43.5414 H         1 UNK         0.0600 
    184 H184       -1.1407  -12.6263  -44.3879 H         1 UNK         0.3000 
    185 H185        0.7354  -13.8616  -45.7416 H         1 UNK         0.0600 
    186 H186       -0.1548  -11.2027  -46.9996 H         1 UNK         0.0600 
    187 H187       -0.1028  -12.7385  -47.8608 H         1 UNK         0.0600 
    188 H188       -1.2050  -12.5305  -46.5165 H         1 UNK         0.0600 
    189 H189        2.2944  -11.7311  -47.0672 H         1 UNK         0.3000 
    190 H190       -2.0029  -20.7705  -47.7236 H         1 UNK         0.3000 
    191 H191       -4.0408  -21.8686  -49.3376 H         1 UNK         0.0600 
    192 H192       -4.3132  -20.3135  -46.7166 H         1 UNK         0.0600 
    193 H193       -5.5720  -20.5370  -47.9233 H         1 UNK         0.0600 
    194 H194       -4.1382  -19.5990  -48.3169 H         1 UNK         0.0600 
    195 H195       -3.1917  -22.5993  -45.9250 H         1 UNK         0.3000 
    196 H196       -5.2285  -24.5220  -45.4642 H         1 UNK         0.0600 
    197 H197       -3.7785  -25.2041  -43.5456 H         1 UNK         0.0600 
    198 H198       -3.9507  -23.4576  -43.6359 H         1 UNK         0.0600 
    199 H199       -2.4617  -24.2246  -44.1803 H         1 UNK         0.0600 
    200 H200       -1.8436  -24.9240  -46.6309 H         1 UNK         0.3000 
    201 H201       -1.8835  -27.7450  -46.8782 H         1 UNK         0.0600 
    202 H202        0.2014  -26.4068  -46.8466 H         1 UNK         0.0600 
    203 H203       -0.2190  -25.6608  -48.3867 H         1 UNK         0.0600 
    204 H204        0.1328  -27.3826  -48.3064 H         1 UNK         0.0600 
    205 H205       -2.7621  -25.1909  -49.2248 H         1 UNK         0.3000 
    206 H206       -3.4183  -27.0000  -51.3823 H         1 UNK         0.0600 
    207 H207       -2.7073  -24.6471  -51.7588 H         1 UNK         0.0600 
    208 H208       -4.3090  -24.9077  -52.4268 H         1 UNK         0.0600 
    209 H209       -4.1293  -24.0576  -50.8983 H         1 UNK         0.0600 
    210 H210       -5.0583  -26.3076  -48.4834 H         1 UNK         0.3000 
    211 H211       -7.0851  -26.5444  -47.6474 H         1 UNK         0.0600 
    212 H212       -7.6926  -28.4055  -50.0070 H         1 UNK         0.0600 
    213 H213       -8.5590  -28.3374  -48.4791 H         1 UNK         0.0600 
    214 H214       -6.8907  -28.8850  -48.5117 H         1 UNK         0.0600 
    215 H215       -6.6501  -24.2604  -48.9890 H         1 UNK         0.3000 
    216 H216       -7.5054  -22.4064  -49.7511 H         1 UNK         0.0600 
    217 H217       -9.8698  -21.8687  -49.3673 H         1 UNK         0.0600 
    218 H218       -9.2684  -22.8172  -48.0193 H         1 UNK         0.0600 
    219 H219      -10.2908  -23.5700  -49.2435 H         1 UNK         0.0600 
    220 H220       -7.1899  -24.7790  -51.6931 H         1 UNK         0.3000 
    221 H221       -8.9036  -24.1390  -53.9373 H         1 UNK         0.0600 
    222 H222       -7.4090  -25.6878  -55.1575 H         1 UNK         0.0600 
    223 H223       -6.2383  -25.6577  -53.8471 H         1 UNK         0.0600 
    224 H224       -7.8238  -26.3895  -53.6031 H         1 UNK         0.0600 
    225 H225       -8.1099  -23.3370  -55.9849 H         1 UNK         0.3000 
    226 H226       -6.9077  -20.7935  -55.8548 H         1 UNK         0.0600 
    227 H227       -8.6483  -21.4511  -57.5014 H         1 UNK         0.0600 
    228 H228       -7.2256  -20.8513  -58.3343 H         1 UNK         0.0600 
    229 H229       -7.5310  -22.5825  -58.2665 H         1 UNK         0.0600 
    230 H230       -5.2609  -23.7097  -55.8089 H         1 UNK         0.3000 
    231 H231       -2.8576  -23.0794  -57.2615 H         1 UNK         0.0600 
    232 H232       -1.9289  -24.9670  -55.9062 H         1 UNK         0.0600 
    233 H233       -3.4742  -25.4039  -56.6171 H         1 UNK         0.0600 
    234 H234       -3.3769  -24.9804  -54.9071 H         1 UNK         0.0600 
    235 H235       -4.1734  -21.9801  -54.2170 H         1 UNK         0.3000 
    236 H236       -1.6513  -20.5163  -53.5797 H         1 UNK         0.0600 
    237 H237       -2.0658  -22.2682  -51.8493 H         1 UNK         0.0600 
    238 H238       -2.3678  -20.6764  -51.1763 H         1 UNK         0.0600 
    239 H239       -3.7222  -21.7007  -51.6494 H         1 UNK         0.0600 
    240 H240       -2.1466  -18.5057  -52.3630 H         1 UNK         0.3000 
    241 H241       -4.2484  -16.9720  -53.6369 H         1 UNK         0.0600 
    242 H242       -4.4400  -18.9358  -50.8471 H         1 UNK         0.3800 
    243 H243       -5.7571  -18.0719  -50.0955 H         1 UNK         0.3800 
    244 H244       -2.1938  -15.8323  -53.4862 H         1 UNK         0.0800 
    245 H245       -3.2121  -15.0452  -52.3295 H         1 UNK         0.0800 
    246 H246       -0.1494  -17.0497  -53.1043 H         1 UNK         0.0800 
    247 H247        0.3534  -15.4609  -52.5781 H         1 UNK         0.0800 
@<TRIPOS>BOND
     1    1    2 1    
     2    1  127 1    
     3    1  128 1    
     4    1  129 1    
     5    2    3 2    
     6    2    4 am   BACKBONE|DICT|INTERRES
     7    4    5 1    
     8    4  130 1    
     9    5    6 1    
    10    5   65 1    
    11    5  131 1    
    12    6    7 1    
    13    6  132 1    
    14    6  133 1    
    15    7    8 1    
    16    8    9 1    
    17    8  134 1    
    18    8  135 1    
    19    9   10 ar   
    20    9   14 ar   
    21   10   11 ar   
    22   10  136 1    
    23   11   12 ar   
    24   11  126 1    
    25   12   13 ar   
    26   12  137 1    
    27   13   14 ar   
    28   13   15 1    
    29   14  138 1    
    30   15   16 1    
    31   15  139 1    
    32   15  140 1    
    33   16   17 1    
    34   17   18 1    
    35   17  141 1    
    36   17  142 1    
    37   18   19 1    
    38   18   67 1    
    39   18  143 1    
    40   19   20 am   BACKBONE|DICT|INTERRES
    41   19  144 1    
    42   20   21 2    
    43   20   22 1    
    44   22   23 1    
    45   22   24 1    
    46   22  145 1    
    47   23  146 1    
    48   23  147 1    
    49   23  148 1    
    50   24   25 am   BACKBONE|DICT|INTERRES
    51   24  149 1    
    52   25   26 2    
    53   25   27 1    
    54   27   28 1    
    55   27   29 1    
    56   27  150 1    
    57   28  151 1    
    58   28  152 1    
    59   28  153 1    
    60   29   30 am   BACKBONE|DICT|INTERRES
    61   29  154 1    
    62   30   31 2    
    63   30   32 1    
    64   32   33 1    
    65   32   34 1    
    66   32  155 1    
    67   33  156 1    
    68   33  157 1    
    69   33  158 1    
    70   34   35 am   BACKBONE|DICT|INTERRES
    71   34  159 1    
    72   35   36 2    
    73   35   37 1    
    74   37   38 1    
    75   37   39 1    
    76   37  160 1    
    77   38  161 1    
    78   38  162 1    
    79   38  163 1    
    80   39   40 am   BACKBONE|DICT|INTERRES
    81   39  164 1    
    82   40   41 2    
    83   40   42 1    
    84   42   43 1    
    85   42   44 1    
    86   42  165 1    
    87   43  166 1    
    88   43  167 1    
    89   43  168 1    
    90   44   45 am   BACKBONE|DICT|INTERRES
    91   44  169 1    
    92   45   46 2    
    93   45   47 1    
    94   47   48 1    
    95   47   49 1    
    96   47  170 1    
    97   48  171 1    
    98   48  172 1    
    99   48  173 1    
   100   49   50 am   BACKBONE|DICT|INTERRES
   101   49  174 1    
   102   50   51 2    
   103   50   52 1    
   104   52   53 1    
   105   52   54 1    
   106   52  175 1    
   107   53  176 1    
   108   53  177 1    
   109   53  178 1    
   110   54   55 am   BACKBONE|DICT|INTERRES
   111   54  179 1    
   112   55   56 2    
   113   55   57 1    
   114   57   58 1    
   115   57   59 1    
   116   57  180 1    
   117   58  181 1    
   118   58  182 1    
   119   58  183 1    
   120   59   60 am   BACKBONE|DICT|INTERRES
   121   59  184 1    
   122   60   61 2    
   123   60   62 1    
   124   62   63 1    
   125   62   64 1    
   126   62  185 1    
   127   63  186 1    
   128   63  187 1    
   129   63  188 1    
   130   64   65 am   BACKBONE|DICT|INTERRES
   131   64  189 1    
   132   65   66 2    
   133   67   68 2    
   134   67   69 am   BACKBONE|DICT|INTERRES
   135   69   70 1    
   136   69  190 1    
   137   70   71 1    
   138   70   72 1    
   139   70  191 1    
   140   71  192 1    
   141   71  193 1    
   142   71  194 1    
   143   72   73 2    
   144   72   74 am   BACKBONE|DICT|INTERRES
   145   74   75 1    
   146   74  195 1    
   147   75   76 1    
   148   75   77 1    
   149   75  196 1    
   150   76  197 1    
   151   76  198 1    
   152   76  199 1    
   153   77   78 2    
   154   77   79 am   BACKBONE|DICT|INTERRES
   155   79   80 1    
   156   79  200 1    
   157   80   81 1    
   158   80   82 1    
   159   80  201 1    
   160   81  202 1    
   161   81  203 1    
   162   81  204 1    
   163   82   83 2    
   164   82   84 am   BACKBONE|DICT|INTERRES
   165   84   85 1    
   166   84  205 1    
   167   85   86 1    
   168   85   87 1    
   169   85  206 1    
   170   86  207 1    
   171   86  208 1    
   172   86  209 1    
   173   87   88 2    
   174   87   89 am   BACKBONE|DICT|INTERRES
   175   89   90 1    
   176   89  210 1    
   177   90   91 1    
   178   90   92 1    
   179   90  211 1    
   180   91  212 1    
   181   91  213 1    
   182   91  214 1    
   183   92   93 2    
   184   92   94 am   BACKBONE|DICT|INTERRES
   185   94   95 1    
   186   94  215 1    
   187   95   96 1    
   188   95   97 1    
   189   95  216 1    
   190   96  217 1    
   191   96  218 1    
   192   96  219 1    
   193   97   98 2    
   194   97   99 am   BACKBONE|DICT|INTERRES
   195   99  100 1    
   196   99  220 1    
   197  100  101 1    
   198  100  102 1    
   199  100  221 1    
   200  101  222 1    
   201  101  223 1    
   202  101  224 1    
   203  102  103 2    
   204  102  104 am   BACKBONE|DICT|INTERRES
   205  104  105 1    
   206  104  225 1    
   207  105  106 1    
   208  105  107 1    
   209  105  226 1    
   210  106  227 1    
   211  106  228 1    
   212  106  229 1    
   213  107  108 2    
   214  107  109 am   BACKBONE|DICT|INTERRES
   215  109  110 1    
   216  109  230 1    
   217  110  111 1    
   218  110  112 1    
   219  110  231 1    
   220  111  232 1    
   221  111  233 1    
   222  111  234 1    
   223  112  113 2    
   224  112  114 am   BACKBONE|DICT|INTERRES
   225  114  115 1    
   226  114  235 1    
   227  115  116 1    
   228  115  117 1    
   229  115  236 1    
   230  116  237 1    
   231  116  238 1    
   232  116  239 1    
   233  117  118 2    
   234  117  119 am   BACKBONE|DICT|INTERRES
   235  119  120 1    
   236  119  240 1    
   237  120  121 1    
   238  120  124 1    
   239  120  241 1    
   240  121  122 am   BACKBONE|DICT|INTERRES
   241  121  123 2    
   242  122  242 1    
   243  122  243 1    
   244  124  125 1    
   245  124  244 1    
   246  124  245 1    
   247  125  126 1    
   248  126  246 1    
   249  126  247 1    
@<TRIPOS>SUBSTRUCTURE
     1 UNK         1 GROUP             0       ****    0 ROOT    
