@<TRIPOS>MOLECULE
3R540
247   249    1
SMALL
USER_CHARGES


@<TRIPOS>ATOM
      1 CA          4.0004  -12.4295  -49.7602 C.3       0 UNK        -0.1800 
      2 C           2.5440  -12.7330  -49.4428 C.2       0 UNK         0.5000 
      3 O           2.0239  -12.2491  -48.4385 O.2       0 UNK        -0.5000 
      4 N           1.8792  -13.5135  -50.3063 N.am      1 UNK        -0.5000 
      5 CA          0.5030  -14.0169  -50.1536 C.3       1 UNK         0.1400 
      6 C6          0.1584  -15.0922  -51.2099 C.3       23 UNK        -0.0398 
      7 S7          1.3138  -16.5041  -51.2245 S.3       23 UNK        -0.2404 
      8 C8          0.5589  -17.5921  -49.9761 C.3       23 UNK        -0.0205 
      9 C9          1.0079  -19.0314  -50.1656 C.ar      23 UNK        -0.0193 
     10 C10         0.3767  -19.8243  -51.1258 C.ar      23 UNK        -0.1150 
     11 C11         0.7454  -21.1620  -51.3158 C.ar      23 UNK        -0.0193 
     12 C12         1.7732  -21.6914  -50.5288 C.ar      23 UNK        -0.1150 
     13 C13         2.4117  -20.9131  -49.5561 C.ar      23 UNK        -0.0193 
     14 C14         2.0285  -19.5788  -49.3837 C.ar      23 UNK        -0.1150 
     15 C15         3.5095  -21.5243  -48.6911 C.3       23 UNK        -0.0205 
     16 S16         3.0773  -21.5870  -46.9180 S.3       23 UNK        -0.2404 
     17 C17         1.4872  -22.4795  -46.9277 C.3       23 UNK        -0.0398 
     18 CA          1.4762  -23.7459  -46.0404 C.3       11 UNK         0.1400 
     19 N           1.6827  -23.4415  -44.6261 N.am      11 UNK        -0.5000 
     20 C           2.1682  -24.3062  -43.7262 C.2       10 UNK         0.5000 
     21 O           2.5239  -25.4498  -44.0191 O.2       10 UNK        -0.5000 
     22 CA          2.2477  -23.8343  -42.2575 C.3       10 UNK         0.1400 
     23 CB          3.4017  -24.5038  -41.4821 C.3       10 UNK        -0.1800 
     24 N           2.2870  -22.3773  -42.0859 N.am      10 UNK        -0.5000 
     25 C           3.2242  -21.5167  -42.5065 C.2       9 UNK         0.5000 
     26 O           4.2136  -21.8540  -43.1584 O.2       9 UNK        -0.5000 
     27 CA          3.0164  -20.0328  -42.1189 C.3       9 UNK         0.1400 
     28 CB          4.0543  -19.1034  -42.7740 C.3       9 UNK        -0.1800 
     29 N           1.6737  -19.5257  -42.4224 N.am      9 UNK        -0.5000 
     30 C           0.5419  -19.8142  -41.7640 C.2       8 UNK         0.5000 
     31 O           0.4987  -20.5855  -40.8044 O.2       8 UNK        -0.5000 
     32 CA         -0.7649  -19.1548  -42.2502 C.3       8 UNK         0.1400 
     33 CB         -1.1910  -18.0397  -41.2843 C.3       8 UNK        -0.1800 
     34 N          -0.6926  -18.6076  -43.6059 N.am      8 UNK        -0.5000 
     35 C          -0.5926  -19.3371  -44.7256 C.2       7 UNK         0.5000 
     36 O          -0.5517  -20.5667  -44.7345 O.2       7 UNK        -0.5000 
     37 CA         -0.4937  -18.5551  -46.0487 C.3       7 UNK         0.1400 
     38 CB         -1.8909  -18.1951  -46.5800 C.3       7 UNK        -0.1800 
     39 N           0.2998  -17.3340  -45.8966 N.am      7 UNK        -0.5000 
     40 C           1.6366  -17.3172  -45.7980 C.2       6 UNK         0.5000 
     41 O           2.3401  -18.3189  -45.9028 O.2       6 UNK        -0.5000 
     42 CA          2.3011  -15.9612  -45.5036 C.3       6 UNK         0.1400 
     43 CB          2.5630  -15.1935  -46.8047 C.3       6 UNK        -0.1800 
     44 N           1.5064  -15.1301  -44.5989 N.am      6 UNK        -0.5000 
     45 C           1.3608  -15.3785  -43.2887 C.2       5 UNK         0.5000 
     46 O           1.9057  -16.3161  -42.7086 O.2       5 UNK        -0.5000 
     47 CA          0.4292  -14.4444  -42.4918 C.3       5 UNK         0.1400 
     48 CB          1.2266  -13.2717  -41.9018 C.3       5 UNK        -0.1800 
     49 N          -0.6878  -13.9137  -43.2733 N.am      5 UNK        -0.5000 
     50 C          -1.6189  -14.6407  -43.9079 C.2       4 UNK         0.5000 
     51 O          -1.6580  -15.8705  -43.8843 O.2       4 UNK        -0.5000 
     52 CA         -2.6491  -13.8627  -44.7500 C.3       4 UNK         0.1400 
     53 CB         -3.9585  -13.6865  -43.9676 C.3       4 UNK        -0.1800 
     54 N          -2.1668  -12.5483  -45.1914 N.am      4 UNK        -0.5000 
     55 C          -1.1453  -12.3646  -46.0382 C.2       3 UNK         0.5000 
     56 O          -0.4984  -13.2902  -46.5351 O.2       3 UNK        -0.5000 
     57 CA         -0.7439  -10.9108  -46.3283 C.3       3 UNK         0.1400 
     58 CB          0.5376  -10.5500  -45.5607 C.3       3 UNK        -0.1800 
     59 N          -0.4981  -10.7727  -47.7577 N.am      3 UNK        -0.5000 
     60 C          -1.3803  -10.2866  -48.6422 C.2       2 UNK         0.5000 
     61 O          -2.4328   -9.7310  -48.3248 O.2       2 UNK        -0.5000 
     62 CA         -1.0523  -10.4817  -50.1386 C.3       2 UNK         0.1400 
     63 CB         -0.3414   -9.2424  -50.7030 C.3       2 UNK        -0.1800 
     64 N          -0.2219  -11.6617  -50.3844 N.am      2 UNK        -0.5000 
     65 C          -0.5922  -12.9247  -50.1286 C.2       1 UNK         0.5000 
     66 O          -1.7504  -13.2423  -49.8560 O.2       1 UNK        -0.5000 
     67 C           0.1507  -24.5155  -46.1951 C.2       11 UNK         0.5000 
     68 O          -0.9021  -23.8975  -46.3642 O.2       11 UNK        -0.5000 
     69 N           0.2171  -25.8528  -46.1450 N.am      12 UNK        -0.5000 
     70 CA         -0.9323  -26.7501  -46.3121 C.3       12 UNK         0.1400 
     71 CB         -0.4779  -28.2030  -46.1113 C.3       12 UNK        -0.1800 
     72 C          -1.6413  -26.5849  -47.6711 C.2       12 UNK         0.5000 
     73 O          -2.8674  -26.6723  -47.7345 O.2       12 UNK        -0.5000 
     74 N          -0.8594  -26.2909  -48.7199 N.am      13 UNK        -0.5000 
     75 CA         -1.3496  -25.9624  -50.0580 C.3       13 UNK         0.1400 
     76 CB         -0.1623  -25.8948  -51.0302 C.3       13 UNK        -0.1800 
     77 C          -2.1554  -24.6507  -50.0920 C.2       13 UNK         0.5000 
     78 O          -3.1738  -24.5892  -50.7787 O.2       13 UNK        -0.5000 
     79 N          -1.7127  -23.6427  -49.3242 N.am      14 UNK        -0.5000 
     80 CA         -2.4121  -22.3653  -49.1780 C.3       14 UNK         0.1400 
     81 CB         -1.5152  -21.3243  -48.4949 C.3       14 UNK        -0.1800 
     82 C          -3.7096  -22.5341  -48.3803 C.2       14 UNK         0.5000 
     83 O          -4.7302  -21.9732  -48.7706 O.2       14 UNK        -0.5000 
     84 N          -3.6567  -23.3262  -47.3002 N.am      15 UNK        -0.5000 
     85 CA         -4.8084  -23.6696  -46.4662 C.3       15 UNK         0.1400 
     86 CB         -4.3424  -24.4876  -45.2528 C.3       15 UNK        -0.1800 
     87 C          -5.9023  -24.4130  -47.2550 C.2       15 UNK         0.5000 
     88 O          -7.0750  -24.0525  -47.1503 O.2       15 UNK        -0.5000 
     89 N          -5.4924  -25.3885  -48.0789 N.am      16 UNK        -0.5000 
     90 CA         -6.3622  -26.1281  -48.9967 C.3       16 UNK         0.1400 
     91 CB         -5.5700  -27.2846  -49.6247 C.3       16 UNK        -0.1800 
     92 C          -6.9851  -25.2404  -50.0927 C.2       16 UNK         0.5000 
     93 O          -8.1398  -25.4540  -50.4631 O.2       16 UNK        -0.5000 
     94 N          -6.2229  -24.2478  -50.5705 N.am      17 UNK        -0.5000 
     95 CA         -6.6497  -23.2631  -51.5667 C.3       17 UNK         0.1400 
     96 CB         -5.4100  -22.7587  -52.3213 C.3       17 UNK        -0.1800 
     97 C          -7.4500  -22.0826  -50.9732 C.2       17 UNK         0.5000 
     98 O          -7.8731  -21.2124  -51.7343 O.2       17 UNK        -0.5000 
     99 N          -7.6374  -22.0605  -49.6446 N.am      18 UNK        -0.5000 
    100 CA        -8.3186  -21.0289  -48.8548 C.3       18 UNK         0.1400 
    101 CB        -9.8175  -20.9523  -49.2149 C.3       18 UNK        -0.1800 
    102 C         -7.6027  -19.6611  -48.9069 C.2       18 UNK         0.5000 
    103 O         -8.2477  -18.6253  -49.0796 O.2       18 UNK        -0.5000 
    104 N         -6.2733  -19.6980  -48.7386 N.am      19 UNK        -0.5000 
    105 CA        -5.3330  -18.5737  -48.7069 C.3       19 UNK         0.1400 
    106 CB        -5.6042  -17.6497  -47.5009 C.3       19 UNK        -0.1800 
    107 C         -5.2433  -17.8252  -50.0514 C.2       19 UNK         0.5000 
    108 O         -5.1871  -16.5941  -50.0791 O.2       19 UNK        -0.5000 
    109 N         -5.2210  -18.5934  -51.1483 N.am      20 UNK        -0.5000 
    110 CA        -4.9753  -18.1017  -52.5035 C.3       20 UNK         0.1400 
    111 CB        -5.3156  -19.2167  -53.5032 C.3       20 UNK        -0.1800 
    112 C         -3.5125  -17.6599  -52.6960 C.2       20 UNK         0.5000 
    113 O         -2.6276  -18.0906  -51.9533 O.2       20 UNK        -0.5000 
    114 N         -3.2683  -16.8572  -53.7379 N.am      21 UNK        -0.5000 
    115 CA        -1.9421  -16.3845  -54.1420 C.3       21 UNK         0.1400 
    116 CB        -2.0917  -15.0305  -54.8583 C.3       21 UNK        -0.1800 
    117 C         -1.1715  -17.4295  -54.9786 C.2       21 UNK         0.5000 
    118 O         -0.6399  -17.1028  -56.0412 O.2       21 UNK        -0.5000 
    119 N         -1.1358  -18.6744  -54.4907 N.am      22 UNK        -0.5000 
    120 CA        -0.4260  -19.8102  -55.1003 C.3       22 UNK         0.1400 
    121 C          1.1149  -19.8317  -54.8685 C.2       22 UNK         0.5000 
    122 N          1.6910  -18.9281  -54.0855 N.am      22 UNK        -0.7600 
    123 O          1.8071  -20.6758  -55.4312 O.2       22 UNK        -0.5000 
    124 C124       -1.1026  -21.1707  -54.7720 C.3       23 UNK        -0.0398 
    125 S125       -1.5197  -21.4517  -53.0140 S.3       23 UNK        -0.2404 
    126 C126        0.0596  -22.0759  -52.3348 C.3       23 UNK        -0.0205 
    127 H127        4.3227  -12.9084  -50.6851 H         1 UNK         0.0600 
    128 H128        4.1458  -11.3543  -49.8636 H         1 UNK         0.0600 
    129 H129        4.6396  -12.7852  -48.9521 H         1 UNK         0.0600 
    130 H130        2.3717  -13.8720  -51.1123 H         1 UNK         0.3000 
    131 H131        0.4496  -14.4969  -49.1759 H         1 UNK         0.0600 
    132 H132        0.1662  -14.6470  -52.2063 H         1 UNK         0.0800 
    133 H133       -0.8531  -15.4739  -51.0568 H         1 UNK         0.0800 
    134 H134       -0.5292  -17.5496  -50.0476 H         1 UNK         0.0800 
    135 H135        0.8180  -17.2349  -48.9782 H         1 UNK         0.0800 
    136 H136       -0.4088  -19.3820  -51.7171 H         1 UNK         0.1150 
    137 H137        2.0663  -22.7230  -50.6647 H         1 UNK         0.1150 
    138 H138        2.5158  -18.9749  -48.6309 H         1 UNK         0.1150 
    139 H139        3.7520  -22.5332  -49.0281 H         1 UNK         0.0800 
    140 H140        4.4204  -20.9361  -48.8090 H         1 UNK         0.0800 
    141 H141        1.2407  -22.7555  -47.9525 H         1 UNK         0.0800 
    142 H142        0.7198  -21.7760  -46.6094 H         1 UNK         0.0800 
    143 H143        2.2859  -24.3911  -46.3888 H         1 UNK         0.0600 
    144 H144        1.3860  -22.5264  -44.3174 H         1 UNK         0.3000 
    145 H145        1.3149  -24.1600  -41.7953 H         1 UNK         0.0600 
    146 H146        3.4253  -24.1710  -40.4444 H         1 UNK         0.0600 
    147 H147        3.2897  -25.5886  -41.4691 H         1 UNK         0.0600 
    148 H148        4.3714  -24.2817  -41.9284 H         1 UNK         0.0600 
    149 H149        1.5176  -21.9759  -41.5554 H         1 UNK         0.3000 
    150 H150        3.1609  -19.9716  -41.0385 H         1 UNK         0.0600 
    151 H151        5.0707  -19.4047  -42.5175 H         1 UNK         0.0600 
    152 H152        3.9323  -18.0740  -42.4381 H         1 UNK         0.0600 
    153 H153        3.9720  -19.1148  -43.8613 H         1 UNK         0.0600 
    154 H154        1.6119  -18.8761  -43.1939 H         1 UNK         0.3000 
    155 H155       -1.5392  -19.9246  -42.2428 H         1 UNK         0.0600 
    156 H156       -0.4320  -17.2611  -41.2173 H         1 UNK         0.0600 
    157 H157       -1.3464  -18.4320  -40.2786 H         1 UNK         0.0600 
    158 H158       -2.1253  -17.5748  -41.6001 H         1 UNK         0.0600 
    159 H159       -0.7934  -17.6006  -43.6931 H         1 UNK         0.3000 
    160 H160       -0.0072  -19.2015  -46.7831 H         1 UNK         0.0600 
    161 H161       -1.8317  -17.7474  -47.5722 H         1 UNK         0.0600 
    162 H162       -2.4059  -17.4921  -45.9249 H         1 UNK         0.0600 
    163 H163       -2.5200  -19.0824  -46.6585 H         1 UNK         0.0600 
    164 H164       -0.2094  -16.4736  -45.7521 H         1 UNK         0.3000 
    165 H165        3.2650  -16.1612  -45.0303 H         1 UNK         0.0600 
    166 H166        3.1253  -14.2787  -46.6167 H         1 UNK         0.0600 
    167 H167        3.1393  -15.7934  -47.5104 H         1 UNK         0.0600 
    168 H168        1.6300  -14.9162  -47.2923 H         1 UNK         0.0600 
    169 H169        1.0029  -14.3568  -45.0140 H         1 UNK         0.3000 
    170 H170        0.0084  -15.0192  -41.6658 H         1 UNK         0.0600 
    171 H171        2.0568  -13.6313  -41.2923 H         1 UNK         0.0600 
    172 H172        1.6443  -12.6354  -42.6833 H         1 UNK         0.0600 
    173 H173        0.6006  -12.6507  -41.2608 H         1 UNK         0.0600 
    174 H174       -0.7423  -12.9097  -43.3529 H         1 UNK         0.3000 
    175 H175       -2.8595  -14.4609  -45.6393 H         1 UNK         0.0600 
    176 H176       -4.7239  -13.2107  -44.5810 H         1 UNK         0.0600 
    177 H177       -4.3545  -14.6513  -43.6474 H         1 UNK         0.0600 
    178 H178       -3.8154  -13.0774  -43.0742 H         1 UNK         0.0600 
    179 H179       -2.6492  -11.7433  -44.8177 H         1 UNK         0.3000 
    180 H180       -1.5421  -10.2385  -46.0068 H         1 UNK         0.0600 
    181 H181        1.3680  -11.2041  -45.8313 H         1 UNK         0.0600 
    182 H182        0.3875  -10.6368  -44.4840 H         1 UNK         0.0600 
    183 H183        0.8420   -9.5235  -45.7655 H         1 UNK         0.0600 
    184 H184        0.3189  -11.2706  -48.1014 H         1 UNK         0.3000 
    185 H185       -1.9958  -10.6127  -50.6725 H         1 UNK         0.0600 
    186 H186        0.6197   -9.0734  -50.2156 H         1 UNK         0.0600 
    187 H187       -0.1630   -9.3428  -51.7738 H         1 UNK         0.0600 
    188 H188       -0.9458   -8.3461  -50.5575 H         1 UNK         0.0600 
    189 H189        0.7503  -11.4934  -50.5976 H         1 UNK         0.3000 
    190 H190        1.1076  -26.2869  -45.9424 H         1 UNK         0.3000 
    191 H191       -1.6564  -26.5079  -45.5319 H         1 UNK         0.0600 
    192 H192       -0.0529  -28.3494  -45.1181 H         1 UNK         0.0600 
    193 H193        0.2738  -28.4958  -46.8454 H         1 UNK         0.0600 
    194 H194       -1.3184  -28.8916  -46.2087 H         1 UNK         0.0600 
    195 H195        0.1388  -26.2546  -48.5773 H         1 UNK         0.3000 
    196 H196       -2.0127  -26.7672  -50.3824 H         1 UNK         0.0600 
    197 H197       -0.4967  -25.6457  -52.0383 H         1 UNK         0.0600 
    198 H198        0.3533  -26.8535  -51.0885 H         1 UNK         0.0600 
    199 H199        0.5656  -25.1408  -50.7284 H         1 UNK         0.0600 
    200 H200       -0.9195  -23.7980  -48.7216 H         1 UNK         0.3000 
    201 H201       -2.6598  -21.9992  -50.1765 H         1 UNK         0.0600 
    202 H202       -0.5003  -21.3519  -48.8794 H         1 UNK         0.0600 
    203 H203       -1.4636  -21.4694  -47.4156 H         1 UNK         0.0600 
    204 H204       -1.8984  -20.3195  -48.6724 H         1 UNK         0.0600 
    205 H205       -2.7562  -23.7052  -47.0227 H         1 UNK         0.3000 
    206 H206       -5.2388  -22.7351  -46.1002 H         1 UNK         0.0600 
    207 H207       -3.5890  -23.9473  -44.6789 H         1 UNK         0.0600 
    208 H208       -5.1762  -24.6973  -44.5819 H         1 UNK         0.0600 
    209 H209       -3.9133  -25.4440  -45.5501 H         1 UNK         0.0600 
    210 H210       -4.5118  -25.6550  -48.0706 H         1 UNK         0.3000 
    211 H211       -7.1798  -26.5533  -48.4112 H         1 UNK         0.0600 
    212 H212       -4.7154  -26.9217  -50.1970 H         1 UNK         0.0600 
    213 H213       -6.1966  -27.8671  -50.3011 H         1 UNK         0.0600 
    214 H214       -5.1949  -27.9657  -48.8607 H         1 UNK         0.0600 
    215 H215       -5.2664  -24.1684  -50.2458 H         1 UNK         0.3000 
    216 H216       -7.2998  -23.7587  -52.2905 H         1 UNK         0.0600 
    217 H217       -4.7481  -22.1821  -51.6741 H         1 UNK         0.0600 
    218 H218       -5.6994  -22.1234  -53.1578 H         1 UNK         0.0600 
    219 H219       -4.8345  -23.5861  -52.7364 H         1 UNK         0.0600 
    220 H220       -7.2195  -22.8083  -49.1057 H         1 UNK         0.3000 
    221 H221       -8.2536  -21.3595  -47.8172 H         1 UNK         0.0600 
    222 H222       -9.9762  -20.5728  -50.2245 H         1 UNK         0.0600 
    223 H223      -10.2892  -21.9325  -49.1464 H         1 UNK         0.0600 
    224 H224      -10.3483  -20.2890  -48.5311 H         1 UNK         0.0600 
    225 H225       -5.8329  -20.6160  -48.6697 H         1 UNK         0.3000 
    226 H226       -4.3483  -19.0175  -48.5538 H         1 UNK         0.0600 
    227 H227       -5.6235  -18.2145  -46.5689 H         1 UNK         0.0600 
    228 H228       -6.5547  -17.1244  -47.5965 H         1 UNK         0.0600 
    229 H229       -4.8225  -16.8952  -47.4045 H         1 UNK         0.0600 
    230 H230       -5.2711  -19.5941  -51.0334 H         1 UNK         0.3000 
    231 H231       -5.6301  -17.2471  -52.6861 H         1 UNK         0.0600 
    232 H232       -6.3315  -19.5845  -53.3590 H         1 UNK         0.0600 
    233 H233       -4.6300  -20.0591  -53.4061 H         1 UNK         0.0600 
    234 H234       -5.2452  -18.8586  -54.5309 H         1 UNK         0.0600 
    235 H235       -4.0365  -16.5830  -54.3336 H         1 UNK         0.3000 
    236 H236       -1.3462  -16.2150  -53.2466 H         1 UNK         0.0600 
    237 H237       -1.1178  -14.6149  -55.1204 H         1 UNK         0.0600 
    238 H238       -2.6696  -15.1237  -55.7786 H         1 UNK         0.0600 
    239 H239       -2.5907  -14.3007  -54.2203 H         1 UNK         0.0600 
    240 H240       -1.5857  -18.8559  -53.6003 H         1 UNK         0.3000 
    241 H241       -0.5217  -19.6913  -56.1813 H         1 UNK         0.0600 
    242 H242        2.6883  -18.9596  -53.9491 H         1 UNK         0.3800 
    243 H243        1.1422  -18.2415  -53.5953 H         1 UNK         0.3800 
    244 H244       -2.0451  -21.2225  -55.3184 H         1 UNK         0.0800 
    245 H245       -0.5164  -22.0107  -55.1484 H         1 UNK         0.0800 
    246 H246        0.7612  -22.2913  -53.1410 H         1 UNK         0.0800 
    247 H247       -0.1531  -23.0310  -51.8557 H         1 UNK         0.0800 
@<TRIPOS>BOND
     1    1    2 1    
     2    1  127 1    
     3    1  128 1    
     4    1  129 1    
     5    2    3 2    
     6    2    4 am   BACKBONE|DICT|INTERRES
     7    4    5 1    
     8    4  130 1    
     9    5    6 1    
    10    5   65 1    
    11    5  131 1    
    12    6    7 1    
    13    6  132 1    
    14    6  133 1    
    15    7    8 1    
    16    8    9 1    
    17    8  134 1    
    18    8  135 1    
    19    9   10 ar   
    20    9   14 ar   
    21   10   11 ar   
    22   10  136 1    
    23   11   12 ar   
    24   11  126 1    
    25   12   13 ar   
    26   12  137 1    
    27   13   14 ar   
    28   13   15 1    
    29   14  138 1    
    30   15   16 1    
    31   15  139 1    
    32   15  140 1    
    33   16   17 1    
    34   17   18 1    
    35   17  141 1    
    36   17  142 1    
    37   18   19 1    
    38   18   67 1    
    39   18  143 1    
    40   19   20 am   BACKBONE|DICT|INTERRES
    41   19  144 1    
    42   20   21 2    
    43   20   22 1    
    44   22   23 1    
    45   22   24 1    
    46   22  145 1    
    47   23  146 1    
    48   23  147 1    
    49   23  148 1    
    50   24   25 am   BACKBONE|DICT|INTERRES
    51   24  149 1    
    52   25   26 2    
    53   25   27 1    
    54   27   28 1    
    55   27   29 1    
    56   27  150 1    
    57   28  151 1    
    58   28  152 1    
    59   28  153 1    
    60   29   30 am   BACKBONE|DICT|INTERRES
    61   29  154 1    
    62   30   31 2    
    63   30   32 1    
    64   32   33 1    
    65   32   34 1    
    66   32  155 1    
    67   33  156 1    
    68   33  157 1    
    69   33  158 1    
    70   34   35 am   BACKBONE|DICT|INTERRES
    71   34  159 1    
    72   35   36 2    
    73   35   37 1    
    74   37   38 1    
    75   37   39 1    
    76   37  160 1    
    77   38  161 1    
    78   38  162 1    
    79   38  163 1    
    80   39   40 am   BACKBONE|DICT|INTERRES
    81   39  164 1    
    82   40   41 2    
    83   40   42 1    
    84   42   43 1    
    85   42   44 1    
    86   42  165 1    
    87   43  166 1    
    88   43  167 1    
    89   43  168 1    
    90   44   45 am   BACKBONE|DICT|INTERRES
    91   44  169 1    
    92   45   46 2    
    93   45   47 1    
    94   47   48 1    
    95   47   49 1    
    96   47  170 1    
    97   48  171 1    
    98   48  172 1    
    99   48  173 1    
   100   49   50 am   BACKBONE|DICT|INTERRES
   101   49  174 1    
   102   50   51 2    
   103   50   52 1    
   104   52   53 1    
   105   52   54 1    
   106   52  175 1    
   107   53  176 1    
   108   53  177 1    
   109   53  178 1    
   110   54   55 am   BACKBONE|DICT|INTERRES
   111   54  179 1    
   112   55   56 2    
   113   55   57 1    
   114   57   58 1    
   115   57   59 1    
   116   57  180 1    
   117   58  181 1    
   118   58  182 1    
   119   58  183 1    
   120   59   60 am   BACKBONE|DICT|INTERRES
   121   59  184 1    
   122   60   61 2    
   123   60   62 1    
   124   62   63 1    
   125   62   64 1    
   126   62  185 1    
   127   63  186 1    
   128   63  187 1    
   129   63  188 1    
   130   64   65 am   BACKBONE|DICT|INTERRES
   131   64  189 1    
   132   65   66 2    
   133   67   68 2    
   134   67   69 am   BACKBONE|DICT|INTERRES
   135   69   70 1    
   136   69  190 1    
   137   70   71 1    
   138   70   72 1    
   139   70  191 1    
   140   71  192 1    
   141   71  193 1    
   142   71  194 1    
   143   72   73 2    
   144   72   74 am   BACKBONE|DICT|INTERRES
   145   74   75 1    
   146   74  195 1    
   147   75   76 1    
   148   75   77 1    
   149   75  196 1    
   150   76  197 1    
   151   76  198 1    
   152   76  199 1    
   153   77   78 2    
   154   77   79 am   BACKBONE|DICT|INTERRES
   155   79   80 1    
   156   79  200 1    
   157   80   81 1    
   158   80   82 1    
   159   80  201 1    
   160   81  202 1    
   161   81  203 1    
   162   81  204 1    
   163   82   83 2    
   164   82   84 am   BACKBONE|DICT|INTERRES
   165   84   85 1    
   166   84  205 1    
   167   85   86 1    
   168   85   87 1    
   169   85  206 1    
   170   86  207 1    
   171   86  208 1    
   172   86  209 1    
   173   87   88 2    
   174   87   89 am   BACKBONE|DICT|INTERRES
   175   89   90 1    
   176   89  210 1    
   177   90   91 1    
   178   90   92 1    
   179   90  211 1    
   180   91  212 1    
   181   91  213 1    
   182   91  214 1    
   183   92   93 2    
   184   92   94 am   BACKBONE|DICT|INTERRES
   185   94   95 1    
   186   94  215 1    
   187   95   96 1    
   188   95   97 1    
   189   95  216 1    
   190   96  217 1    
   191   96  218 1    
   192   96  219 1    
   193   97   98 2    
   194   97   99 am   BACKBONE|DICT|INTERRES
   195   99  100 1    
   196   99  220 1    
   197  100  101 1    
   198  100  102 1    
   199  100  221 1    
   200  101  222 1    
   201  101  223 1    
   202  101  224 1    
   203  102  103 2    
   204  102  104 am   BACKBONE|DICT|INTERRES
   205  104  105 1    
   206  104  225 1    
   207  105  106 1    
   208  105  107 1    
   209  105  226 1    
   210  106  227 1    
   211  106  228 1    
   212  106  229 1    
   213  107  108 2    
   214  107  109 am   BACKBONE|DICT|INTERRES
   215  109  110 1    
   216  109  230 1    
   217  110  111 1    
   218  110  112 1    
   219  110  231 1    
   220  111  232 1    
   221  111  233 1    
   222  111  234 1    
   223  112  113 2    
   224  112  114 am   BACKBONE|DICT|INTERRES
   225  114  115 1    
   226  114  235 1    
   227  115  116 1    
   228  115  117 1    
   229  115  236 1    
   230  116  237 1    
   231  116  238 1    
   232  116  239 1    
   233  117  118 2    
   234  117  119 am   BACKBONE|DICT|INTERRES
   235  119  120 1    
   236  119  240 1    
   237  120  121 1    
   238  120  124 1    
   239  120  241 1    
   240  121  122 am   BACKBONE|DICT|INTERRES
   241  121  123 2    
   242  122  242 1    
   243  122  243 1    
   244  124  125 1    
   245  124  244 1    
   246  124  245 1    
   247  125  126 1    
   248  126  246 1    
   249  126  247 1    
@<TRIPOS>SUBSTRUCTURE
     1 UNK         1 GROUP             0       ****    0 ROOT    
