@<TRIPOS>MOLECULE
3R540
247   249    1
SMALL
USER_CHARGES


@<TRIPOS>ATOM
      1 CA          4.9007  -18.7787  -50.1193 C.3       0 UNK        -0.1800 
      2 C           5.2949  -17.3998  -50.6487 C.2       0 UNK         0.5000 
      3 O           5.8456  -17.3181  -51.7449 O.2       0 UNK        -0.5000 
      4 N           5.0433  -16.2915  -49.9352 N.am      1 UNK        -0.5000 
      5 CA          4.4503  -16.1890  -48.5954 C.3       1 UNK         0.1400 
      6 C6          4.0304  -14.7271  -48.2820 C.3       23 UNK        -0.0398 
      7 S7          2.5638  -14.6393  -47.1919 S.3       23 UNK        -0.2404 
      8 C8          1.3196  -13.7908  -48.2245 C.3       23 UNK        -0.0205 
      9 C9          0.4720  -14.7268  -49.0840 C.ar      23 UNK        -0.0193 
     10 C10        -0.9246  -14.6264  -49.0552 C.ar      23 UNK        -0.1150 
     11 C11        -1.7148  -15.4000  -49.9130 C.ar      23 UNK        -0.0193 
     12 C12        -1.0996  -16.3101  -50.7738 C.ar      23 UNK        -0.1150 
     13 C13         0.2897  -16.4378  -50.8014 C.ar      23 UNK        -0.0193 
     14 C14         1.0680  -15.6324  -49.9680 C.ar      23 UNK        -0.1150 
     15 C15         0.9545  -17.4094  -51.7637 C.3       23 UNK        -0.0205 
     16 S16         1.3902  -18.9790  -50.9544 S.3       23 UNK        -0.2404 
     17 C17        -0.2412  -19.7667  -50.7499 C.3       23 UNK        -0.0398 
     18 CA         -0.4656  -20.3036  -49.3197 C.3       11 UNK         0.1400 
     19 N          -0.3280  -19.2769  -48.2812 N.am      11 UNK        -0.5000 
     20 C          -0.1332  -19.5661  -46.9878 C.2       10 UNK         0.5000 
     21 O          -0.0798  -20.7120  -46.5469 O.2       10 UNK        -0.5000 
     22 CA         -0.0099  -18.3842  -46.0162 C.3       10 UNK         0.1400 
     23 CB          1.4115  -17.8153  -46.0639 C.3       10 UNK        -0.1800 
     24 N          -0.9823  -17.3126  -46.2425 N.am      10 UNK        -0.5000 
     25 C          -2.3129  -17.4747  -46.2066 C.2       9 UNK         0.5000 
     26 O          -2.8641  -18.5761  -46.1476 O.2       9 UNK        -0.5000 
     27 CA         -3.1505  -16.1868  -46.1894 C.3       9 UNK         0.1400 
     28 CB         -4.6568  -16.4447  -45.9806 C.3       9 UNK        -0.1800 
     29 N          -2.6509  -15.2861  -45.1531 N.am      9 UNK        -0.5000 
     30 C          -2.7989  -13.9542  -45.1635 C.2       8 UNK         0.5000 
     31 O          -3.3334  -13.3374  -46.0860 O.2       8 UNK        -0.5000 
     32 CA         -2.2792  -13.1667  -43.9416 C.3       8 UNK         0.1400 
     33 CB         -3.4299  -12.8754  -42.9659 C.3       8 UNK        -0.1800 
     34 N          -1.2090  -13.8507  -43.2160 N.am      8 UNK        -0.5000 
     35 C           0.0259  -14.0487  -43.6936 C.2       7 UNK         0.5000 
     36 O           0.4166  -13.5793  -44.7607 O.2       7 UNK        -0.5000 
     37 CA          0.9838  -14.9255  -42.8594 C.3       7 UNK         0.1400 
     38 CB          2.0439  -14.0558  -42.1672 C.3       7 UNK        -0.1800 
     39 N           0.3533  -15.7866  -41.8516 N.am      7 UNK        -0.5000 
     40 C          -0.5855  -16.7182  -42.0634 C.2       6 UNK         0.5000 
     41 O          -1.1356  -16.8974  -43.1497 O.2       6 UNK        -0.5000 
     42 CA         -0.9473  -17.6027  -40.8535 C.3       6 UNK         0.1400 
     43 CB         -2.2102  -18.4456  -41.0993 C.3       6 UNK        -0.1800 
     44 N           0.1579  -18.5005  -40.5213 N.am      6 UNK        -0.5000 
     45 C           1.2815  -18.1504  -39.8811 C.2       5 UNK         0.5000 
     46 O           1.4771  -17.0247  -39.4195 O.2       5 UNK        -0.5000 
     47 CA          2.3777  -19.2266  -39.7488 C.3       5 UNK         0.1400 
     48 CB          2.3152  -19.8866  -38.3628 C.3       5 UNK        -0.1800 
     49 N           2.3202  -20.2715  -40.7778 N.am      5 UNK        -0.5000 
     50 C           2.5560  -20.0745  -42.0813 C.2       4 UNK         0.5000 
     51 O           2.8115  -18.9718  -42.5767 O.2       4 UNK        -0.5000 
     52 CA          2.4804  -21.3162  -42.9829 C.3       4 UNK         0.1400 
     53 CB          1.0231  -21.7189  -43.2568 C.3       4 UNK        -0.1800 
     54 N           3.1294  -20.9819  -44.2399 N.am      4 UNK        -0.5000 
     55 C           3.8667  -21.7878  -45.0089 C.2       3 UNK         0.5000 
     56 O           4.0187  -22.9909  -44.7964 O.2       3 UNK        -0.5000 
     57 CA          4.5625  -21.1282  -46.2192 C.3       3 UNK         0.1400 
     58 CB          3.7795  -21.4222  -47.5094 C.3       3 UNK        -0.1800 
     59 N           4.7070  -19.6751  -46.0749 N.am      3 UNK        -0.5000 
     60 C           5.5220  -19.0571  -45.2054 C.2       2 UNK         0.5000 
     61 O           6.3314  -19.6538  -44.4942 O.2       2 UNK        -0.5000 
     62 CA          5.3620  -17.5252  -45.0799 C.3       2 UNK         0.1400 
     63 CB          6.6540  -16.8141  -44.6260 C.3       2 UNK        -0.1800 
     64 N           4.7889  -16.8985  -46.2791 N.am      2 UNK        -0.5000 
     65 C           5.3540  -16.7866  -47.4895 C.2       1 UNK         0.5000 
     66 O           6.5050  -17.1456  -47.7464 O.2       1 UNK        -0.5000 
     67 C          -1.8109  -21.0510  -49.2331 C.2       11 UNK         0.5000 
     68 O          -1.8860  -22.1923  -49.6878 O.2       11 UNK        -0.5000 
     69 N          -2.8422  -20.4258  -48.6496 N.am      12 UNK        -0.5000 
     70 CA         -4.1240  -21.0741  -48.3835 C.3       12 UNK         0.1400 
     71 CB         -5.2262  -20.0223  -48.2274 C.3       12 UNK        -0.1800 
     72 C          -4.0372  -21.9724  -47.1433 C.2       12 UNK         0.5000 
     73 O          -4.4939  -23.1135  -47.1893 O.2       12 UNK        -0.5000 
     74 N          -3.4027  -21.4636  -46.0788 N.am      13 UNK        -0.5000 
     75 CA         -3.1434  -22.1907  -44.8354 C.3       13 UNK         0.1400 
     76 CB         -2.5969  -21.2109  -43.7896 C.3       13 UNK        -0.1800 
     77 C          -2.2072  -23.4016  -45.0241 C.2       13 UNK         0.5000 
     78 O          -2.4272  -24.4415  -44.4027 O.2       13 UNK        -0.5000 
     79 N          -1.2148  -23.2644  -45.9140 N.am      14 UNK        -0.5000 
     80 CA         -0.3186  -24.3392  -46.3471 C.3       14 UNK         0.1400 
     81 CB          0.9310  -23.7109  -46.9832 C.3       14 UNK        -0.1800 
     82 C          -0.9701  -25.3291  -47.3365 C.2       14 UNK         0.5000 
     83 O          -0.3755  -26.3720  -47.6108 O.2       14 UNK        -0.5000 
     84 N          -2.1518  -24.9814  -47.8714 N.am      15 UNK        -0.5000 
     85 CA         -2.9188  -25.7017  -48.8953 C.3       15 UNK         0.1400 
     86 CB         -3.4183  -27.0597  -48.3612 C.3       15 UNK        -0.1800 
     87 C          -2.1791  -25.8131  -50.2470 C.2       15 UNK         0.5000 
     88 O          -2.3667  -26.7851  -50.9807 O.2       15 UNK        -0.5000 
     89 N          -1.3573  -24.8031  -50.5538 N.am      16 UNK        -0.5000 
     90 CA         -0.5854  -24.6807  -51.7872 C.3       16 UNK         0.1400 
     91 CB          0.7272  -23.9435  -51.4764 C.3       16 UNK        -0.1800 
     92 C          -1.3724  -23.9390  -52.8819 C.2       16 UNK         0.5000 
     93 O          -1.2080  -24.2565  -54.0602 O.2       16 UNK        -0.5000 
     94 N          -2.2108  -22.9733  -52.4808 N.am      17 UNK        -0.5000 
     95 CA         -3.0219  -22.1449  -53.3756 C.3       17 UNK         0.1400 
     96 CB         -2.2182  -20.9139  -53.8332 C.3       17 UNK        -0.1800 
     97 C          -4.3660  -21.7737  -52.7252 C.2       17 UNK         0.5000 
     98 O          -4.8862  -20.6784  -52.9605 O.2       17 UNK        -0.5000 
     99 N          -4.9129  -22.6988  -51.9243 N.am      18 UNK        -0.5000 
    100 CA        -6.2269  -22.5873  -51.2920 C.3       18 UNK         0.1400 
    101 CB        -6.4454  -23.7805  -50.3496 C.3       18 UNK        -0.1800 
    102 C         -7.3480  -22.5015  -52.3419 C.2       18 UNK         0.5000 
    103 O         -7.4580  -23.3898  -53.1891 O.2       18 UNK        -0.5000 
    104 N         -8.1204  -21.4113  -52.2750 N.am      19 UNK        -0.5000 
    105 CA        -9.1867  -20.9944  -53.1910 C.3       19 UNK         0.1400 
    106 CB       -10.3063  -22.0529  -53.2773 C.3       19 UNK        -0.1800 
    107 C         -8.6834  -20.5483  -54.5815 C.2       19 UNK         0.5000 
    108 O         -9.5074  -20.3115  -55.4666 O.2       19 UNK        -0.5000 
    109 N         -7.3609  -20.4105  -54.7499 N.am      20 UNK        -0.5000 
    110 CA        -6.7190  -19.9121  -55.9638 C.3       20 UNK         0.1400 
    111 CB        -5.6427  -20.9065  -56.4307 C.3       20 UNK        -0.1800 
    112 C         -6.1257  -18.5206  -55.7042 C.2       20 UNK         0.5000 
    113 O         -6.4659  -17.5770  -56.4189 O.2       20 UNK        -0.5000 
    114 N         -5.2720  -18.4107  -54.6773 N.am      21 UNK        -0.5000 
    115 CA        -4.6547  -17.1519  -54.2573 C.3       21 UNK         0.1400 
    116 CB        -3.2135  -17.4212  -53.8016 C.3       21 UNK        -0.1800 
    117 C         -5.4526  -16.4810  -53.1282 C.2       21 UNK         0.5000 
    118 O         -5.5804  -15.2562  -53.1184 O.2       21 UNK        -0.5000 
    119 N         -5.9734  -17.2918  -52.2023 N.am      22 UNK        -0.5000 
    120 CA        -6.7217  -16.8716  -51.0120 C.3       22 UNK         0.1400 
    121 C         -7.4812  -18.0666  -50.3770 C.2       22 UNK         0.5000 
    122 N         -8.3372  -17.8231  -49.3945 N.am      22 UNK        -0.7600 
    123 O         -7.3194  -19.2184  -50.7732 O.2       22 UNK        -0.5000 
    124 C124       -5.8709  -16.0624  -49.9838 C.3       23 UNK        -0.0398 
    125 S125       -4.1823  -16.7007  -49.6669 S.3       23 UNK        -0.2404 
    126 C126       -3.2203  -15.1863  -49.9857 C.3       23 UNK        -0.0205 
    127 H127        4.0040  -18.7564  -49.5038 H         1 UNK         0.0600 
    128 H128        5.7150  -19.2009  -49.5306 H         1 UNK         0.0600 
    129 H129        4.7024  -19.4561  -50.9501 H         1 UNK         0.0600 
    130 H130        5.3580  -15.4141  -50.3227 H         1 UNK         0.3000 
    131 H131        3.5443  -16.7954  -48.6149 H         1 UNK         0.0600 
    132 H132        4.8477  -14.1648  -47.8261 H         1 UNK         0.0800 
    133 H133        3.7987  -14.1933  -49.2044 H         1 UNK         0.0800 
    134 H134        1.8009  -13.0493  -48.8628 H         1 UNK         0.0800 
    135 H135        0.6744  -13.2261  -47.5496 H         1 UNK         0.0800 
    136 H136       -1.3963  -13.9071  -48.3998 H         1 UNK         0.1150 
    137 H137       -1.7080  -16.9004  -51.4412 H         1 UNK         0.1150 
    138 H138        2.1410  -15.7006  -50.0337 H         1 UNK         0.1150 
    139 H139        0.3113  -17.6052  -52.6233 H         1 UNK         0.0800 
    140 H140        1.8644  -16.9590  -52.1633 H         1 UNK         0.0800 
    141 H141       -0.2869  -20.5861  -51.4689 H         1 UNK         0.0800 
    142 H142       -1.0360  -19.0754  -51.0275 H         1 UNK         0.0800 
    143 H143        0.3101  -21.0511  -49.1389 H         1 UNK         0.0600 
    144 H144       -0.3594  -18.3118  -48.5776 H         1 UNK         0.3000 
    145 H145       -0.1858  -18.7673  -45.0090 H         1 UNK         0.0600 
    146 H146        1.6627  -17.4574  -47.0625 H         1 UNK         0.0600 
    147 H147        1.5304  -16.9897  -45.3648 H         1 UNK         0.0600 
    148 H148        2.1375  -18.5789  -45.7897 H         1 UNK         0.0600 
    149 H149       -0.6156  -16.3732  -46.2904 H         1 UNK         0.3000 
    150 H150       -3.0096  -15.7147  -47.1610 H         1 UNK         0.0600 
    151 H151       -5.0549  -17.0990  -46.7558 H         1 UNK         0.0600 
    152 H152       -5.2289  -15.5180  -46.0222 H         1 UNK         0.0600 
    153 H153       -4.8510  -16.9173  -45.0172 H         1 UNK         0.0600 
    154 H154       -2.1646  -15.7347  -44.3799 H         1 UNK         0.3000 
    155 H155       -1.8900  -12.2135  -44.3057 H         1 UNK         0.0600 
    156 H156       -4.2380  -12.3381  -43.4642 H         1 UNK         0.0600 
    157 H157       -3.0950  -12.2565  -42.1333 H         1 UNK         0.0600 
    158 H158       -3.8511  -13.7941  -42.5554 H         1 UNK         0.0600 
    159 H159       -1.4514  -14.2714  -42.3316 H         1 UNK         0.3000 
    160 H160        1.4994  -15.5827  -43.5600 H         1 UNK         0.0600 
    161 H161        1.5969  -13.3973  -41.4214 H         1 UNK         0.0600 
    162 H162        2.5693  -13.4281  -42.8885 H         1 UNK         0.0600 
    163 H163        2.7936  -14.6701  -41.6679 H         1 UNK         0.0600 
    164 H164        0.7701  -15.7643  -40.9274 H         1 UNK         0.3000 
    165 H165       -1.1439  -16.9446  -40.0045 H         1 UNK         0.0600 
    166 H166       -2.4817  -19.0189  -40.2128 H         1 UNK         0.0600 
    167 H167       -3.0619  -17.8123  -41.3511 H         1 UNK         0.0600 
    168 H168       -2.0674  -19.1464  -41.9211 H         1 UNK         0.0600 
    169 H169        0.0974  -19.4390  -40.8859 H         1 UNK         0.3000 
    170 H170        3.3403  -18.7191  -39.8411 H         1 UNK         0.0600 
    171 H171        2.3846  -19.1399  -37.5705 H         1 UNK         0.0600 
    172 H172        1.3818  -20.4322  -38.2186 H         1 UNK         0.0600 
    173 H173        3.1396  -20.5855  -38.2204 H         1 UNK         0.0600 
    174 H174        2.1150  -21.2057  -40.4531 H         1 UNK         0.3000 
    175 H175        3.0102  -22.1357  -42.4927 H         1 UNK         0.0600 
    176 H176        0.4868  -20.9183  -43.7644 H         1 UNK         0.0600 
    177 H177        0.9711  -22.6057  -43.8880 H         1 UNK         0.0600 
    178 H178        0.4893  -21.9461  -42.3336 H         1 UNK         0.0600 
    179 H179        3.1274  -19.9909  -44.4377 H         1 UNK         0.3000 
    180 H180        5.5581  -21.5675  -46.3095 H         1 UNK         0.0600 
    181 H181        2.7827  -20.9792  -47.4891 H         1 UNK         0.0600 
    182 H182        3.6571  -22.4961  -47.6553 H         1 UNK         0.0600 
    183 H183        4.3020  -21.0396  -48.3852 H         1 UNK         0.0600 
    184 H184        4.0980  -19.1060  -46.6406 H         1 UNK         0.3000 
    185 H185        4.6233  -17.3758  -44.2907 H         1 UNK         0.0600 
    186 H186        7.4836  -16.9984  -45.3087 H         1 UNK         0.0600 
    187 H187        6.5077  -15.7363  -44.5565 H         1 UNK         0.0600 
    188 H188        6.9638  -17.1619  -43.6399 H         1 UNK         0.0600 
    189 H189        3.8618  -16.5114  -46.1598 H         1 UNK         0.3000 
    190 H190       -2.7039  -19.5086  -48.2469 H         1 UNK         0.3000 
    191 H191       -4.3784  -21.7020  -49.2376 H         1 UNK         0.0600 
    192 H192       -5.2496  -19.3666  -49.0945 H         1 UNK         0.0600 
    193 H193       -6.2068  -20.4923  -48.1460 H         1 UNK         0.0600 
    194 H194       -5.0828  -19.4041  -47.3422 H         1 UNK         0.0600 
    195 H195       -3.0835  -20.4989  -46.1179 H         1 UNK         0.3000 
    196 H196       -4.0975  -22.5756  -44.4693 H         1 UNK         0.0600 
    197 H197       -2.2976  -21.7268  -42.8764 H         1 UNK         0.0600 
    198 H198       -3.3543  -20.4755  -43.5178 H         1 UNK         0.0600 
    199 H199       -1.7330  -20.6656  -44.1671 H         1 UNK         0.0600 
    200 H200       -1.0346  -22.3436  -46.3057 H         1 UNK         0.3000 
    201 H201       -0.0062  -24.9069  -45.4683 H         1 UNK         0.0600 
    202 H202        1.4245  -23.0313  -46.2896 H         1 UNK         0.0600 
    203 H203        0.6839  -23.1488  -47.8842 H         1 UNK         0.0600 
    204 H204        1.6590  -24.4740  -47.2607 H         1 UNK         0.0600 
    205 H205       -2.5729  -24.1170  -47.5558 H         1 UNK         0.3000 
    206 H206       -3.7979  -25.0887  -49.0913 H         1 UNK         0.0600 
    207 H207       -2.5989  -27.7619  -48.2058 H         1 UNK         0.0600 
    208 H208       -3.9431  -26.9400  -47.4134 H         1 UNK         0.0600 
    209 H209       -4.1159  -27.5221  -49.0604 H         1 UNK         0.0600 
    210 H210       -1.3343  -24.0019  -49.9306 H         1 UNK         0.3000 
    211 H211       -0.3365  -25.6752  -52.1635 H         1 UNK         0.0600 
    212 H212        1.3407  -23.8426  -52.3726 H         1 UNK         0.0600 
    213 H213        1.3170  -24.4868  -50.7377 H         1 UNK         0.0600 
    214 H214        0.5471  -22.9414  -51.0867 H         1 UNK         0.0600 
    215 H215       -2.2698  -22.7602  -51.4888 H         1 UNK         0.3000 
    216 H216       -3.2786  -22.7274  -54.2628 H         1 UNK         0.0600 
    217 H217       -2.7533  -20.3642  -54.6075 H         1 UNK         0.0600 
    218 H218       -1.2530  -21.1990  -54.2518 H         1 UNK         0.0600 
    219 H219       -2.0385  -20.2264  -53.0087 H         1 UNK         0.0600 
    220 H220       -4.4446  -23.5878  -51.8362 H         1 UNK         0.3000 
    221 H221       -6.2348  -21.6753  -50.6927 H         1 UNK         0.0600 
    222 H222       -6.3816  -24.7317  -50.8794 H         1 UNK         0.0600 
    223 H223       -5.7088  -23.7908  -49.5481 H         1 UNK         0.0600 
    224 H224       -7.4288  -23.7306  -49.8805 H         1 UNK         0.0600 
    225 H225       -7.8743  -20.7039  -51.5812 H         1 UNK         0.3000 
    226 H226       -9.6207  -20.1019  -52.7381 H         1 UNK         0.0600 
    227 H227      -10.6419  -22.3548  -52.2852 H         1 UNK         0.0600 
    228 H228      -11.1751  -21.6592  -53.8058 H         1 UNK         0.0600 
    229 H229       -9.9823  -22.9469  -53.8104 H         1 UNK         0.0600 
    230 H230       -6.7521  -20.6020  -53.9634 H         1 UNK         0.3000 
    231 H231       -7.4461  -19.8138  -56.7725 H         1 UNK         0.0600 
    232 H232       -4.8704  -21.0614  -55.6790 H         1 UNK         0.0600 
    233 H233       -5.1510  -20.5503  -57.3367 H         1 UNK         0.0600 
    234 H234       -6.0819  -21.8776  -56.6593 H         1 UNK         0.0600 
    235 H235       -5.0587  -19.2318  -54.1172 H         1 UNK         0.3000 
    236 H236       -4.6116  -16.4564  -55.0983 H         1 UNK         0.0600 
    237 H237       -2.6243  -17.8728  -54.5995 H         1 UNK         0.0600 
    238 H238       -2.7184  -16.4907  -53.5218 H         1 UNK         0.0600 
    239 H239       -3.1837  -18.0871  -52.9385 H         1 UNK         0.0600 
    240 H240       -5.8455  -18.2926  -52.2764 H         1 UNK         0.3000 
    241 H241       -7.5129  -16.2124  -51.3739 H         1 UNK         0.0600 
    242 H242       -8.8349  -18.5970  -48.9841 H         1 UNK         0.3800 
    243 H243       -8.5165  -16.8899  -49.0592 H         1 UNK         0.3800 
    244 H244       -5.7919  -15.0373  -50.3469 H         1 UNK         0.0800 
    245 H245       -6.3817  -15.9721  -49.0243 H         1 UNK         0.0800 
    246 H246       -3.4640  -14.8127  -50.9815 H         1 UNK         0.0800 
    247 H247       -3.5335  -14.4151  -49.2798 H         1 UNK         0.0800 
@<TRIPOS>BOND
     1    1    2 1    
     2    1  127 1    
     3    1  128 1    
     4    1  129 1    
     5    2    3 2    
     6    2    4 am   BACKBONE|DICT|INTERRES
     7    4    5 1    
     8    4  130 1    
     9    5    6 1    
    10    5   65 1    
    11    5  131 1    
    12    6    7 1    
    13    6  132 1    
    14    6  133 1    
    15    7    8 1    
    16    8    9 1    
    17    8  134 1    
    18    8  135 1    
    19    9   10 ar   
    20    9   14 ar   
    21   10   11 ar   
    22   10  136 1    
    23   11   12 ar   
    24   11  126 1    
    25   12   13 ar   
    26   12  137 1    
    27   13   14 ar   
    28   13   15 1    
    29   14  138 1    
    30   15   16 1    
    31   15  139 1    
    32   15  140 1    
    33   16   17 1    
    34   17   18 1    
    35   17  141 1    
    36   17  142 1    
    37   18   19 1    
    38   18   67 1    
    39   18  143 1    
    40   19   20 am   BACKBONE|DICT|INTERRES
    41   19  144 1    
    42   20   21 2    
    43   20   22 1    
    44   22   23 1    
    45   22   24 1    
    46   22  145 1    
    47   23  146 1    
    48   23  147 1    
    49   23  148 1    
    50   24   25 am   BACKBONE|DICT|INTERRES
    51   24  149 1    
    52   25   26 2    
    53   25   27 1    
    54   27   28 1    
    55   27   29 1    
    56   27  150 1    
    57   28  151 1    
    58   28  152 1    
    59   28  153 1    
    60   29   30 am   BACKBONE|DICT|INTERRES
    61   29  154 1    
    62   30   31 2    
    63   30   32 1    
    64   32   33 1    
    65   32   34 1    
    66   32  155 1    
    67   33  156 1    
    68   33  157 1    
    69   33  158 1    
    70   34   35 am   BACKBONE|DICT|INTERRES
    71   34  159 1    
    72   35   36 2    
    73   35   37 1    
    74   37   38 1    
    75   37   39 1    
    76   37  160 1    
    77   38  161 1    
    78   38  162 1    
    79   38  163 1    
    80   39   40 am   BACKBONE|DICT|INTERRES
    81   39  164 1    
    82   40   41 2    
    83   40   42 1    
    84   42   43 1    
    85   42   44 1    
    86   42  165 1    
    87   43  166 1    
    88   43  167 1    
    89   43  168 1    
    90   44   45 am   BACKBONE|DICT|INTERRES
    91   44  169 1    
    92   45   46 2    
    93   45   47 1    
    94   47   48 1    
    95   47   49 1    
    96   47  170 1    
    97   48  171 1    
    98   48  172 1    
    99   48  173 1    
   100   49   50 am   BACKBONE|DICT|INTERRES
   101   49  174 1    
   102   50   51 2    
   103   50   52 1    
   104   52   53 1    
   105   52   54 1    
   106   52  175 1    
   107   53  176 1    
   108   53  177 1    
   109   53  178 1    
   110   54   55 am   BACKBONE|DICT|INTERRES
   111   54  179 1    
   112   55   56 2    
   113   55   57 1    
   114   57   58 1    
   115   57   59 1    
   116   57  180 1    
   117   58  181 1    
   118   58  182 1    
   119   58  183 1    
   120   59   60 am   BACKBONE|DICT|INTERRES
   121   59  184 1    
   122   60   61 2    
   123   60   62 1    
   124   62   63 1    
   125   62   64 1    
   126   62  185 1    
   127   63  186 1    
   128   63  187 1    
   129   63  188 1    
   130   64   65 am   BACKBONE|DICT|INTERRES
   131   64  189 1    
   132   65   66 2    
   133   67   68 2    
   134   67   69 am   BACKBONE|DICT|INTERRES
   135   69   70 1    
   136   69  190 1    
   137   70   71 1    
   138   70   72 1    
   139   70  191 1    
   140   71  192 1    
   141   71  193 1    
   142   71  194 1    
   143   72   73 2    
   144   72   74 am   BACKBONE|DICT|INTERRES
   145   74   75 1    
   146   74  195 1    
   147   75   76 1    
   148   75   77 1    
   149   75  196 1    
   150   76  197 1    
   151   76  198 1    
   152   76  199 1    
   153   77   78 2    
   154   77   79 am   BACKBONE|DICT|INTERRES
   155   79   80 1    
   156   79  200 1    
   157   80   81 1    
   158   80   82 1    
   159   80  201 1    
   160   81  202 1    
   161   81  203 1    
   162   81  204 1    
   163   82   83 2    
   164   82   84 am   BACKBONE|DICT|INTERRES
   165   84   85 1    
   166   84  205 1    
   167   85   86 1    
   168   85   87 1    
   169   85  206 1    
   170   86  207 1    
   171   86  208 1    
   172   86  209 1    
   173   87   88 2    
   174   87   89 am   BACKBONE|DICT|INTERRES
   175   89   90 1    
   176   89  210 1    
   177   90   91 1    
   178   90   92 1    
   179   90  211 1    
   180   91  212 1    
   181   91  213 1    
   182   91  214 1    
   183   92   93 2    
   184   92   94 am   BACKBONE|DICT|INTERRES
   185   94   95 1    
   186   94  215 1    
   187   95   96 1    
   188   95   97 1    
   189   95  216 1    
   190   96  217 1    
   191   96  218 1    
   192   96  219 1    
   193   97   98 2    
   194   97   99 am   BACKBONE|DICT|INTERRES
   195   99  100 1    
   196   99  220 1    
   197  100  101 1    
   198  100  102 1    
   199  100  221 1    
   200  101  222 1    
   201  101  223 1    
   202  101  224 1    
   203  102  103 2    
   204  102  104 am   BACKBONE|DICT|INTERRES
   205  104  105 1    
   206  104  225 1    
   207  105  106 1    
   208  105  107 1    
   209  105  226 1    
   210  106  227 1    
   211  106  228 1    
   212  106  229 1    
   213  107  108 2    
   214  107  109 am   BACKBONE|DICT|INTERRES
   215  109  110 1    
   216  109  230 1    
   217  110  111 1    
   218  110  112 1    
   219  110  231 1    
   220  111  232 1    
   221  111  233 1    
   222  111  234 1    
   223  112  113 2    
   224  112  114 am   BACKBONE|DICT|INTERRES
   225  114  115 1    
   226  114  235 1    
   227  115  116 1    
   228  115  117 1    
   229  115  236 1    
   230  116  237 1    
   231  116  238 1    
   232  116  239 1    
   233  117  118 2    
   234  117  119 am   BACKBONE|DICT|INTERRES
   235  119  120 1    
   236  119  240 1    
   237  120  121 1    
   238  120  124 1    
   239  120  241 1    
   240  121  122 am   BACKBONE|DICT|INTERRES
   241  121  123 2    
   242  122  242 1    
   243  122  243 1    
   244  124  125 1    
   245  124  244 1    
   246  124  245 1    
   247  125  126 1    
   248  126  246 1    
   249  126  247 1    
@<TRIPOS>SUBSTRUCTURE
     1 UNK         1 GROUP             0       ****    0 ROOT    
