@<TRIPOS>MOLECULE
3R540
247   249    1
SMALL
USER_CHARGES


@<TRIPOS>ATOM
      1 CA         -1.5182   -9.1833  -48.0514 C.3       0 UNK        -0.1800 
      2 C          -1.1155  -10.3547  -48.9362 C.2       0 UNK         0.5000 
      3 O          -0.1421  -10.2507  -49.6826 O.2       0 UNK        -0.5000 
      4 N          -1.8661  -11.4622  -48.8614 N.am      1 UNK        -0.5000 
      5 CA         -1.6029  -12.7094  -49.5915 C.3       1 UNK         0.1400 
      6 C6         -2.8259  -13.6613  -49.5300 C.3       23 UNK        -0.0398 
      7 S7         -2.9779  -14.7436  -50.9901 S.3       23 UNK        -0.2404 
      8 C8         -2.8064  -16.4109  -50.2734 C.3       23 UNK        -0.0205 
      9 C9         -1.3712  -16.9136  -50.3191 C.ar      23 UNK        -0.0193 
     10 C10        -0.7960  -17.2422  -51.5490 C.ar      23 UNK        -0.1150 
     11 C11         0.5003  -17.7553  -51.6194 C.ar      23 UNK        -0.0193 
     12 C12         1.2334  -17.9255  -50.4434 C.ar      23 UNK        -0.1150 
     13 C13         0.6714  -17.6032  -49.2042 C.ar      23 UNK        -0.0193 
     14 C14        -0.6313  -17.0941  -49.1462 C.ar      23 UNK        -0.1150 
     15 C15         1.4708  -17.8368  -47.9320 C.3       23 UNK        -0.0205 
     16 S16         1.5792  -19.6078  -47.5359 S.3       23 UNK        -0.2404 
     17 C17        -0.1611  -19.9639  -47.1211 C.3       23 UNK        -0.0398 
     18 CA         -0.3290  -21.3503  -46.4575 C.3       11 UNK         0.1400 
     19 N           0.3607  -21.4281  -45.1633 N.am      11 UNK        -0.5000 
     20 C           0.6940  -22.5506  -44.5146 C.2       10 UNK         0.5000 
     21 O           0.4078  -23.6776  -44.9171 O.2       10 UNK        -0.5000 
     22 CA          1.4125  -22.3784  -43.1639 C.3       10 UNK         0.1400 
     23 CB          2.8983  -22.0424  -43.3642 C.3       10 UNK        -0.1800 
     24 N           0.7791  -21.3485  -42.3383 N.am      10 UNK        -0.5000 
     25 C          -0.4025  -21.4996  -41.7234 C.2       9 UNK         0.5000 
     26 O          -1.0468  -22.5479  -41.7397 O.2       9 UNK        -0.5000 
     27 CA         -0.9771  -20.2740  -40.9869 C.3       9 UNK         0.1400 
     28 CB         -0.4298  -20.1939  -39.5540 C.3       9 UNK        -0.1800 
     29 N          -0.7106  -19.0134  -41.6785 N.am      9 UNK        -0.5000 
     30 C          -1.2085  -18.6792  -42.8774 C.2       8 UNK         0.5000 
     31 O          -2.0013  -19.3752  -43.5110 O.2       8 UNK        -0.5000 
     32 CA         -0.6955  -17.3634  -43.4918 C.3       8 UNK         0.1400 
     33 CB         -1.4950  -16.1697  -42.9478 C.3       8 UNK        -0.1800 
     34 N           0.7381  -17.1480  -43.2688 N.am      8 UNK        -0.5000 
     35 C           1.7044  -17.9749  -43.6949 C.2       7 UNK         0.5000 
     36 O           1.4833  -18.9994  -44.3325 O.2       7 UNK        -0.5000 
     37 CA          3.1499  -17.6484  -43.2887 C.3       7 UNK         0.1400 
     38 CB          3.7782  -16.6001  -44.2202 C.3       7 UNK        -0.1800 
     39 N           3.2232  -17.2037  -41.8990 N.am      7 UNK        -0.5000 
     40 C           3.0509  -18.0147  -40.8448 C.2       6 UNK         0.5000 
     41 O           2.8923  -19.2323  -40.9371 O.2       6 UNK        -0.5000 
     42 CA          3.0057  -17.3431  -39.4596 C.3       6 UNK         0.1400 
     43 CB          4.4243  -17.1561  -38.9015 C.3       6 UNK        -0.1800 
     44 N           2.3218  -16.0485  -39.4879 N.am      6 UNK        -0.5000 
     45 C           1.0143  -15.8875  -39.7382 C.2       5 UNK         0.5000 
     46 O           0.2348  -16.8235  -39.9143 O.2       5 UNK        -0.5000 
     47 CA          0.5057  -14.4372  -39.8635 C.3       5 UNK         0.1400 
     48 CB          0.0716  -13.8984  -38.4925 C.3       5 UNK        -0.1800 
     49 N           1.4916  -13.5255  -40.4550 N.am      5 UNK        -0.5000 
     50 C           1.9800  -13.6390  -41.6968 C.2       4 UNK         0.5000 
     51 O           1.6336  -14.5212  -42.4876 O.2       4 UNK        -0.5000 
     52 CA          3.0778  -12.6443  -42.0985 C.3       4 UNK         0.1400 
     53 CB          4.3830  -12.9462  -41.3344 C.3       4 UNK        -0.1800 
     54 N           3.3053  -12.7563  -43.5356 N.am      4 UNK        -0.5000 
     55 C           3.9741  -11.8884  -44.3032 C.2       3 UNK         0.5000 
     56 O           4.4615  -10.8391  -43.8803 O.2       3 UNK        -0.5000 
     57 CA          4.1469  -12.2534  -45.7922 C.3       3 UNK         0.1400 
     58 CB          5.5365  -12.8658  -46.0290 C.3       3 UNK        -0.1800 
     59 N           3.1332  -13.1854  -46.2935 N.am      3 UNK        -0.5000 
     60 C           1.8629  -12.8531  -46.5518 C.2       2 UNK         0.5000 
     61 O           1.4037  -11.7193  -46.3909 O.2       2 UNK        -0.5000 
     62 CA          0.9510  -13.9961  -47.0253 C.3       2 UNK         0.1400 
     63 CB          0.4295  -14.7804  -45.8145 C.3       2 UNK        -0.1800 
     64 N          -0.1986  -13.4604  -47.7436 N.am      2 UNK        -0.5000 
     65 C          -0.3220  -13.3983  -49.0748 C.2       1 UNK         0.5000 
     66 O           0.5197  -13.8193  -49.8688 O.2       1 UNK        -0.5000 
     67 C          -1.8171  -21.7657  -46.4017 C.2       11 UNK         0.5000 
     68 O          -2.4658  -21.7973  -47.4464 O.2       11 UNK        -0.5000 
     69 N          -2.3335  -22.1144  -45.2144 N.am      12 UNK        -0.5000 
     70 CA         -3.6166  -22.7956  -45.0363 C.3       12 UNK         0.1400 
     71 CB         -4.0095  -22.7497  -43.5529 C.3       12 UNK        -0.1800 
     72 C          -3.5860  -24.2530  -45.5472 C.2       12 UNK         0.5000 
     73 O          -4.6420  -24.8057  -45.8582 O.2       12 UNK        -0.5000 
     74 N          -2.3855  -24.8433  -45.6480 N.am      13 UNK        -0.5000 
     75 CA         -2.1373  -26.1353  -46.2848 C.3       13 UNK         0.1400 
     76 CB         -0.7380  -26.6238  -45.8758 C.3       13 UNK        -0.1800 
     77 C          -2.2611  -26.0580  -47.8212 C.2       13 UNK         0.5000 
     78 O          -2.3666  -24.9670  -48.3905 O.2       13 UNK        -0.5000 
     79 N          -2.2411  -27.2358  -48.4628 N.am      14 UNK        -0.5000 
     80 CA         -2.3241  -27.4462  -49.9140 C.3       14 UNK         0.1400 
     81 CB         -1.0518  -26.9222  -50.6141 C.3       14 UNK        -0.1800 
     82 C          -3.6209  -26.8647  -50.5107 C.2       14 UNK         0.5000 
     83 O          -3.5730  -26.1129  -51.4844 O.2       14 UNK        -0.5000 
     84 N          -4.7532  -27.1929  -49.8695 N.am      15 UNK        -0.5000 
     85 CA         -6.1097  -26.7208  -50.1782 C.3       15 UNK         0.1400 
     86 CB         -6.5753  -27.2538  -51.5508 C.3       15 UNK        -0.1800 
     87 C          -6.2622  -25.1891  -50.0511 C.2       15 UNK         0.5000 
     88 O          -7.0250  -24.5872  -50.8056 O.2       15 UNK        -0.5000 
     89 N          -5.5250  -24.5937  -49.1011 N.am      16 UNK        -0.5000 
     90 CA         -5.3894  -23.1570  -48.8521 C.3       16 UNK         0.1400 
     91 CB         -6.7192  -22.5435  -48.3668 C.3       16 UNK        -0.1800 
     92 C          -4.7899  -22.4346  -50.0723 C.2       16 UNK         0.5000 
     93 O          -5.4812  -21.6631  -50.7411 O.2       16 UNK        -0.5000 
     94 N          -3.5168  -22.7461  -50.3578 N.am      17 UNK        -0.5000 
     95 CA         -2.7097  -22.2080  -51.4594 C.3       17 UNK         0.1400 
     96 CB         -2.4237  -20.7064  -51.2390 C.3       17 UNK        -0.1800 
     97 C          -3.3358  -22.5066  -52.8378 C.2       17 UNK         0.5000 
     98 O          -3.5561  -21.5952  -53.6399 O.2       17 UNK        -0.5000 
     99 N          -3.6661  -23.7870  -53.0606 N.am      18 UNK        -0.5000 
    100 CA        -4.3083  -24.3579  -54.2513 C.3       18 UNK         0.1400 
    101 CB        -3.4057  -24.1794  -55.4910 C.3       18 UNK        -0.1800 
    102 C         -5.7446  -23.8495  -54.5030 C.2       18 UNK         0.5000 
    103 O         -6.2797  -24.0728  -55.5897 O.2       18 UNK        -0.5000 
    104 N         -6.3314  -23.1580  -53.5130 N.am      19 UNK        -0.5000 
    105 CA        -7.6132  -22.4459  -53.5449 C.3       19 UNK         0.1400 
    106 CB        -8.7874  -23.4347  -53.7032 C.3       19 UNK        -0.1800 
    107 C         -7.6517  -21.3072  -54.5898 C.2       19 UNK         0.5000 
    108 O         -8.7365  -20.8992  -55.0093 O.2       19 UNK        -0.5000 
    109 N         -6.4734  -20.8211  -55.0036 N.am      20 UNK        -0.5000 
    110 CA        -6.2980  -19.8828  -56.1113 C.3       20 UNK         0.1400 
    111 CB        -6.2575  -20.6641  -57.4400 C.3       20 UNK        -0.1800 
    112 C         -5.0553  -18.9977  -55.9135 C.2       20 UNK         0.5000 
    113 O         -4.4828  -18.5295  -56.8991 O.2       20 UNK        -0.5000 
    114 N         -4.6445  -18.7985  -54.6510 N.am      21 UNK        -0.5000 
    115 CA        -3.4966  -17.9944  -54.2115 C.3       21 UNK         0.1400 
    116 CB        -3.8201  -16.4919  -54.3381 C.3       21 UNK        -0.1800 
    117 C         -2.1782  -18.3888  -54.9132 C.2       21 UNK         0.5000 
    118 O         -1.4650  -17.5299  -55.4343 O.2       21 UNK        -0.5000 
    119 N         -1.9123  -19.6992  -54.9355 N.am      22 UNK        -0.5000 
    120 CA        -0.7855  -20.3678  -55.6085 C.3       22 UNK         0.1400 
    121 C         -0.8939  -20.4211  -57.1637 C.2       22 UNK         0.5000 
    122 N         -1.9691  -19.9529  -57.7874 N.am      22 UNK        -0.7600 
    123 O          0.0065  -20.9317  -57.8246 O.2       22 UNK        -0.5000 
    124 C124        0.6206  -19.8824  -55.1440 C.3       23 UNK        -0.0398 
    125 S125        0.8378  -19.8991  -53.3287 S.3       23 UNK        -0.2404 
    126 C126        1.0968  -18.1316  -52.9655 C.3       23 UNK        -0.0205 
    127 H127       -0.7131   -8.9476  -47.3553 H         1 UNK         0.0600 
    128 H128       -2.4155   -9.4015  -47.4718 H         1 UNK         0.0600 
    129 H129       -1.7135   -8.3011  -48.6610 H         1 UNK         0.0600 
    130 H130       -2.6619  -11.4721  -48.2394 H         1 UNK         0.3000 
    131 H131       -1.4318  -12.4337  -50.6347 H         1 UNK         0.0600 
    132 H132       -2.8377  -14.2455  -48.6083 H         1 UNK         0.0800 
    133 H133       -3.7460  -13.0754  -49.5079 H         1 UNK         0.0800 
    134 H134       -3.2007  -16.4343  -49.2566 H         1 UNK         0.0800 
    135 H135       -3.4311  -17.0965  -50.8474 H         1 UNK         0.0800 
    136 H136       -1.3623  -17.0985  -52.4555 H         1 UNK         0.1150 
    137 H137        2.2343  -18.3311  -50.4894 H         1 UNK         0.1150 
    138 H138       -1.0725  -16.8522  -48.1898 H         1 UNK         0.1150 
    139 H139        2.4779  -17.4371  -48.0569 H         1 UNK         0.0800 
    140 H140        1.0317  -17.3075  -47.0866 H         1 UNK         0.0800 
    141 H141       -0.7328  -19.9034  -48.0491 H         1 UNK         0.0800 
    142 H142       -0.5460  -19.1808  -46.4658 H         1 UNK         0.0800 
    143 H143        0.1451  -22.0827  -47.1146 H         1 UNK         0.0600 
    144 H144        0.6771  -20.5376  -44.7815 H         1 UNK         0.3000 
    145 H145        1.3543  -23.3297  -42.6306 H         1 UNK         0.0600 
    146 H146        3.4134  -21.9501  -42.4078 H         1 UNK         0.0600 
    147 H147        3.4005  -22.8270  -43.9312 H         1 UNK         0.0600 
    148 H148        3.0361  -21.1080  -43.9081 H         1 UNK         0.0600 
    149 H149        1.2507  -20.4557  -42.2787 H         1 UNK         0.3000 
    150 H150       -2.0603  -20.4009  -40.9304 H         1 UNK         0.0600 
    151 H151       -0.6382  -21.1124  -39.0040 H         1 UNK         0.0600 
    152 H152       -0.8883  -19.3728  -39.0027 H         1 UNK         0.0600 
    153 H153        0.6497  -20.0413  -39.5431 H         1 UNK         0.0600 
    154 H154       -0.1188  -18.3439  -41.1970 H         1 UNK         0.3000 
    155 H155       -0.8526  -17.4170  -44.5707 H         1 UNK         0.0600 
    156 H156       -2.5430  -16.2420  -43.2403 H         1 UNK         0.0600 
    157 H157       -1.1153  -15.2224  -43.3273 H         1 UNK         0.0600 
    158 H158       -1.4653  -16.1267  -41.8598 H         1 UNK         0.0600 
    159 H159        1.0049  -16.2944  -42.7870 H         1 UNK         0.3000 
    160 H160        3.7331  -18.5669  -43.3857 H         1 UNK         0.0600 
    161 H161        3.2826  -15.6349  -44.1453 H         1 UNK         0.0600 
    162 H162        3.7185  -16.9205  -45.2613 H         1 UNK         0.0600 
    163 H163        4.8323  -16.4504  -43.9865 H         1 UNK         0.0600 
    164 H164        3.2930  -16.2099  -41.7417 H         1 UNK         0.3000 
    165 H165        2.4561  -18.0047  -38.7864 H         1 UNK         0.0600 
    166 H166        4.3997  -16.7488  -37.8906 H         1 UNK         0.0600 
    167 H167        4.9532  -18.1090  -38.8540 H         1 UNK         0.0600 
    168 H168        5.0170  -16.4820  -39.5213 H         1 UNK         0.0600 
    169 H169        2.8897  -15.2269  -39.3446 H         1 UNK         0.3000 
    170 H170       -0.3691  -14.4492  -40.5161 H         1 UNK         0.0600 
    171 H171       -0.6792  -14.5468  -38.0386 H         1 UNK         0.0600 
    172 H172        0.9116  -13.8335  -37.7998 H         1 UNK         0.0600 
    173 H173       -0.3696  -12.9054  -38.5806 H         1 UNK         0.0600 
    174 H174        1.8250  -12.7787  -39.8625 H         1 UNK         0.3000 
    175 H175        2.7315  -11.6352  -41.8666 H         1 UNK         0.0600 
    176 H176        4.7555  -13.9469  -41.5574 H         1 UNK         0.0600 
    177 H177        5.1688  -12.2356  -41.5901 H         1 UNK         0.0600 
    178 H178        4.2377  -12.8813  -40.2556 H         1 UNK         0.0600 
    179 H179        2.8725  -13.5675  -43.9564 H         1 UNK         0.3000 
    180 H180        4.0804  -11.3273  -46.3674 H         1 UNK         0.0600 
    181 H181        5.6604  -13.8046  -45.4875 H         1 UNK         0.0600 
    182 H182        6.3243  -12.1888  -45.6958 H         1 UNK         0.0600 
    183 H183        5.7065  -13.0625  -47.0877 H         1 UNK         0.0600 
    184 H184        3.4387  -14.1339  -46.4543 H         1 UNK         0.3000 
    185 H185        1.5195  -14.6706  -47.6693 H         1 UNK         0.0600 
    186 H186        1.2422  -15.2980  -45.3083 H         1 UNK         0.0600 
    187 H187       -0.0438  -14.1215  -45.0859 H         1 UNK         0.0600 
    188 H188       -0.3025  -15.5312  -46.1105 H         1 UNK         0.0600 
    189 H189       -0.8895  -12.9920  -47.1762 H         1 UNK         0.3000 
    190 H190       -1.7542  -22.0136  -44.3931 H         1 UNK         0.3000 
    191 H191       -4.3741  -22.2556  -45.6080 H         1 UNK         0.0600 
    192 H192       -4.0209  -21.7261  -43.1772 H         1 UNK         0.0600 
    193 H193       -5.0067  -23.1647  -43.4020 H         1 UNK         0.0600 
    194 H194       -3.3190  -23.3265  -42.9371 H         1 UNK         0.0600 
    195 H195       -1.5606  -24.3114  -45.3952 H         1 UNK         0.3000 
    196 H196       -2.8783  -26.8479  -45.9168 H         1 UNK         0.0600 
    197 H197       -0.5532  -27.6396  -46.2264 H         1 UNK         0.0600 
    198 H198       -0.6226  -26.6316  -44.7917 H         1 UNK         0.0600 
    199 H199        0.0453  -25.9880  -46.2905 H         1 UNK         0.0600 
    200 H200       -2.1571  -28.0779  -47.9103 H         1 UNK         0.3000 
    201 H201       -2.3679  -28.5244  -50.0744 H         1 UNK         0.0600 
    202 H202       -0.1545  -27.3673  -50.1845 H         1 UNK         0.0600 
    203 H203       -0.9590  -25.8386  -50.5343 H         1 UNK         0.0600 
    204 H204       -1.0608  -27.1708  -51.6760 H         1 UNK         0.0600 
    205 H205       -4.6775  -27.8016  -49.0666 H         1 UNK         0.3000 
    206 H206       -6.7642  -27.1520  -49.4194 H         1 UNK         0.0600 
    207 H207       -6.4546  -28.3349  -51.6165 H         1 UNK         0.0600 
    208 H208       -7.6309  -27.0358  -51.7171 H         1 UNK         0.0600 
    209 H209       -6.0180  -26.8025  -52.3722 H         1 UNK         0.0600 
    210 H210       -4.9113  -25.1772  -48.5499 H         1 UNK         0.3000 
    211 H211       -4.6707  -23.0515  -48.0415 H         1 UNK         0.0600 
    212 H212       -7.4984  -22.5920  -49.1277 H         1 UNK         0.0600 
    213 H213       -6.5855  -21.4934  -48.1051 H         1 UNK         0.0600 
    214 H214       -7.0852  -23.0565  -47.4774 H         1 UNK         0.0600 
    215 H215       -3.0463  -23.4075  -49.7475 H         1 UNK         0.3000 
    216 H216       -1.7545  -22.7341  -51.4322 H         1 UNK         0.0600 
    217 H217       -1.7588  -20.3172  -52.0090 H         1 UNK         0.0600 
    218 H218       -1.9390  -20.5342  -50.2779 H         1 UNK         0.0600 
    219 H219       -3.3340  -20.1072  -51.2658 H         1 UNK         0.0600 
    220 H220       -3.4987  -24.4694  -52.3226 H         1 UNK         0.3000 
    221 H221       -4.3985  -25.4278  -54.0591 H         1 UNK         0.0600 
    222 H222       -3.3411  -23.1360  -55.8015 H         1 UNK         0.0600 
    223 H223       -2.3940  -24.5355  -55.2971 H         1 UNK         0.0600 
    224 H224       -3.7896  -24.7464  -56.3396 H         1 UNK         0.0600 
    225 H225       -5.8133  -23.0454  -52.6506 H         1 UNK         0.3000 
    226 H226       -7.7131  -21.9679  -52.5694 H         1 UNK         0.0600 
    227 H227       -8.7305  -24.2357  -52.9663 H         1 UNK         0.0600 
    228 H228       -9.7442  -22.9319  -53.5593 H         1 UNK         0.0600 
    229 H229       -8.8041  -23.8904  -54.6935 H         1 UNK         0.0600 
    230 H230       -5.6251  -21.2093  -54.6071 H         1 UNK         0.3000 
    231 H231       -7.1477  -19.1978  -56.1404 H         1 UNK         0.0600 
    232 H232       -5.4057  -21.3447  -57.4745 H         1 UNK         0.0600 
    233 H233       -6.1796  -19.9913  -58.2948 H         1 UNK         0.0600 
    234 H234       -7.1622  -21.2558  -57.5800 H         1 UNK         0.0600 
    235 H235       -5.1662  -19.2503  -53.9134 H         1 UNK         0.3000 
    236 H236       -3.3569  -18.2160  -53.1529 H         1 UNK         0.0600 
    237 H237       -4.7159  -16.2332  -53.7738 H         1 UNK         0.0600 
    238 H238       -3.0059  -15.8804  -53.9477 H         1 UNK         0.0600 
    239 H239       -3.9803  -16.1992  -55.3763 H         1 UNK         0.0600 
    240 H240       -2.5778  -20.3295  -54.4912 H         1 UNK         0.3000 
    241 H241       -0.8734  -21.4100  -55.2996 H         1 UNK         0.0600 
    242 H242       -2.0162  -20.0117  -58.7920 H         1 UNK         0.3800 
    243 H243       -2.7172  -19.4925  -57.2820 H         1 UNK         0.3800 
    244 H244        1.3929  -20.5313  -55.5600 H         1 UNK         0.0800 
    245 H245        0.8320  -18.8891  -55.5408 H         1 UNK         0.0800 
    246 H246        2.1658  -17.9145  -52.9792 H         1 UNK         0.0800 
    247 H247        0.6501  -17.5099  -53.7419 H         1 UNK         0.0800 
@<TRIPOS>BOND
     1    1    2 1    
     2    1  127 1    
     3    1  128 1    
     4    1  129 1    
     5    2    3 2    
     6    2    4 am   BACKBONE|DICT|INTERRES
     7    4    5 1    
     8    4  130 1    
     9    5    6 1    
    10    5   65 1    
    11    5  131 1    
    12    6    7 1    
    13    6  132 1    
    14    6  133 1    
    15    7    8 1    
    16    8    9 1    
    17    8  134 1    
    18    8  135 1    
    19    9   10 ar   
    20    9   14 ar   
    21   10   11 ar   
    22   10  136 1    
    23   11   12 ar   
    24   11  126 1    
    25   12   13 ar   
    26   12  137 1    
    27   13   14 ar   
    28   13   15 1    
    29   14  138 1    
    30   15   16 1    
    31   15  139 1    
    32   15  140 1    
    33   16   17 1    
    34   17   18 1    
    35   17  141 1    
    36   17  142 1    
    37   18   19 1    
    38   18   67 1    
    39   18  143 1    
    40   19   20 am   BACKBONE|DICT|INTERRES
    41   19  144 1    
    42   20   21 2    
    43   20   22 1    
    44   22   23 1    
    45   22   24 1    
    46   22  145 1    
    47   23  146 1    
    48   23  147 1    
    49   23  148 1    
    50   24   25 am   BACKBONE|DICT|INTERRES
    51   24  149 1    
    52   25   26 2    
    53   25   27 1    
    54   27   28 1    
    55   27   29 1    
    56   27  150 1    
    57   28  151 1    
    58   28  152 1    
    59   28  153 1    
    60   29   30 am   BACKBONE|DICT|INTERRES
    61   29  154 1    
    62   30   31 2    
    63   30   32 1    
    64   32   33 1    
    65   32   34 1    
    66   32  155 1    
    67   33  156 1    
    68   33  157 1    
    69   33  158 1    
    70   34   35 am   BACKBONE|DICT|INTERRES
    71   34  159 1    
    72   35   36 2    
    73   35   37 1    
    74   37   38 1    
    75   37   39 1    
    76   37  160 1    
    77   38  161 1    
    78   38  162 1    
    79   38  163 1    
    80   39   40 am   BACKBONE|DICT|INTERRES
    81   39  164 1    
    82   40   41 2    
    83   40   42 1    
    84   42   43 1    
    85   42   44 1    
    86   42  165 1    
    87   43  166 1    
    88   43  167 1    
    89   43  168 1    
    90   44   45 am   BACKBONE|DICT|INTERRES
    91   44  169 1    
    92   45   46 2    
    93   45   47 1    
    94   47   48 1    
    95   47   49 1    
    96   47  170 1    
    97   48  171 1    
    98   48  172 1    
    99   48  173 1    
   100   49   50 am   BACKBONE|DICT|INTERRES
   101   49  174 1    
   102   50   51 2    
   103   50   52 1    
   104   52   53 1    
   105   52   54 1    
   106   52  175 1    
   107   53  176 1    
   108   53  177 1    
   109   53  178 1    
   110   54   55 am   BACKBONE|DICT|INTERRES
   111   54  179 1    
   112   55   56 2    
   113   55   57 1    
   114   57   58 1    
   115   57   59 1    
   116   57  180 1    
   117   58  181 1    
   118   58  182 1    
   119   58  183 1    
   120   59   60 am   BACKBONE|DICT|INTERRES
   121   59  184 1    
   122   60   61 2    
   123   60   62 1    
   124   62   63 1    
   125   62   64 1    
   126   62  185 1    
   127   63  186 1    
   128   63  187 1    
   129   63  188 1    
   130   64   65 am   BACKBONE|DICT|INTERRES
   131   64  189 1    
   132   65   66 2    
   133   67   68 2    
   134   67   69 am   BACKBONE|DICT|INTERRES
   135   69   70 1    
   136   69  190 1    
   137   70   71 1    
   138   70   72 1    
   139   70  191 1    
   140   71  192 1    
   141   71  193 1    
   142   71  194 1    
   143   72   73 2    
   144   72   74 am   BACKBONE|DICT|INTERRES
   145   74   75 1    
   146   74  195 1    
   147   75   76 1    
   148   75   77 1    
   149   75  196 1    
   150   76  197 1    
   151   76  198 1    
   152   76  199 1    
   153   77   78 2    
   154   77   79 am   BACKBONE|DICT|INTERRES
   155   79   80 1    
   156   79  200 1    
   157   80   81 1    
   158   80   82 1    
   159   80  201 1    
   160   81  202 1    
   161   81  203 1    
   162   81  204 1    
   163   82   83 2    
   164   82   84 am   BACKBONE|DICT|INTERRES
   165   84   85 1    
   166   84  205 1    
   167   85   86 1    
   168   85   87 1    
   169   85  206 1    
   170   86  207 1    
   171   86  208 1    
   172   86  209 1    
   173   87   88 2    
   174   87   89 am   BACKBONE|DICT|INTERRES
   175   89   90 1    
   176   89  210 1    
   177   90   91 1    
   178   90   92 1    
   179   90  211 1    
   180   91  212 1    
   181   91  213 1    
   182   91  214 1    
   183   92   93 2    
   184   92   94 am   BACKBONE|DICT|INTERRES
   185   94   95 1    
   186   94  215 1    
   187   95   96 1    
   188   95   97 1    
   189   95  216 1    
   190   96  217 1    
   191   96  218 1    
   192   96  219 1    
   193   97   98 2    
   194   97   99 am   BACKBONE|DICT|INTERRES
   195   99  100 1    
   196   99  220 1    
   197  100  101 1    
   198  100  102 1    
   199  100  221 1    
   200  101  222 1    
   201  101  223 1    
   202  101  224 1    
   203  102  103 2    
   204  102  104 am   BACKBONE|DICT|INTERRES
   205  104  105 1    
   206  104  225 1    
   207  105  106 1    
   208  105  107 1    
   209  105  226 1    
   210  106  227 1    
   211  106  228 1    
   212  106  229 1    
   213  107  108 2    
   214  107  109 am   BACKBONE|DICT|INTERRES
   215  109  110 1    
   216  109  230 1    
   217  110  111 1    
   218  110  112 1    
   219  110  231 1    
   220  111  232 1    
   221  111  233 1    
   222  111  234 1    
   223  112  113 2    
   224  112  114 am   BACKBONE|DICT|INTERRES
   225  114  115 1    
   226  114  235 1    
   227  115  116 1    
   228  115  117 1    
   229  115  236 1    
   230  116  237 1    
   231  116  238 1    
   232  116  239 1    
   233  117  118 2    
   234  117  119 am   BACKBONE|DICT|INTERRES
   235  119  120 1    
   236  119  240 1    
   237  120  121 1    
   238  120  124 1    
   239  120  241 1    
   240  121  122 am   BACKBONE|DICT|INTERRES
   241  121  123 2    
   242  122  242 1    
   243  122  243 1    
   244  124  125 1    
   245  124  244 1    
   246  124  245 1    
   247  125  126 1    
   248  126  246 1    
   249  126  247 1    
@<TRIPOS>SUBSTRUCTURE
     1 UNK         1 GROUP             0       ****    0 ROOT    
