@<TRIPOS>MOLECULE
3R540
247   249    1
SMALL
USER_CHARGES


@<TRIPOS>ATOM
      1 CA         -3.4305   -9.6266  -47.4940 C.3       0 UNK        -0.1800 
      2 C          -2.1672  -10.3205  -47.9846 C.2       0 UNK         0.5000 
      3 O          -1.6680   -9.9934  -49.0619 O.2       0 UNK        -0.5000 
      4 N          -1.6555  -11.2803  -47.2040 N.am      1 UNK        -0.5000 
      5 CA         -0.4098  -12.0047  -47.4758 C.3       1 UNK         0.1400 
      6 C6         -0.3521  -13.3381  -46.6868 C.3       23 UNK        -0.0398 
      7 S7          0.6997  -14.5817  -47.5167 S.3       23 UNK        -0.2404 
      8 C8         -0.3486  -16.0633  -47.4281 C.3       23 UNK        -0.0205 
      9 C9          0.0728  -17.1027  -48.4542 C.ar      23 UNK        -0.0193 
     10 C10        -0.6369  -17.2162  -49.6506 C.ar      23 UNK        -0.1150 
     11 C11        -0.2769  -18.1683  -50.6071 C.ar      23 UNK        -0.0193 
     12 C12         0.8161  -19.0049  -50.3641 C.ar      23 UNK        -0.1150 
     13 C13         1.5449  -18.8948  -49.1756 C.ar      23 UNK        -0.0193 
     14 C14         1.1635  -17.9454  -48.2203 C.ar      23 UNK        -0.1150 
     15 C15         2.7754  -19.7651  -48.9561 C.3       23 UNK        -0.0205 
     16 S16         2.3589  -21.4833  -48.5186 S.3       23 UNK        -0.2404 
     17 C17         1.7676  -21.2812  -46.8053 C.3       23 UNK        -0.0398 
     18 CA          0.5089  -22.1099  -46.4558 C.3       11 UNK         0.1400 
     19 N           0.2130  -22.0239  -45.0215 N.am      11 UNK        -0.5000 
     20 C          -0.7163  -22.7415  -44.3761 C.2       10 UNK         0.5000 
     21 O          -1.4124  -23.5969  -44.9158 O.2       10 UNK        -0.5000 
     22 CA         -0.9388  -22.4293  -42.8861 C.3       10 UNK         0.1400 
     23 CB          0.1101  -23.1406  -42.0189 C.3       10 UNK        -0.1800 
     24 N          -0.9309  -20.9950  -42.6009 N.am      10 UNK        -0.5000 
     25 C          -1.8208  -20.1156  -43.0836 C.2       9 UNK         0.5000 
     26 O          -2.7823  -20.4308  -43.7851 O.2       9 UNK        -0.5000 
     27 CA         -1.5559  -18.6271  -42.7839 C.3       9 UNK         0.1400 
     28 CB         -2.0022  -18.2599  -41.3612 C.3       9 UNK        -0.1800 
     29 N          -0.1513  -18.2583  -42.9716 N.am      9 UNK        -0.5000 
     30 C           0.5049  -18.3633  -44.1361 C.2       8 UNK         0.5000 
     31 O          -0.0190  -18.7404  -45.1838 O.2       8 UNK        -0.5000 
     32 CA          2.0130  -18.0669  -44.1082 C.3       8 UNK         0.1400 
     33 CB          2.2911  -16.5564  -44.1508 C.3       8 UNK        -0.1800 
     34 N           2.6513  -18.6633  -42.9347 N.am      8 UNK        -0.5000 
     35 C           2.8366  -19.9818  -42.7733 C.2       7 UNK         0.5000 
     36 O           2.5250  -20.8208  -43.6176 O.2       7 UNK        -0.5000 
     37 CA          3.4320  -20.4455  -41.4309 C.3       7 UNK         0.1400 
     38 CB          4.9649  -20.3555  -41.4602 C.3       7 UNK        -0.1800 
     39 N           2.9243  -19.6800  -40.2923 N.am      7 UNK        -0.5000 
     40 C           1.6488  -19.6851  -39.8786 C.2       6 UNK         0.5000 
     41 O           0.7711  -20.3833  -40.3820 O.2       6 UNK        -0.5000 
     42 CA          1.2809  -18.7053  -38.7483 C.3       6 UNK         0.1400 
     43 CB          1.4468  -19.3770  -37.3774 C.3       6 UNK        -0.1800 
     44 N           2.0635  -17.4665  -38.7812 N.am      6 UNK        -0.5000 
     45 C           2.0601  -16.5901  -39.7942 C.2       5 UNK         0.5000 
     46 O           1.3924  -16.7344  -40.8218 O.2       5 UNK        -0.5000 
     47 CA          3.0349  -15.4061  -39.6601 C.3       5 UNK         0.1400 
     48 CB          4.4244  -15.8124  -40.1777 C.3       5 UNK        -0.1800 
     49 N           2.6036  -14.2158  -40.3899 N.am      5 UNK        -0.5000 
     50 C           1.4925  -13.5049  -40.1545 C.2       4 UNK         0.5000 
     51 O           0.6871  -13.7773  -39.2625 O.2       4 UNK        -0.5000 
     52 CA          1.2591  -12.2551  -41.0313 C.3       4 UNK         0.1400 
     53 CB          1.0219  -11.0085  -40.1614 C.3       4 UNK        -0.1800 
     54 N           2.3779  -11.9771  -41.9393 N.am      4 UNK        -0.5000 
     55 C           2.4793  -12.4368  -43.1907 C.2       3 UNK         0.5000 
     56 O           1.6411  -13.1621  -43.7278 O.2       3 UNK        -0.5000 
     57 CA          3.7473  -12.0455  -43.9590 C.3       3 UNK         0.1400 
     58 CB          4.8329  -13.1241  -43.8100 C.3       3 UNK        -0.1800 
     59 N           3.4058  -11.8890  -45.3676 N.am      3 UNK        -0.5000 
     60 C           3.8574  -10.9199  -46.1719 C.2       2 UNK         0.5000 
     61 O           4.6997  -10.0881  -45.8308 O.2       2 UNK        -0.5000 
     62 CA          3.2736  -10.8545  -47.5990 C.3       2 UNK         0.1400 
     63 CB          4.2603  -11.4612  -48.6087 C.3       2 UNK        -0.1800 
     64 N           1.9776  -11.5220  -47.7497 N.am      2 UNK        -0.5000 
     65 C           0.8276  -11.1202  -47.1928 C.2       1 UNK         0.5000 
     66 O           0.7326  -10.1236  -46.4709 O.2       1 UNK        -0.5000 
     67 C          -0.7166  -21.7416  -47.3238 C.2       11 UNK         0.5000 
     68 O          -1.0321  -22.4678  -48.2689 O.2       11 UNK        -0.5000 
     69 N          -1.4203  -20.6627  -46.9516 N.am      12 UNK        -0.5000 
     70 CA         -2.6762  -20.2500  -47.5773 C.3       12 UNK         0.1400 
     71 CB         -3.0969  -18.8752  -47.0378 C.3       12 UNK        -0.1800 
     72 C          -3.7968  -21.2877  -47.3738 C.2       12 UNK         0.5000 
     73 O          -4.4447  -21.6804  -48.3448 O.2       12 UNK        -0.5000 
     74 N          -3.9779  -21.7429  -46.1244 N.am      13 UNK        -0.5000 
     75 CA         -4.9773  -22.7411  -45.7294 C.3       13 UNK         0.1400 
     76 CB         -4.9959  -22.8663  -44.1989 C.3       13 UNK        -0.1800 
     77 C          -4.7702  -24.1223  -46.3813 C.2       13 UNK         0.5000 
     78 O          -5.7504  -24.8070  -46.6757 O.2       13 UNK        -0.5000 
     79 N          -3.5061  -24.4930  -46.6229 N.am      14 UNK        -0.5000 
     80 CA         -3.0934  -25.7124  -47.3195 C.3       14 UNK         0.1400 
     81 CB         -1.5996  -25.9619  -47.0535 C.3       14 UNK        -0.1800 
     82 C          -3.3750  -25.6977  -48.8358 C.2       14 UNK         0.5000 
     83 O          -3.2252  -26.7438  -49.4683 O.2       14 UNK        -0.5000 
     84 N          -3.7759  -24.5395  -49.3860 N.am      15 UNK        -0.5000 
     85 CA         -4.1046  -24.2918  -50.7909 C.3       15 UNK         0.1400 
     86 CB         -5.3386  -25.1160  -51.2218 C.3       15 UNK        -0.1800 
     87 C          -2.8826  -24.5011  -51.7030 C.2       15 UNK         0.5000 
     88 O          -2.8716  -25.4135  -52.5299 O.2       15 UNK        -0.5000 
     89 N          -1.8679  -23.6474  -51.5136 N.am      16 UNK        -0.5000 
     90 CA         -0.5636  -23.6711  -52.1823 C.3       16 UNK         0.1400 
     91 CB          0.2292  -22.4311  -51.7445 C.3       16 UNK        -0.1800 
     92 C          -0.5920  -23.7598  -53.7236 C.2       16 UNK         0.5000 
     93 O           0.2729  -24.4237  -54.2970 O.2       16 UNK        -0.5000 
     94 N          -1.5717  -23.1084  -54.3644 N.am      17 UNK        -0.5000 
     95 CA         -1.7686  -23.1250  -55.8180 C.3       17 UNK         0.1400 
     96 CB         -2.0709  -21.6953  -56.2918 C.3       17 UNK        -0.1800 
     97 C          -2.9053  -24.0720  -56.2497 C.2       17 UNK         0.5000 
     98 O          -3.1715  -24.1751  -57.4485 O.2       17 UNK        -0.5000 
     99 N          -3.5672  -24.7246  -55.2826 N.am      18 UNK        -0.5000 
    100 CA        -4.7628  -25.5652  -55.3913 C.3       18 UNK         0.1400 
    101 CB        -4.5114  -26.8145  -56.2594 C.3       18 UNK        -0.1800 
    102 C         -6.0060  -24.7768  -55.8436 C.2       18 UNK         0.5000 
    103 O         -6.9230  -24.5772  -55.0447 O.2       18 UNK        -0.5000 
    104 N         -6.0063  -24.3301  -57.1057 N.am      19 UNK        -0.5000 
    105 CA        -7.0585  -23.5386  -57.7396 C.3       19 UNK         0.1400 
    106 CB        -6.7130  -23.3402  -59.2234 C.3       19 UNK        -0.1800 
    107 C         -7.2399  -22.1874  -57.0287 C.2       19 UNK         0.5000 
    108 O         -6.2998  -21.3907  -56.9896 O.2       19 UNK        -0.5000 
    109 N         -8.4252  -21.9858  -56.4335 N.am      20 UNK        -0.5000 
    110 CA        -8.8165  -20.8277  -55.6161 C.3       20 UNK         0.1400 
    111 CB        -8.9770  -19.5766  -56.5048 C.3       20 UNK        -0.1800 
    112 C         -7.8784  -20.5801  -54.4116 C.2       20 UNK         0.5000 
    113 O         -7.7114  -19.4353  -53.9872 O.2       20 UNK        -0.5000 
    114 N         -7.2447  -21.6557  -53.9188 N.am      21 UNK        -0.5000 
    115 CA        -6.1756  -21.7254  -52.9173 C.3       21 UNK         0.1400 
    116 CB        -6.6266  -21.1766  -51.5504 C.3       21 UNK        -0.1800 
    117 C         -4.8423  -21.0961  -53.3659 C.2       21 UNK         0.5000 
    118 O         -3.8006  -21.7373  -53.2283 O.2       21 UNK        -0.5000 
    119 N         -4.9009  -19.8715  -53.8925 N.am      22 UNK        -0.5000 
    120 CA        -3.7646  -19.0327  -54.2966 C.3       22 UNK         0.1400 
    121 C         -3.9235  -18.4543  -55.7351 C.2       22 UNK         0.5000 
    122 N         -4.7937  -18.9836  -56.5858 N.am      22 UNK        -0.7600 
    123 O         -3.2299  -17.5116  -56.1069 O.2       22 UNK        -0.5000 
    124 C124       -3.4895  -17.9254  -53.2445 C.3       23 UNK        -0.0398 
    125 S125       -2.8101  -18.5793  -51.6803 S.3       23 UNK        -0.2404 
    126 C126       -1.0352  -18.2388  -51.9231 C.3       23 UNK        -0.0205 
    127 H127       -3.2488   -8.5586  -47.3736 H         1 UNK         0.0600 
    128 H128       -3.7661  -10.0243  -46.5358 H         1 UNK         0.0600 
    129 H129       -4.2358   -9.7573  -48.2169 H         1 UNK         0.0600 
    130 H130       -2.0915  -11.4738  -46.3139 H         1 UNK         0.3000 
    131 H131       -0.4088  -12.2390  -48.5431 H         1 UNK         0.0600 
    132 H132       -1.3578  -13.7489  -46.5929 H         1 UNK         0.0800 
    133 H133       -0.0081  -13.1882  -45.6638 H         1 UNK         0.0800 
    134 H134       -1.3917  -15.7912  -47.5948 H         1 UNK         0.0800 
    135 H135       -0.2989  -16.4795  -46.4230 H         1 UNK         0.0800 
    136 H136       -1.4731  -16.5588  -49.8432 H         1 UNK         0.1150 
    137 H137        1.1189  -19.7279  -51.1076 H         1 UNK         0.1150 
    138 H138        1.7221  -17.8465  -47.3011 H         1 UNK         0.1150 
    139 H139        3.3708  -19.7745  -49.8702 H         1 UNK         0.0800 
    140 H140        3.4178  -19.3394  -48.1836 H         1 UNK         0.0800 
    141 H141        1.5904  -20.2276  -46.5982 H         1 UNK         0.0800 
    142 H142        2.5905  -21.5769  -46.1538 H         1 UNK         0.0800 
    143 H143        0.7387  -23.1574  -46.6625 H         1 UNK         0.0600 
    144 H144        0.7778  -21.3727  -44.4869 H         1 UNK         0.3000 
    145 H145       -1.9215  -22.8157  -42.6093 H         1 UNK         0.0600 
    146 H146       -0.0942  -22.9977  -40.9577 H         1 UNK         0.0600 
    147 H147        1.1161  -22.7714  -42.2185 H         1 UNK         0.0600 
    148 H148        0.1101  -24.2147  -42.2081 H         1 UNK         0.0600 
    149 H149       -0.2015  -20.6623  -41.9757 H         1 UNK         0.3000 
    150 H150       -2.1470  -18.0376  -43.4879 H         1 UNK         0.0600 
    151 H151       -3.0653  -18.4609  -41.2239 H         1 UNK         0.0600 
    152 H152       -1.8408  -17.2011  -41.1573 H         1 UNK         0.0600 
    153 H153       -1.4617  -18.8320  -40.6077 H         1 UNK         0.0600 
    154 H154        0.3508  -17.9118  -42.1608 H         1 UNK         0.3000 
    155 H155        2.4590  -18.5122  -44.9998 H         1 UNK         0.0600 
    156 H156        1.8770  -16.1100  -45.0552 H         1 UNK         0.0600 
    157 H157        3.3616  -16.3527  -44.1509 H         1 UNK         0.0600 
    158 H158        1.8509  -16.0326  -43.3025 H         1 UNK         0.0600 
    159 H159        2.8615  -18.0413  -42.1680 H         1 UNK         0.3000 
    160 H160        3.1533  -21.4914  -41.2866 H         1 UNK         0.0600 
    161 H161        5.3074  -19.3261  -41.5740 H         1 UNK         0.0600 
    162 H162        5.3733  -20.9315  -42.2917 H         1 UNK         0.0600 
    163 H163        5.4009  -20.7554  -40.5446 H         1 UNK         0.0600 
    164 H164        3.5810  -19.0814  -39.8148 H         1 UNK         0.3000 
    165 H165        0.2299  -18.4376  -38.8726 H         1 UNK         0.0600 
    166 H166        1.1097  -18.7223  -36.5735 H         1 UNK         0.0600 
    167 H167        0.8565  -20.2925  -37.3178 H         1 UNK         0.0600 
    168 H168        2.4862  -19.6433  -37.1815 H         1 UNK         0.0600 
    169 H169        2.6481  -17.2850  -37.9778 H         1 UNK         0.3000 
    170 H170        3.1143  -15.1390  -38.6044 H         1 UNK         0.0600 
    171 H171        5.1462  -15.0062  -40.0450 H         1 UNK         0.0600 
    172 H172        4.8093  -16.6794  -39.6394 H         1 UNK         0.0600 
    173 H173        4.4000  -16.0683  -41.2381 H         1 UNK         0.0600 
    174 H174        3.1866  -13.9256  -41.1588 H         1 UNK         0.3000 
    175 H175        0.3522  -12.4367  -41.6120 H         1 UNK         0.0600 
    176 H176        1.8813  -10.7917  -39.5259 H         1 UNK         0.0600 
    177 H177        0.8290  -10.1296  -40.7770 H         1 UNK         0.0600 
    178 H178        0.1567  -11.1402  -39.5104 H         1 UNK         0.0600 
    179 H179        3.1176  -11.3988  -41.5659 H         1 UNK         0.3000 
    180 H180        4.1183  -11.1016  -43.5538 H         1 UNK         0.0600 
    181 H181        5.7397  -12.8446  -44.3465 H         1 UNK         0.0600 
    182 H182        4.4987  -14.0867  -44.1988 H         1 UNK         0.0600 
    183 H183        5.1054  -13.2669  -42.7637 H         1 UNK         0.0600 
    184 H184        2.6763  -12.5062  -45.6986 H         1 UNK         0.3000 
    185 H185        3.1379   -9.7994  -47.8457 H         1 UNK         0.0600 
    186 H186        5.2322  -10.9690  -48.5509 H         1 UNK         0.0600 
    187 H187        4.4195  -12.5246  -48.4254 H         1 UNK         0.0600 
    188 H188        3.9005  -11.3458  -49.6313 H         1 UNK         0.0600 
    189 H189        1.9747  -12.3685  -48.3021 H         1 UNK         0.3000 
    190 H190       -1.0752  -20.0901  -46.1868 H         1 UNK         0.3000 
    191 H191       -2.4977  -20.1516  -48.6506 H         1 UNK         0.0600 
    192 H192       -2.3292  -18.1287  -47.2306 H         1 UNK         0.0600 
    193 H193       -3.2755  -18.8963  -45.9627 H         1 UNK         0.0600 
    194 H194       -4.0132  -18.5316  -47.5191 H         1 UNK         0.0600 
    195 H195       -3.4129  -21.3506  -45.3756 H         1 UNK         0.3000 
    196 H196       -5.9530  -22.3717  -46.0511 H         1 UNK         0.0600 
    197 H197       -5.2230  -21.9102  -43.7270 H         1 UNK         0.0600 
    198 H198       -4.0357  -23.2103  -43.8141 H         1 UNK         0.0600 
    199 H199       -5.7550  -23.5785  -43.8732 H         1 UNK         0.0600 
    200 H200       -2.7554  -23.9092  -46.2642 H         1 UNK         0.3000 
    201 H201       -3.6554  -26.5483  -46.8984 H         1 UNK         0.0600 
    202 H202       -1.4048  -26.0874  -45.9885 H         1 UNK         0.0600 
    203 H203       -0.9854  -25.1357  -47.4132 H         1 UNK         0.0600 
    204 H204       -1.2548  -26.8689  -47.5514 H         1 UNK         0.0600 
    205 H205       -3.8482  -23.7310  -48.7791 H         1 UNK         0.3000 
    206 H206       -4.3705  -23.2371  -50.8625 H         1 UNK         0.0600 
    207 H207       -5.1713  -26.1890  -51.1304 H         1 UNK         0.0600 
    208 H208       -6.2096  -24.8609  -50.6182 H         1 UNK         0.0600 
    209 H209       -5.5973  -24.9282  -52.2629 H         1 UNK         0.0600 
    210 H210       -1.9692  -22.9487  -50.7904 H         1 UNK         0.3000 
    211 H211       -0.0393  -24.5565  -51.8181 H         1 UNK         0.0600 
    212 H212       -0.2823  -21.5121  -52.0328 H         1 UNK         0.0600 
    213 H213        1.2213  -22.4144  -52.1974 H         1 UNK         0.0600 
    214 H214        0.3671  -22.4117  -50.6637 H         1 UNK         0.0600 
    215 H215       -2.2671  -22.5966  -53.8230 H         1 UNK         0.3000 
    216 H216       -0.8585  -23.4582  -56.3205 H         1 UNK         0.0600 
    217 H217       -2.0596  -21.6344  -57.3806 H         1 UNK         0.0600 
    218 H218       -1.3341  -20.9839  -55.9186 H         1 UNK         0.0600 
    219 H219       -3.0583  -21.3725  -55.9632 H         1 UNK         0.0600 
    220 H220       -3.2211  -24.6198  -54.3344 H         1 UNK         0.3000 
    221 H221       -4.9681  -25.9193  -54.3804 H         1 UNK         0.0600 
    222 H222       -4.2814  -26.5658  -57.2954 H         1 UNK         0.0600 
    223 H223       -3.6810  -27.4012  -55.8664 H         1 UNK         0.0600 
    224 H224       -5.3894  -27.4613  -56.2688 H         1 UNK         0.0600 
    225 H225       -5.1438  -24.4401  -57.6288 H         1 UNK         0.3000 
    226 H226       -7.9895  -24.1057  -57.6781 H         1 UNK         0.0600 
    227 H227       -6.6395  -24.2960  -59.7424 H         1 UNK         0.0600 
    228 H228       -7.4815  -22.7534  -59.7281 H         1 UNK         0.0600 
    229 H229       -5.7638  -22.8171  -59.3488 H         1 UNK         0.0600 
    230 H230       -9.1178  -22.7194  -56.4966 H         1 UNK         0.3000 
    231 H231       -9.7944  -21.0631  -55.1940 H         1 UNK         0.0600 
    232 H232       -9.4010  -18.7454  -55.9402 H         1 UNK         0.0600 
    233 H233       -9.6462  -19.7713  -57.3428 H         1 UNK         0.0600 
    234 H234       -8.0211  -19.2426  -56.9096 H         1 UNK         0.0600 
    235 H235       -7.4346  -22.5406  -54.3761 H         1 UNK         0.3000 
    236 H236       -5.9819  -22.7883  -52.7928 H         1 UNK         0.0600 
    237 H237       -6.8510  -20.1107  -51.5889 H         1 UNK         0.0600 
    238 H238       -7.5156  -21.6952  -51.1918 H         1 UNK         0.0600 
    239 H239       -5.8470  -21.3111  -50.7998 H         1 UNK         0.0600 
    240 H240       -5.8204  -19.4489  -53.9882 H         1 UNK         0.3000 
    241 H241       -2.8676  -19.6498  -54.3548 H         1 UNK         0.0600 
    242 H242       -4.8645  -18.5871  -57.5086 H         1 UNK         0.3800 
    243 H243       -5.3226  -19.8251  -56.3776 H         1 UNK         0.3800 
    244 H244       -4.4117  -17.3876  -53.0192 H         1 UNK         0.0800 
    245 H245       -2.8026  -17.1712  -53.6295 H         1 UNK         0.0800 
    246 H246       -0.9001  -17.2836  -52.4316 H         1 UNK         0.0800 
    247 H247       -0.6157  -19.0026  -52.5794 H         1 UNK         0.0800 
@<TRIPOS>BOND
     1    1    2 1    
     2    1  127 1    
     3    1  128 1    
     4    1  129 1    
     5    2    3 2    
     6    2    4 am   BACKBONE|DICT|INTERRES
     7    4    5 1    
     8    4  130 1    
     9    5    6 1    
    10    5   65 1    
    11    5  131 1    
    12    6    7 1    
    13    6  132 1    
    14    6  133 1    
    15    7    8 1    
    16    8    9 1    
    17    8  134 1    
    18    8  135 1    
    19    9   10 ar   
    20    9   14 ar   
    21   10   11 ar   
    22   10  136 1    
    23   11   12 ar   
    24   11  126 1    
    25   12   13 ar   
    26   12  137 1    
    27   13   14 ar   
    28   13   15 1    
    29   14  138 1    
    30   15   16 1    
    31   15  139 1    
    32   15  140 1    
    33   16   17 1    
    34   17   18 1    
    35   17  141 1    
    36   17  142 1    
    37   18   19 1    
    38   18   67 1    
    39   18  143 1    
    40   19   20 am   BACKBONE|DICT|INTERRES
    41   19  144 1    
    42   20   21 2    
    43   20   22 1    
    44   22   23 1    
    45   22   24 1    
    46   22  145 1    
    47   23  146 1    
    48   23  147 1    
    49   23  148 1    
    50   24   25 am   BACKBONE|DICT|INTERRES
    51   24  149 1    
    52   25   26 2    
    53   25   27 1    
    54   27   28 1    
    55   27   29 1    
    56   27  150 1    
    57   28  151 1    
    58   28  152 1    
    59   28  153 1    
    60   29   30 am   BACKBONE|DICT|INTERRES
    61   29  154 1    
    62   30   31 2    
    63   30   32 1    
    64   32   33 1    
    65   32   34 1    
    66   32  155 1    
    67   33  156 1    
    68   33  157 1    
    69   33  158 1    
    70   34   35 am   BACKBONE|DICT|INTERRES
    71   34  159 1    
    72   35   36 2    
    73   35   37 1    
    74   37   38 1    
    75   37   39 1    
    76   37  160 1    
    77   38  161 1    
    78   38  162 1    
    79   38  163 1    
    80   39   40 am   BACKBONE|DICT|INTERRES
    81   39  164 1    
    82   40   41 2    
    83   40   42 1    
    84   42   43 1    
    85   42   44 1    
    86   42  165 1    
    87   43  166 1    
    88   43  167 1    
    89   43  168 1    
    90   44   45 am   BACKBONE|DICT|INTERRES
    91   44  169 1    
    92   45   46 2    
    93   45   47 1    
    94   47   48 1    
    95   47   49 1    
    96   47  170 1    
    97   48  171 1    
    98   48  172 1    
    99   48  173 1    
   100   49   50 am   BACKBONE|DICT|INTERRES
   101   49  174 1    
   102   50   51 2    
   103   50   52 1    
   104   52   53 1    
   105   52   54 1    
   106   52  175 1    
   107   53  176 1    
   108   53  177 1    
   109   53  178 1    
   110   54   55 am   BACKBONE|DICT|INTERRES
   111   54  179 1    
   112   55   56 2    
   113   55   57 1    
   114   57   58 1    
   115   57   59 1    
   116   57  180 1    
   117   58  181 1    
   118   58  182 1    
   119   58  183 1    
   120   59   60 am   BACKBONE|DICT|INTERRES
   121   59  184 1    
   122   60   61 2    
   123   60   62 1    
   124   62   63 1    
   125   62   64 1    
   126   62  185 1    
   127   63  186 1    
   128   63  187 1    
   129   63  188 1    
   130   64   65 am   BACKBONE|DICT|INTERRES
   131   64  189 1    
   132   65   66 2    
   133   67   68 2    
   134   67   69 am   BACKBONE|DICT|INTERRES
   135   69   70 1    
   136   69  190 1    
   137   70   71 1    
   138   70   72 1    
   139   70  191 1    
   140   71  192 1    
   141   71  193 1    
   142   71  194 1    
   143   72   73 2    
   144   72   74 am   BACKBONE|DICT|INTERRES
   145   74   75 1    
   146   74  195 1    
   147   75   76 1    
   148   75   77 1    
   149   75  196 1    
   150   76  197 1    
   151   76  198 1    
   152   76  199 1    
   153   77   78 2    
   154   77   79 am   BACKBONE|DICT|INTERRES
   155   79   80 1    
   156   79  200 1    
   157   80   81 1    
   158   80   82 1    
   159   80  201 1    
   160   81  202 1    
   161   81  203 1    
   162   81  204 1    
   163   82   83 2    
   164   82   84 am   BACKBONE|DICT|INTERRES
   165   84   85 1    
   166   84  205 1    
   167   85   86 1    
   168   85   87 1    
   169   85  206 1    
   170   86  207 1    
   171   86  208 1    
   172   86  209 1    
   173   87   88 2    
   174   87   89 am   BACKBONE|DICT|INTERRES
   175   89   90 1    
   176   89  210 1    
   177   90   91 1    
   178   90   92 1    
   179   90  211 1    
   180   91  212 1    
   181   91  213 1    
   182   91  214 1    
   183   92   93 2    
   184   92   94 am   BACKBONE|DICT|INTERRES
   185   94   95 1    
   186   94  215 1    
   187   95   96 1    
   188   95   97 1    
   189   95  216 1    
   190   96  217 1    
   191   96  218 1    
   192   96  219 1    
   193   97   98 2    
   194   97   99 am   BACKBONE|DICT|INTERRES
   195   99  100 1    
   196   99  220 1    
   197  100  101 1    
   198  100  102 1    
   199  100  221 1    
   200  101  222 1    
   201  101  223 1    
   202  101  224 1    
   203  102  103 2    
   204  102  104 am   BACKBONE|DICT|INTERRES
   205  104  105 1    
   206  104  225 1    
   207  105  106 1    
   208  105  107 1    
   209  105  226 1    
   210  106  227 1    
   211  106  228 1    
   212  106  229 1    
   213  107  108 2    
   214  107  109 am   BACKBONE|DICT|INTERRES
   215  109  110 1    
   216  109  230 1    
   217  110  111 1    
   218  110  112 1    
   219  110  231 1    
   220  111  232 1    
   221  111  233 1    
   222  111  234 1    
   223  112  113 2    
   224  112  114 am   BACKBONE|DICT|INTERRES
   225  114  115 1    
   226  114  235 1    
   227  115  116 1    
   228  115  117 1    
   229  115  236 1    
   230  116  237 1    
   231  116  238 1    
   232  116  239 1    
   233  117  118 2    
   234  117  119 am   BACKBONE|DICT|INTERRES
   235  119  120 1    
   236  119  240 1    
   237  120  121 1    
   238  120  124 1    
   239  120  241 1    
   240  121  122 am   BACKBONE|DICT|INTERRES
   241  121  123 2    
   242  122  242 1    
   243  122  243 1    
   244  124  125 1    
   245  124  244 1    
   246  124  245 1    
   247  125  126 1    
   248  126  246 1    
   249  126  247 1    
@<TRIPOS>SUBSTRUCTURE
     1 UNK         1 GROUP             0       ****    0 ROOT    
