@<TRIPOS>MOLECULE
3R540
247   249    1
SMALL
USER_CHARGES


@<TRIPOS>ATOM
      1 CA          3.0023  -17.2598  -47.6576 C.3       0 UNK        -0.1800 
      2 C           2.7484  -15.8437  -48.1450 C.2       0 UNK         0.5000 
      3 O           1.7425  -15.2358  -47.7813 O.2       0 UNK        -0.5000 
      4 N           3.6620  -15.3145  -48.9651 N.am      1 UNK        -0.5000 
      5 CA          3.6276  -13.9577  -49.5146 C.3       1 UNK         0.1400 
      6 C6          4.4327  -13.8654  -50.8350 C.3       23 UNK        -0.0398 
      7 S7          3.5303  -14.5612  -52.2614 S.3       23 UNK        -0.2404 
      8 C8          3.9418  -16.3422  -52.1941 C.3       23 UNK        -0.0205 
      9 C9          2.8747  -17.2538  -51.5781 C.ar      23 UNK        -0.0193 
     10 C10         1.5432  -16.8525  -51.3918 C.ar      23 UNK        -0.1150 
     11 C11         0.5905  -17.7432  -50.8884 C.ar      23 UNK        -0.0193 
     12 C12         0.9706  -19.0465  -50.5632 C.ar      23 UNK        -0.1150 
     13 C13         2.2909  -19.4640  -50.7401 C.ar      23 UNK        -0.0193 
     14 C14         3.2352  -18.5636  -51.2425 C.ar      23 UNK        -0.1150 
     15 C15         2.6838  -20.9020  -50.4364 C.3       23 UNK        -0.0205 
     16 S16         3.4868  -21.0837  -48.8113 S.3       23 UNK        -0.2404 
     17 C17         2.1255  -20.7238  -47.6507 C.3       23 UNK        -0.0398 
     18 CA          1.4234  -21.9849  -47.1013 C.3       11 UNK         0.1400 
     19 N           0.7365  -21.7007  -45.8407 N.am      11 UNK        -0.5000 
     20 C           0.2080  -22.6321  -45.0361 C.2       10 UNK         0.5000 
     21 O           0.2767  -23.8435  -45.2500 O.2       10 UNK        -0.5000 
     22 CA         -0.5601  -22.1166  -43.8064 C.3       10 UNK         0.1400 
     23 CB          0.4136  -21.7112  -42.6899 C.3       10 UNK        -0.1800 
     24 N          -1.4497  -20.9950  -44.1203 N.am      10 UNK        -0.5000 
     25 C          -2.5012  -21.0791  -44.9480 C.2       9 UNK         0.5000 
     26 O          -2.8307  -22.1127  -45.5244 O.2       9 UNK        -0.5000 
     27 CA         -3.3094  -19.7984  -45.2093 C.3       9 UNK         0.1400 
     28 CB         -4.2520  -19.4962  -44.0353 C.3       9 UNK        -0.1800 
     29 N          -2.4739  -18.6329  -45.4851 N.am      9 UNK        -0.5000 
     30 C          -1.6278  -18.5208  -46.5190 C.2       8 UNK         0.5000 
     31 O          -1.4605  -19.3898  -47.3734 O.2       8 UNK        -0.5000 
     32 CA         -0.7739  -17.2442  -46.5654 C.3       8 UNK         0.1400 
     33 CB         -1.6056  -16.0393  -47.0315 C.3       8 UNK        -0.1800 
     34 N          -0.1506  -16.9552  -45.2731 N.am      8 UNK        -0.5000 
     35 C           0.6980  -17.7766  -44.6363 C.2       7 UNK         0.5000 
     36 O           1.0943  -18.8508  -45.0905 O.2       7 UNK        -0.5000 
     37 CA          1.1259  -17.3513  -43.2233 C.3       7 UNK         0.1400 
     38 CB          2.2327  -16.2868  -43.2789 C.3       7 UNK        -0.1800 
     39 N          -0.0115  -16.8574  -42.4450 N.am      7 UNK        -0.5000 
     40 C          -1.0107  -17.6374  -42.0039 C.2       6 UNK         0.5000 
     41 O          -1.0537  -18.8541  -42.1790 O.2       6 UNK        -0.5000 
     42 CA         -2.1783  -16.9431  -41.2790 C.3       6 UNK         0.1400 
     43 CB         -1.8643  -16.7799  -39.7845 C.3       6 UNK        -0.1800 
     44 N          -2.5068  -15.6374  -41.8489 N.am      6 UNK        -0.5000 
     45 C          -2.9648  -15.4377  -43.0931 C.2       5 UNK         0.5000 
     46 O          -3.2155  -16.3477  -43.8821 O.2       5 UNK        -0.5000 
     47 CA         -3.1223  -13.9733  -43.5458 C.3       5 UNK         0.1400 
     48 CB         -4.5584  -13.4865  -43.3042 C.3       5 UNK        -0.1800 
     49 N          -2.1820  -13.0620  -42.8849 N.am      5 UNK        -0.5000 
     50 C          -0.8510  -13.1213  -43.0207 C.2       4 UNK         0.5000 
     51 O          -0.2741  -13.9436  -43.7355 O.2       4 UNK        -0.5000 
     52 CA         -0.0258  -12.1307  -42.1829 C.3       4 UNK         0.1400 
     53 CB          0.9846  -12.8760  -41.2951 C.3       4 UNK        -0.1800 
     54 N           0.6918  -11.1990  -43.0456 N.am      4 UNK        -0.5000 
     55 C           0.1291  -10.1799  -43.7091 C.2       3 UNK         0.5000 
     56 O          -1.0574   -9.8672  -43.6005 O.2       3 UNK        -0.5000 
     57 CA          1.0448   -9.3678  -44.6483 C.3       3 UNK         0.1400 
     58 CB          1.5301   -8.0876  -43.9507 C.3       3 UNK        -0.1800 
     59 N           2.2091  -10.1233  -45.1221 N.am      3 UNK        -0.5000 
     60 C           2.1446  -11.1449  -45.9850 C.2       2 UNK         0.5000 
     61 O           1.0950  -11.5362  -46.5030 O.2       2 UNK        -0.5000 
     62 CA          3.4724  -11.8507  -46.3003 C.3       2 UNK         0.1400 
     63 CB          3.9602  -12.6740  -45.0946 C.3       2 UNK        -0.1800 
     64 N           3.2733  -12.7470  -47.4308 N.am      2 UNK        -0.5000 
     65 C           4.1184  -12.9629  -48.4409 C.2       1 UNK         0.5000 
     66 O           5.2352  -12.4478  -48.5242 O.2       1 UNK        -0.5000 
     67 C           0.4633  -22.6046  -48.1377 C.2       11 UNK         0.5000 
     68 O           0.8122  -23.6006  -48.7722 O.2       11 UNK        -0.5000 
     69 N          -0.7428  -22.0323  -48.2631 N.am      12 UNK        -0.5000 
     70 CA         -1.7949  -22.5329  -49.1429 C.3       12 UNK         0.1400 
     71 CB         -2.9518  -21.5337  -49.1963 C.3       12 UNK        -0.1800 
     72 C          -2.3045  -23.9221  -48.7298 C.2       12 UNK         0.5000 
     73 O          -2.4908  -24.7676  -49.6000 O.2       12 UNK        -0.5000 
     74 N          -2.4760  -24.1611  -47.4220 N.am      13 UNK        -0.5000 
     75 CA         -2.8872  -25.4501  -46.8620 C.3       13 UNK         0.1400 
     76 CB         -3.1231  -25.3159  -45.3506 C.3       13 UNK        -0.1800 
     77 C          -1.8834  -26.5780  -47.1577 C.2       13 UNK         0.5000 
     78 O          -2.3041  -27.6912  -47.4726 O.2       13 UNK        -0.5000 
     79 N          -0.5813  -26.2597  -47.1188 N.am      14 UNK        -0.5000 
     80 CA          0.5025  -27.1633  -47.5144 C.3       14 UNK         0.1400 
     81 CB          1.8497  -26.5595  -47.0902 C.3       14 UNK        -0.1800 
     82 C           0.4956  -27.4945  -49.0224 C.2       14 UNK         0.5000 
     83 O           0.9064  -28.5909  -49.4034 O.2       14 UNK        -0.5000 
     84 N           0.0003  -26.5608  -49.8455 N.am      15 UNK        -0.5000 
     85 CA         -0.2098  -26.7217  -51.2862 C.3       15 UNK         0.1400 
     86 CB         -0.0358  -25.3498  -51.9608 C.3       15 UNK        -0.1800 
     87 C          -1.5862  -27.3338  -51.6341 C.2       15 UNK         0.5000 
     88 O          -1.8516  -27.5698  -52.8135 O.2       15 UNK        -0.5000 
     89 N          -2.4329  -27.5701  -50.6191 N.am      16 UNK        -0.5000 
     90 CA         -3.8203  -28.0430  -50.6892 C.3       16 UNK         0.1400 
     91 CB         -3.8848  -29.4846  -51.2359 C.3       16 UNK        -0.1800 
     92 C          -4.7628  -27.0649  -51.4280 C.2       16 UNK         0.5000 
     93 O          -5.6569  -27.4982  -52.1578 O.2       16 UNK        -0.5000 
     94 N          -4.5463  -25.7619  -51.2196 N.am      17 UNK        -0.5000 
     95 CA         -5.3047  -24.6551  -51.7959 C.3       17 UNK         0.1400 
     96 CB         -4.3331  -23.8023  -52.6283 C.3       17 UNK        -0.1800 
     97 C          -5.9456  -23.7997  -50.6883 C.2       17 UNK         0.5000 
     98 O          -5.6096  -23.9437  -49.5103 O.2       17 UNK        -0.5000 
     99 N          -6.8475  -22.8976  -51.0943 N.am      18 UNK        -0.5000 
    100 CA        -7.4006  -21.8408  -50.2455 C.3       18 UNK         0.1400 
    101 CB        -8.6974  -21.3203  -50.8841 C.3       18 UNK        -0.1800 
    102 C         -6.3908  -20.6899  -50.0849 C.2       18 UNK         0.5000 
    103 O         -5.5803  -20.4634  -50.9863 O.2       18 UNK        -0.5000 
    104 N         -6.4843  -19.9495  -48.9720 N.am      19 UNK        -0.5000 
    105 CA        -5.5720  -18.8597  -48.5945 C.3       19 UNK         0.1400 
    106 CB        -6.0170  -18.2808  -47.2424 C.3       19 UNK        -0.1800 
    107 C         -5.4432  -17.7309  -49.6368 C.2       19 UNK         0.5000 
    108 O         -4.3671  -17.1497  -49.7682 O.2       19 UNK        -0.5000 
    109 N         -6.5365  -17.4553  -50.3601 N.am      20 UNK        -0.5000 
    110 CA        -6.5895  -16.4698  -51.4409 C.3       20 UNK         0.1400 
    111 CB        -8.0236  -15.9256  -51.5364 C.3       20 UNK        -0.1800 
    112 C         -6.1442  -17.0409  -52.8023 C.2       20 UNK         0.5000 
    113 O         -5.8063  -16.2625  -53.6950 O.2       20 UNK        -0.5000 
    114 N         -6.1741  -18.3722  -52.9542 N.am      21 UNK        -0.5000 
    115 CA        -5.7884  -19.0771  -54.1775 C.3       21 UNK         0.1400 
    116 CB        -6.6101  -20.3700  -54.2995 C.3       21 UNK        -0.1800 
    117 C         -4.2833  -19.3900  -54.2105 C.2       21 UNK         0.5000 
    118 O         -3.7016  -19.4322  -55.2949 O.2       21 UNK        -0.5000 
    119 N         -3.6879  -19.6152  -53.0321 N.am      22 UNK        -0.5000 
    120 CA        -2.2583  -19.8665  -52.7687 C.3       22 UNK         0.1400 
    121 C         -1.6936  -21.2162  -53.3001 C.2       22 UNK         0.5000 
    122 N         -2.2375  -21.7985  -54.3592 N.am      22 UNK        -0.7600 
    123 O         -0.7513  -21.7507  -52.7244 O.2       22 UNK        -0.5000 
    124 C124       -1.3385  -18.6935  -53.2000 C.3       23 UNK        -0.0398 
    125 S125       -1.7089  -17.1206  -52.3446 S.3       23 UNK        -0.2404 
    126 C126       -0.8630  -17.3183  -50.7383 C.3       23 UNK        -0.0205 
    127 H127        3.9329  -17.6687  -48.0516 H         1 UNK         0.0600 
    128 H128        2.1886  -17.9015  -47.9853 H         1 UNK         0.0600 
    129 H129        3.0484  -17.2849  -46.5694 H         1 UNK         0.0600 
    130 H130        4.4741  -15.8609  -49.2097 H         1 UNK         0.3000 
    131 H131        2.5917  -13.6920  -49.7386 H         1 UNK         0.0600 
    132 H132        4.6269  -12.8215  -51.0883 H         1 UNK         0.0800 
    133 H133        5.4135  -14.3338  -50.7394 H         1 UNK         0.0800 
    134 H134        4.8891  -16.4771  -51.6708 H         1 UNK         0.0800 
    135 H135        4.1122  -16.6802  -53.2169 H         1 UNK         0.0800 
    136 H136        1.2250  -15.8562  -51.6601 H         1 UNK         0.1150 
    137 H137        0.2315  -19.7445  -50.1943 H         1 UNK         0.1150 
    138 H138        4.2534  -18.8942  -51.3934 H         1 UNK         0.1150 
    139 H139        1.8141  -21.5576  -50.4988 H         1 UNK         0.0800 
    140 H140        3.3738  -21.2542  -51.2044 H         1 UNK         0.0800 
    141 H141        1.4026  -20.0340  -48.0834 H         1 UNK         0.0800 
    142 H142        2.5862  -20.1804  -46.8250 H         1 UNK         0.0800 
    143 H143        2.1898  -22.7306  -46.8781 H         1 UNK         0.0600 
    144 H144        0.6535  -20.7220  -45.5794 H         1 UNK         0.3000 
    145 H145       -1.1774  -22.9374  -43.4355 H         1 UNK         0.0600 
    146 H146       -0.1219  -21.4518  -41.7766 H         1 UNK         0.0600 
    147 H147        1.0933  -22.5287  -42.4464 H         1 UNK         0.0600 
    148 H148        1.0203  -20.8517  -42.9772 H         1 UNK         0.0600 
    149 H149       -1.2613  -20.1183  -43.6426 H         1 UNK         0.3000 
    150 H150       -3.9179  -19.9793  -46.0962 H         1 UNK         0.0600 
    151 H151       -4.9127  -20.3411  -43.8374 H         1 UNK         0.0600 
    152 H152       -4.8822  -18.6323  -44.2467 H         1 UNK         0.0600 
    153 H153       -3.6991  -19.2887  -43.1190 H         1 UNK         0.0600 
    154 H154       -2.5696  -17.8479  -44.8458 H         1 UNK         0.3000 
    155 H155        0.0207  -17.4067  -47.2941 H         1 UNK         0.0600 
    156 H156       -2.4083  -15.8021  -46.3345 H         1 UNK         0.0600 
    157 H157       -2.0660  -16.2361  -48.0004 H         1 UNK         0.0600 
    158 H158       -0.9835  -15.1507  -47.1403 H         1 UNK         0.0600 
    159 H159       -0.4070  -16.0851  -44.8255 H         1 UNK         0.3000 
    160 H160        1.5294  -18.2304  -42.7160 H         1 UNK         0.0600 
    161 H161        1.9104  -15.3905  -43.8086 H         1 UNK         0.0600 
    162 H162        3.1121  -16.6702  -43.7977 H         1 UNK         0.0600 
    163 H163        2.5482  -15.9912  -42.2783 H         1 UNK         0.0600 
    164 H164       -0.0782  -15.8571  -42.3233 H         1 UNK         0.3000 
    165 H165       -3.0578  -17.5829  -41.3760 H         1 UNK         0.0600 
    166 H166       -2.7150  -16.3619  -39.2460 H         1 UNK         0.0600 
    167 H167       -1.6334  -17.7431  -39.3274 H         1 UNK         0.0600 
    168 H168       -1.0075  -16.1249  -39.6209 H         1 UNK         0.0600 
    169 H169       -2.3390  -14.8308  -41.2665 H         1 UNK         0.3000 
    170 H170       -2.9247  -13.9386  -44.6192 H         1 UNK         0.0600 
    171 H171       -5.2792  -14.1341  -43.8053 H         1 UNK         0.0600 
    172 H172       -4.8080  -13.4771  -42.2424 H         1 UNK         0.0600 
    173 H173       -4.7040  -12.4785  -43.6933 H         1 UNK         0.0600 
    174 H174       -2.5845  -12.3457  -42.2972 H         1 UNK         0.3000 
    175 H175       -0.6945  -11.5639  -41.5314 H         1 UNK         0.0600 
    176 H176        1.7132  -13.4312  -41.8875 H         1 UNK         0.0600 
    177 H177        1.5327  -12.1831  -40.6565 H         1 UNK         0.0600 
    178 H178        0.4804  -13.5894  -40.6419 H         1 UNK         0.0600 
    179 H179        1.6638  -11.4028  -43.2201 H         1 UNK         0.3000 
    180 H180        0.4487   -9.0775  -45.5161 H         1 UNK         0.0600 
    181 H181        2.1468   -8.3125  -43.0795 H         1 UNK         0.0600 
    182 H182        0.6872   -7.4852  -43.6092 H         1 UNK         0.0600 
    183 H183        2.1173   -7.4671  -44.6279 H         1 UNK         0.0600 
    184 H184        3.1058   -9.8517  -44.7447 H         1 UNK         0.3000 
    185 H185        4.2124  -11.0877  -46.5507 H         1 UNK         0.0600 
    186 H186        4.8885  -13.1968  -45.3256 H         1 UNK         0.0600 
    187 H187        4.1552  -12.0376  -44.2309 H         1 UNK         0.0600 
    188 H188        3.2232  -13.4207  -44.7954 H         1 UNK         0.0600 
    189 H189        2.3765  -13.2245  -47.4417 H         1 UNK         0.3000 
    190 H190       -0.9616  -21.1935  -47.7313 H         1 UNK         0.3000 
    191 H191       -1.3742  -22.6156  -50.1471 H         1 UNK         0.0600 
    192 H192       -3.4529  -21.4444  -48.2321 H         1 UNK         0.0600 
    193 H193       -3.6902  -21.8618  -49.9251 H         1 UNK         0.0600 
    194 H194       -2.6147  -20.5423  -49.4952 H         1 UNK         0.0600 
    195 H195       -2.3711  -23.3941  -46.7614 H         1 UNK         0.3000 
    196 H196       -3.8356  -25.7221  -47.3304 H         1 UNK         0.0600 
    197 H197       -3.4213  -26.2699  -44.9141 H         1 UNK         0.0600 
    198 H198       -3.9181  -24.6009  -45.1390 H         1 UNK         0.0600 
    199 H199       -2.2247  -24.9820  -44.8308 H         1 UNK         0.0600 
    200 H200       -0.3163  -25.3263  -46.8255 H         1 UNK         0.3000 
    201 H201        0.3683  -28.1017  -46.9724 H         1 UNK         0.0600 
    202 H202        1.8760  -26.3681  -46.0172 H         1 UNK         0.0600 
    203 H203        2.0508  -25.6185  -47.6019 H         1 UNK         0.0600 
    204 H204        2.6710  -27.2392  -47.3204 H         1 UNK         0.0600 
    205 H205       -0.3069  -25.6815  -49.4484 H         1 UNK         0.3000 
    206 H206        0.5536  -27.3916  -51.6867 H         1 UNK         0.0600 
    207 H207        0.9328  -24.9103  -51.7212 H         1 UNK         0.0600 
    208 H208       -0.0933  -25.4361  -53.0463 H         1 UNK         0.0600 
    209 H209       -0.8063  -24.6435  -51.6511 H         1 UNK         0.0600 
    210 H210       -2.1165  -27.3206  -49.6911 H         1 UNK         0.3000 
    211 H211       -4.1750  -28.0722  -49.6581 H         1 UNK         0.0600 
    212 H212       -3.6050  -29.5335  -52.2885 H         1 UNK         0.0600 
    213 H213       -4.8930  -29.8908  -51.1475 H         1 UNK         0.0600 
    214 H214       -3.2203  -30.1463  -50.6803 H         1 UNK         0.0600 
    215 H215       -3.8102  -25.4821  -50.5714 H         1 UNK         0.3000 
    216 H216       -6.1014  -25.0255  -52.4438 H         1 UNK         0.0600 
    217 H217       -4.8394  -22.9603  -53.1007 H         1 UNK         0.0600 
    218 H218       -3.8748  -24.3913  -53.4229 H         1 UNK         0.0600 
    219 H219       -3.5294  -23.3966  -52.0122 H         1 UNK         0.0600 
    220 H220       -7.0507  -22.8245  -52.0797 H         1 UNK         0.3000 
    221 H221       -7.6307  -22.2534  -49.2609 H         1 UNK         0.0600 
    222 H222       -8.5184  -20.8821  -51.8668 H         1 UNK         0.0600 
    223 H223       -9.4265  -22.1220  -51.0034 H         1 UNK         0.0600 
    224 H224       -9.1608  -20.5529  -50.2628 H         1 UNK         0.0600 
    225 H225       -7.1972  -20.1825  -48.2957 H         1 UNK         0.3000 
    226 H226       -4.5792  -19.2931  -48.4667 H         1 UNK         0.0600 
    227 H227       -6.1045  -19.0586  -46.4845 H         1 UNK         0.0600 
    228 H228       -5.2958  -17.5486  -46.8755 H         1 UNK         0.0600 
    229 H229       -6.9839  -17.7816  -47.3176 H         1 UNK         0.0600 
    230 H230       -7.3816  -17.9742  -50.1729 H         1 UNK         0.3000 
    231 H231       -5.9264  -15.6356  -51.2014 H         1 UNK         0.0600 
    232 H232       -8.3338  -15.4650  -50.5983 H         1 UNK         0.0600 
    233 H233       -8.7385  -16.7134  -51.7773 H         1 UNK         0.0600 
    234 H234       -8.1018  -15.1630  -52.3125 H         1 UNK         0.0600 
    235 H235       -6.3726  -18.9507  -52.1483 H         1 UNK         0.3000 
    236 H236       -6.0180  -18.4529  -55.0438 H         1 UNK         0.0600 
    237 H237       -6.3697  -20.8984  -55.2229 H         1 UNK         0.0600 
    238 H238       -6.4157  -21.0525  -53.4730 H         1 UNK         0.0600 
    239 H239       -7.6791  -20.1574  -54.3158 H         1 UNK         0.0600 
    240 H240       -4.2870  -19.6635  -52.2142 H         1 UNK         0.3000 
    241 H241       -2.1880  -19.9426  -51.6845 H         1 UNK         0.0600 
    242 H242       -1.8687  -22.6727  -54.6959 H         1 UNK         0.3800 
    243 H243       -2.9487  -21.3044  -54.8819 H         1 UNK         0.3800 
    244 H244       -1.4330  -18.5168  -54.2718 H         1 UNK         0.0800 
    245 H245       -0.2880  -18.9442  -53.0531 H         1 UNK         0.0800 
    246 H246       -1.4169  -18.0361  -50.1304 H         1 UNK         0.0800 
    247 H247       -0.9045  -16.3706  -50.2002 H         1 UNK         0.0800 
@<TRIPOS>BOND
     1    1    2 1    
     2    1  127 1    
     3    1  128 1    
     4    1  129 1    
     5    2    3 2    
     6    2    4 am   BACKBONE|DICT|INTERRES
     7    4    5 1    
     8    4  130 1    
     9    5    6 1    
    10    5   65 1    
    11    5  131 1    
    12    6    7 1    
    13    6  132 1    
    14    6  133 1    
    15    7    8 1    
    16    8    9 1    
    17    8  134 1    
    18    8  135 1    
    19    9   10 ar   
    20    9   14 ar   
    21   10   11 ar   
    22   10  136 1    
    23   11   12 ar   
    24   11  126 1    
    25   12   13 ar   
    26   12  137 1    
    27   13   14 ar   
    28   13   15 1    
    29   14  138 1    
    30   15   16 1    
    31   15  139 1    
    32   15  140 1    
    33   16   17 1    
    34   17   18 1    
    35   17  141 1    
    36   17  142 1    
    37   18   19 1    
    38   18   67 1    
    39   18  143 1    
    40   19   20 am   BACKBONE|DICT|INTERRES
    41   19  144 1    
    42   20   21 2    
    43   20   22 1    
    44   22   23 1    
    45   22   24 1    
    46   22  145 1    
    47   23  146 1    
    48   23  147 1    
    49   23  148 1    
    50   24   25 am   BACKBONE|DICT|INTERRES
    51   24  149 1    
    52   25   26 2    
    53   25   27 1    
    54   27   28 1    
    55   27   29 1    
    56   27  150 1    
    57   28  151 1    
    58   28  152 1    
    59   28  153 1    
    60   29   30 am   BACKBONE|DICT|INTERRES
    61   29  154 1    
    62   30   31 2    
    63   30   32 1    
    64   32   33 1    
    65   32   34 1    
    66   32  155 1    
    67   33  156 1    
    68   33  157 1    
    69   33  158 1    
    70   34   35 am   BACKBONE|DICT|INTERRES
    71   34  159 1    
    72   35   36 2    
    73   35   37 1    
    74   37   38 1    
    75   37   39 1    
    76   37  160 1    
    77   38  161 1    
    78   38  162 1    
    79   38  163 1    
    80   39   40 am   BACKBONE|DICT|INTERRES
    81   39  164 1    
    82   40   41 2    
    83   40   42 1    
    84   42   43 1    
    85   42   44 1    
    86   42  165 1    
    87   43  166 1    
    88   43  167 1    
    89   43  168 1    
    90   44   45 am   BACKBONE|DICT|INTERRES
    91   44  169 1    
    92   45   46 2    
    93   45   47 1    
    94   47   48 1    
    95   47   49 1    
    96   47  170 1    
    97   48  171 1    
    98   48  172 1    
    99   48  173 1    
   100   49   50 am   BACKBONE|DICT|INTERRES
   101   49  174 1    
   102   50   51 2    
   103   50   52 1    
   104   52   53 1    
   105   52   54 1    
   106   52  175 1    
   107   53  176 1    
   108   53  177 1    
   109   53  178 1    
   110   54   55 am   BACKBONE|DICT|INTERRES
   111   54  179 1    
   112   55   56 2    
   113   55   57 1    
   114   57   58 1    
   115   57   59 1    
   116   57  180 1    
   117   58  181 1    
   118   58  182 1    
   119   58  183 1    
   120   59   60 am   BACKBONE|DICT|INTERRES
   121   59  184 1    
   122   60   61 2    
   123   60   62 1    
   124   62   63 1    
   125   62   64 1    
   126   62  185 1    
   127   63  186 1    
   128   63  187 1    
   129   63  188 1    
   130   64   65 am   BACKBONE|DICT|INTERRES
   131   64  189 1    
   132   65   66 2    
   133   67   68 2    
   134   67   69 am   BACKBONE|DICT|INTERRES
   135   69   70 1    
   136   69  190 1    
   137   70   71 1    
   138   70   72 1    
   139   70  191 1    
   140   71  192 1    
   141   71  193 1    
   142   71  194 1    
   143   72   73 2    
   144   72   74 am   BACKBONE|DICT|INTERRES
   145   74   75 1    
   146   74  195 1    
   147   75   76 1    
   148   75   77 1    
   149   75  196 1    
   150   76  197 1    
   151   76  198 1    
   152   76  199 1    
   153   77   78 2    
   154   77   79 am   BACKBONE|DICT|INTERRES
   155   79   80 1    
   156   79  200 1    
   157   80   81 1    
   158   80   82 1    
   159   80  201 1    
   160   81  202 1    
   161   81  203 1    
   162   81  204 1    
   163   82   83 2    
   164   82   84 am   BACKBONE|DICT|INTERRES
   165   84   85 1    
   166   84  205 1    
   167   85   86 1    
   168   85   87 1    
   169   85  206 1    
   170   86  207 1    
   171   86  208 1    
   172   86  209 1    
   173   87   88 2    
   174   87   89 am   BACKBONE|DICT|INTERRES
   175   89   90 1    
   176   89  210 1    
   177   90   91 1    
   178   90   92 1    
   179   90  211 1    
   180   91  212 1    
   181   91  213 1    
   182   91  214 1    
   183   92   93 2    
   184   92   94 am   BACKBONE|DICT|INTERRES
   185   94   95 1    
   186   94  215 1    
   187   95   96 1    
   188   95   97 1    
   189   95  216 1    
   190   96  217 1    
   191   96  218 1    
   192   96  219 1    
   193   97   98 2    
   194   97   99 am   BACKBONE|DICT|INTERRES
   195   99  100 1    
   196   99  220 1    
   197  100  101 1    
   198  100  102 1    
   199  100  221 1    
   200  101  222 1    
   201  101  223 1    
   202  101  224 1    
   203  102  103 2    
   204  102  104 am   BACKBONE|DICT|INTERRES
   205  104  105 1    
   206  104  225 1    
   207  105  106 1    
   208  105  107 1    
   209  105  226 1    
   210  106  227 1    
   211  106  228 1    
   212  106  229 1    
   213  107  108 2    
   214  107  109 am   BACKBONE|DICT|INTERRES
   215  109  110 1    
   216  109  230 1    
   217  110  111 1    
   218  110  112 1    
   219  110  231 1    
   220  111  232 1    
   221  111  233 1    
   222  111  234 1    
   223  112  113 2    
   224  112  114 am   BACKBONE|DICT|INTERRES
   225  114  115 1    
   226  114  235 1    
   227  115  116 1    
   228  115  117 1    
   229  115  236 1    
   230  116  237 1    
   231  116  238 1    
   232  116  239 1    
   233  117  118 2    
   234  117  119 am   BACKBONE|DICT|INTERRES
   235  119  120 1    
   236  119  240 1    
   237  120  121 1    
   238  120  124 1    
   239  120  241 1    
   240  121  122 am   BACKBONE|DICT|INTERRES
   241  121  123 2    
   242  122  242 1    
   243  122  243 1    
   244  124  125 1    
   245  124  244 1    
   246  124  245 1    
   247  125  126 1    
   248  126  246 1    
   249  126  247 1    
@<TRIPOS>SUBSTRUCTURE
     1 UNK         1 GROUP             0       ****    0 ROOT    
