@<TRIPOS>MOLECULE
3R540
247   249    1
SMALL
USER_CHARGES


@<TRIPOS>ATOM
      1 CA         -0.8471  -16.0751  -46.5799 C.3       0 UNK        -0.1800 
      2 C          -0.5900  -14.5772  -46.6209 C.2       0 UNK         0.5000 
      3 O          -1.1676  -13.8322  -45.8294 O.2       0 UNK        -0.5000 
      4 N           0.2621  -14.1304  -47.5498 N.am      1 UNK        -0.5000 
      5 CA          0.6178  -12.7220  -47.7362 C.3       1 UNK         0.1400 
      6 C6          1.3422  -12.4779  -49.0818 C.3       23 UNK        -0.0398 
      7 S7          0.2724  -12.8332  -50.5201 S.3       23 UNK        -0.2404 
      8 C8          1.4660  -13.4613  -51.7441 C.3       23 UNK        -0.0205 
      9 C9          1.6042  -14.9757  -51.6846 C.ar      23 UNK        -0.0193 
     10 C10         0.8623  -15.7863  -52.5526 C.ar      23 UNK        -0.1150 
     11 C11         1.0006  -17.1782  -52.5202 C.ar      23 UNK        -0.0193 
     12 C12         1.8792  -17.7542  -51.5984 C.ar      23 UNK        -0.1150 
     13 C13         2.6265  -16.9568  -50.7289 C.ar      23 UNK        -0.0193 
     14 C14         2.4903  -15.5681  -50.7804 C.ar      23 UNK        -0.1150 
     15 C15         3.5903  -17.5970  -49.7437 C.3       23 UNK        -0.0205 
     16 S16         2.8602  -17.7773  -48.0864 S.3       23 UNK        -0.2404 
     17 C17         1.4941  -18.9512  -48.3845 C.3       23 UNK        -0.0398 
     18 CA          1.9690  -20.4191  -48.5235 C.3       11 UNK         0.1400 
     19 N           2.5985  -20.8923  -47.2862 N.am      11 UNK        -0.5000 
     20 C           3.4159  -21.9464  -47.1715 C.2       10 UNK         0.5000 
     21 O           3.7197  -22.6822  -48.1103 O.2       10 UNK        -0.5000 
     22 CA          3.9712  -22.2327  -45.7665 C.3       10 UNK         0.1400 
     23 CB          5.1780  -21.3266  -45.4753 C.3       10 UNK        -0.1800 
     24 N           2.9528  -22.0145  -44.7374 N.am      10 UNK        -0.5000 
     25 C           2.2466  -22.9818  -44.1365 C.2       9 UNK         0.5000 
     26 O           2.3884  -24.1810  -44.3779 O.2       9 UNK        -0.5000 
     27 CA          1.2032  -22.5460  -43.0853 C.3       9 UNK         0.1400 
     28 CB          1.8252  -22.5464  -41.6807 C.3       9 UNK        -0.1800 
     29 N           0.6280  -21.2260  -43.3419 N.am      9 UNK        -0.5000 
     30 C          -0.1635  -20.9250  -44.3783 C.2       8 UNK         0.5000 
     31 O          -0.5555  -21.7470  -45.2068 O.2       8 UNK        -0.5000 
     32 CA         -0.5557  -19.4466  -44.5485 C.3       8 UNK         0.1400 
     33 CB         -1.9211  -19.1833  -43.8990 C.3       8 UNK        -0.1800 
     34 N           0.4155  -18.4724  -44.0403 N.am      8 UNK        -0.5000 
     35 C           1.7098  -18.3938  -44.3814 C.2       7 UNK         0.5000 
     36 O           2.2796  -19.2231  -45.0870 O.2       7 UNK        -0.5000 
     37 CA          2.5080  -17.2104  -43.8173 C.3       7 UNK         0.1400 
     38 CB          2.2497  -15.9350  -44.6364 C.3       7 UNK        -0.1800 
     39 N           2.1895  -16.9845  -42.4086 N.am      7 UNK        -0.5000 
     40 C           2.7081  -17.7003  -41.4004 C.2       6 UNK         0.5000 
     41 O           3.5891  -18.5477  -41.5475 O.2       6 UNK        -0.5000 
     42 CA          2.1311  -17.4529  -39.9938 C.3       6 UNK         0.1400 
     43 CB          2.9632  -16.4103  -39.2339 C.3       6 UNK        -0.1800 
     44 N           0.7299  -17.0312  -40.0252 N.am      6 UNK        -0.5000 
     45 C          -0.2917  -17.8558  -40.2998 C.2       5 UNK         0.5000 
     46 O          -0.1558  -19.0601  -40.5193 O.2       5 UNK        -0.5000 
     47 CA         -1.6992  -17.2298  -40.3729 C.3       5 UNK         0.1400 
     48 CB         -2.3885  -17.3010  -39.0023 C.3       5 UNK        -0.1800 
     49 N          -1.7194  -15.8433  -40.8469 N.am      5 UNK        -0.5000 
     50 C          -1.2521  -15.4189  -42.0289 C.2       4 UNK         0.5000 
     51 O          -0.7146  -16.1635  -42.8484 O.2       4 UNK        -0.5000 
     52 CA         -1.3646  -13.9144  -42.3474 C.3       4 UNK         0.1400 
     53 CB         -2.1797  -13.1057  -41.3128 C.3       4 UNK        -0.1800 
     54 N          -0.0473  -13.3017  -42.5468 N.am      4 UNK        -0.5000 
     55 C           0.9703  -13.2728  -41.6722 C.2       3 UNK         0.5000 
     56 O           0.9383  -13.8308  -40.5739 O.2       3 UNK        -0.5000 
     57 CA          2.2375  -12.4915  -42.0749 C.3       3 UNK         0.1400 
     58 CB          3.4978  -13.3656  -41.9715 C.3       3 UNK        -0.1800 
     59 N           2.1653  -11.9010  -43.4162 N.am      3 UNK        -0.5000 
     60 C           1.7080  -10.6704  -43.6772 C.2       2 UNK         0.5000 
     61 O           1.1962   -9.9419  -42.8264 O.2       2 UNK        -0.5000 
     62 CA          1.8568  -10.1477  -45.1193 C.3       2 UNK         0.1400 
     63 CB          3.3353   -9.8962  -45.4766 C.3       2 UNK        -0.1800 
     64 N           1.1848  -10.9548  -46.1450 N.am      2 UNK        -0.5000 
     65 C           1.4666  -12.1979  -46.5581 C.2       1 UNK         0.5000 
     66 O           2.3581  -12.9023  -46.0783 O.2       1 UNK        -0.5000 
     67 C           0.7970  -21.3101  -48.9889 C.2       11 UNK         0.5000 
     68 O           0.3155  -21.1235  -50.1054 O.2       11 UNK        -0.5000 
     69 N           0.3379  -22.2234  -48.1196 N.am      12 UNK        -0.5000 
     70 CA         -0.7934  -23.1446  -48.2825 C.3       12 UNK         0.1400 
     71 CB         -0.6272  -24.0429  -49.5263 C.3       12 UNK        -0.1800 
     72 C          -2.1711  -22.4543  -48.2491 C.2       12 UNK         0.5000 
     73 O          -3.1792  -23.1157  -48.4919 O.2       12 UNK        -0.5000 
     74 N          -2.2121  -21.1604  -47.8965 N.am      13 UNK        -0.5000 
     75 CA         -3.4099  -20.3143  -47.8186 C.3       13 UNK         0.1400 
     76 CB         -2.9808  -18.8458  -47.6879 C.3       13 UNK        -0.1800 
     77 C          -4.4111  -20.7097  -46.7123 C.2       13 UNK         0.5000 
     78 O          -5.4868  -20.1165  -46.6301 O.2       13 UNK        -0.5000 
     79 N          -4.0601  -21.7158  -45.8995 N.am      14 UNK        -0.5000 
     80 CA         -4.9798  -22.4436  -45.0274 C.3       14 UNK         0.1400 
     81 CB         -4.1649  -23.3668  -44.1093 C.3       14 UNK        -0.1800 
     82 C          -6.0327  -23.2477  -45.8232 C.2       14 UNK         0.5000 
     83 O          -7.1471  -23.4302  -45.3313 O.2       14 UNK        -0.5000 
     84 N          -5.6785  -23.6865  -47.0410 N.am      15 UNK        -0.5000 
     85 CA         -6.6077  -24.2280  -48.0298 C.3       15 UNK         0.1400 
     86 CB         -5.8530  -25.1933  -48.9579 C.3       15 UNK        -0.1800 
     87 C          -7.2231  -23.0764  -48.8427 C.2       15 UNK         0.5000 
     88 O          -6.5587  -22.0594  -49.0624 O.2       15 UNK        -0.5000 
     89 N          -8.4676  -23.2685  -49.3003 N.am      16 UNK        -0.5000 
     90 CA         -9.2562  -22.2992  -50.0673 C.3       16 UNK         0.1400 
     91 CB        -10.6095  -22.9276  -50.4343 C.3       16 UNK        -0.1800 
     92 C          -8.5235  -21.8064  -51.3289 C.2       16 UNK         0.5000 
     93 O          -8.1743  -22.6221  -52.1845 O.2       16 UNK        -0.5000 
     94 N          -8.2608  -20.4921  -51.3834 N.am      17 UNK        -0.5000 
     95 CA         -7.5090  -19.7813  -52.4268 C.3       17 UNK         0.1400 
     96 CB         -8.3136  -19.7598  -53.7438 C.3       17 UNK        -0.1800 
     97 C          -6.0672  -20.3069  -52.6178 C.2       17 UNK         0.5000 
     98 O          -5.5462  -20.2703  -53.7332 O.2       17 UNK        -0.5000 
     99 N          -5.4665  -20.8308  -51.5370 N.am      18 UNK        -0.5000 
    100 CA        -4.1833  -21.5401  -51.5017 C.3       18 UNK         0.1400 
    101 CB        -3.0052  -20.5824  -51.7650 C.3       18 UNK        -0.1800 
    102 C         -4.1940  -22.7857  -52.4081 C.2       18 UNK         0.5000 
    103 O         -3.3202  -22.9545  -53.2625 O.2       18 UNK        -0.5000 
    104 N         -5.2518  -23.5935  -52.2406 N.am      19 UNK        -0.5000 
    105 CA        -5.6156  -24.7759  -53.0313 C.3       19 UNK         0.1400 
    106 CB        -4.5408  -25.8749  -52.9020 C.3       19 UNK        -0.1800 
    107 C         -5.9579  -24.4437  -54.5012 C.2       19 UNK         0.5000 
    108 O         -5.8940  -25.3241  -55.3599 O.2       19 UNK        -0.5000 
    109 N         -6.2974  -23.1708  -54.7587 N.am      20 UNK        -0.5000 
    110 CA        -6.5802  -22.5440  -56.0536 C.3       20 UNK         0.1400 
    111 CB        -7.8766  -23.1179  -56.6605 C.3       20 UNK        -0.1800 
    112 C         -5.3911  -22.5783  -57.0394 C.2       20 UNK         0.5000 
    113 O         -5.6032  -22.4476  -58.2466 O.2       20 UNK        -0.5000 
    114 N         -4.1671  -22.7581  -56.5228 N.am      21 UNK        -0.5000 
    115 CA        -2.9627  -22.9832  -57.3237 C.3       21 UNK         0.1400 
    116 CB        -2.7903  -24.4987  -57.5391 C.3       21 UNK        -0.1800 
    117 C         -1.6929  -22.3606  -56.7165 C.2       21 UNK         0.5000 
    118 O         -0.6241  -22.5199  -57.3081 O.2       21 UNK        -0.5000 
    119 N         -1.8048  -21.6785  -55.5659 N.am      22 UNK        -0.5000 
    120 CA        -0.6682  -21.1894  -54.7637 C.3       22 UNK         0.1400 
    121 C          0.1716  -22.3647  -54.1720 C.2       22 UNK         0.5000 
    122 N         -0.4840  -23.3530  -53.5744 N.am      22 UNK        -0.7600 
    123 O          1.3950  -22.4096  -54.2684 O.2       22 UNK        -0.5000 
    124 C124        0.1380  -20.0762  -55.4971 C.3       23 UNK        -0.0398 
    125 S125        1.3048  -19.1390  -54.4512 S.3       23 UNK        -0.2404 
    126 C126        0.2049  -18.0652  -53.4713 C.3       23 UNK        -0.0205 
    127 H127       -0.7945  -16.4372  -45.5547 H         1 UNK         0.0600 
    128 H128       -0.1206  -16.6264  -47.1761 H         1 UNK         0.0600 
    129 H129       -1.8437  -16.2857  -46.9653 H         1 UNK         0.0600 
    130 H130        0.7195  -14.7839  -48.1684 H         1 UNK         0.3000 
    131 H131       -0.3148  -12.1531  -47.7540 H         1 UNK         0.0600 
    132 H132        2.2542  -13.0728  -49.1329 H         1 UNK         0.0800 
    133 H133        1.6564  -11.4357  -49.1648 H         1 UNK         0.0800 
    134 H134        1.1297  -13.1623  -52.7381 H         1 UNK         0.0800 
    135 H135        2.4375  -12.9849  -51.6034 H         1 UNK         0.0800 
    136 H136        0.1813  -15.3307  -53.2578 H         1 UNK         0.1150 
    137 H137        1.9842  -18.8300  -51.5639 H         1 UNK         0.1150 
    138 H138        3.0783  -14.9530  -50.1152 H         1 UNK         0.1150 
    139 H139        3.9238  -18.5692  -50.1083 H         1 UNK         0.0800 
    140 H140        4.4888  -16.9835  -49.6637 H         1 UNK         0.0800 
    141 H141        0.8008  -18.8651  -47.5477 H         1 UNK         0.0800 
    142 H142        0.9302  -18.6249  -49.2580 H         1 UNK         0.0800 
    143 H143        2.7160  -20.4645  -49.3180 H         1 UNK         0.0600 
    144 H144        2.4577  -20.3005  -46.4687 H         1 UNK         0.3000 
    145 H145        4.3159  -23.2687  -45.7460 H         1 UNK         0.0600 
    146 H146        5.6117  -21.5518  -44.5009 H         1 UNK         0.0600 
    147 H147        4.9032  -20.2709  -45.4825 H         1 UNK         0.0600 
    148 H148        5.9614  -21.4676  -46.2210 H         1 UNK         0.0600 
    149 H149        2.7357  -21.0467  -44.5237 H         1 UNK         0.3000 
    150 H150        0.3919  -23.2768  -43.1024 H         1 UNK         0.0600 
    151 H151        2.6294  -21.8139  -41.5975 H         1 UNK         0.0600 
    152 H152        1.0802  -22.3133  -40.9195 H         1 UNK         0.0600 
    153 H153        2.2435  -23.5241  -41.4377 H         1 UNK         0.0600 
    154 H154        0.8807  -20.4843  -42.7038 H         1 UNK         0.3000 
    155 H155       -0.6422  -19.2682  -45.6199 H         1 UNK         0.0600 
    156 H156       -2.6826  -19.8551  -44.2943 H         1 UNK         0.0600 
    157 H157       -2.2605  -18.1638  -44.0829 H         1 UNK         0.0600 
    158 H158       -1.8819  -19.3383  -42.8212 H         1 UNK         0.0600 
    159 H159        0.0295  -17.7154  -43.4801 H         1 UNK         0.3000 
    160 H160        3.5672  -17.4575  -43.9162 H         1 UNK         0.0600 
    161 H161        1.3080  -15.4560  -44.3718 H         1 UNK         0.0600 
    162 H162        2.2164  -16.1465  -45.7050 H         1 UNK         0.0600 
    163 H163        3.0465  -15.2074  -44.4956 H         1 UNK         0.0600 
    164 H164        1.4186  -16.3600  -42.2126 H         1 UNK         0.3000 
    165 H165        2.1946  -18.3947  -39.4441 H         1 UNK         0.0600 
    166 H166        2.6062  -16.2911  -38.2109 H         1 UNK         0.0600 
    167 H167        4.0108  -16.7091  -39.1805 H         1 UNK         0.0600 
    168 H168        2.9242  -15.4354  -39.7170 H         1 UNK         0.0600 
    169 H169        0.5450  -16.0442  -39.8945 H         1 UNK         0.3000 
    170 H170       -2.2858  -17.8220  -41.0766 H         1 UNK         0.0600 
    171 H171       -2.4144  -18.3263  -38.6306 H         1 UNK         0.0600 
    172 H172       -1.8688  -16.6951  -38.2590 H         1 UNK         0.0600 
    173 H173       -3.4197  -16.9522  -39.0599 H         1 UNK         0.0600 
    174 H174       -2.1168  -15.1599  -40.2191 H         1 UNK         0.3000 
    175 H175       -1.8901  -13.8477  -43.2998 H         1 UNK         0.0600 
    176 H176       -1.7161  -13.1071  -40.3257 H         1 UNK         0.0600 
    177 H177       -2.2765  -12.0660  -41.6260 H         1 UNK         0.0600 
    178 H178       -3.1911  -13.5011  -41.2099 H         1 UNK         0.0600 
    179 H179        0.0946  -12.8609  -43.4443 H         1 UNK         0.3000 
    180 H180        2.3498  -11.6872  -41.3449 H         1 UNK         0.0600 
    181 H181        3.7162  -13.6024  -40.9304 H         1 UNK         0.0600 
    182 H182        4.3730  -12.8534  -42.3715 H         1 UNK         0.0600 
    183 H183        3.3873  -14.3093  -42.5003 H         1 UNK         0.0600 
    184 H184        2.5108  -12.4539  -44.1963 H         1 UNK         0.3000 
    185 H185        1.3573   -9.1778  -45.1456 H         1 UNK         0.0600 
    186 H186        3.7986   -9.2201  -44.7569 H         1 UNK         0.0600 
    187 H187        3.9216  -10.8153  -45.4803 H         1 UNK         0.0600 
    188 H188        3.4293   -9.4362  -46.4602 H         1 UNK         0.0600 
    189 H189        0.4081  -10.4854  -46.5902 H         1 UNK         0.3000 
    190 H190        0.7805  -22.2564  -47.2108 H         1 UNK         0.3000 
    191 H191       -0.7682  -23.7940  -47.4063 H         1 UNK         0.0600 
    192 H192       -1.3667  -24.8446  -49.5294 H         1 UNK         0.0600 
    193 H193        0.3573  -24.5102  -49.5483 H         1 UNK         0.0600 
    194 H194       -0.7566  -23.4844  -50.4538 H         1 UNK         0.0600 
    195 H195       -1.3344  -20.7229  -47.6660 H         1 UNK         0.3000 
    196 H196       -3.9459  -20.4156  -48.7622 H         1 UNK         0.0600 
    197 H197       -3.8393  -18.1808  -47.7891 H         1 UNK         0.0600 
    198 H198       -2.2651  -18.5677  -48.4621 H         1 UNK         0.0600 
    199 H199       -2.5312  -18.6432  -46.7181 H         1 UNK         0.0600 
    200 H200       -3.1400  -22.1149  -46.0178 H         1 UNK         0.3000 
    201 H201       -5.5096  -21.7180  -44.4068 H         1 UNK         0.0600 
    202 H202       -4.8165  -23.9056  -43.4201 H         1 UNK         0.0600 
    203 H203       -3.4542  -22.7984  -43.5086 H         1 UNK         0.0600 
    204 H204       -3.6039  -24.1082  -44.6798 H         1 UNK         0.0600 
    205 H205       -4.7619  -23.4400  -47.4034 H         1 UNK         0.3000 
    206 H206       -7.4035  -24.7797  -47.5249 H         1 UNK         0.0600 
    207 H207       -5.3964  -26.0061  -48.3931 H         1 UNK         0.0600 
    208 H208       -6.5270  -25.6427  -49.6881 H         1 UNK         0.0600 
    209 H209       -5.0617  -24.6882  -49.5125 H         1 UNK         0.0600 
    210 H210       -8.9243  -24.1470  -49.1034 H         1 UNK         0.3000 
    211 H211       -9.4462  -21.4454  -49.4137 H         1 UNK         0.0600 
    212 H212      -10.4851  -23.8199  -51.0493 H         1 UNK         0.0600 
    213 H213      -11.2262  -22.2253  -50.9967 H         1 UNK         0.0600 
    214 H214      -11.1702  -23.2090  -49.5428 H         1 UNK         0.0600 
    215 H215       -8.5640  -19.9173  -50.6092 H         1 UNK         0.3000 
    216 H216       -7.4072  -18.7502  -52.0858 H         1 UNK         0.0600 
    217 H217       -9.3077  -19.3405  -53.5892 H         1 UNK         0.0600 
    218 H218       -8.4358  -20.7595  -54.1613 H         1 UNK         0.0600 
    219 H219       -7.8203  -19.1466  -54.4988 H         1 UNK         0.0600 
    220 H220       -5.9982  -20.8753  -50.6732 H         1 UNK         0.3000 
    221 H221       -4.0804  -21.9211  -50.4901 H         1 UNK         0.0600 
    222 H222       -2.0522  -21.1052  -51.6749 H         1 UNK         0.0600 
    223 H223       -3.0548  -20.1430  -52.7606 H         1 UNK         0.0600 
    224 H224       -2.9926  -19.7670  -51.0422 H         1 UNK         0.0600 
    225 H225       -5.9517  -23.3052  -51.5702 H         1 UNK         0.3000 
    226 H226       -6.5360  -25.1599  -52.5892 H         1 UNK         0.0600 
    227 H227       -4.3086  -26.0782  -51.8566 H         1 UNK         0.0600 
    228 H228       -4.8836  -26.8105  -53.3449 H         1 UNK         0.0600 
    229 H229       -3.6137  -25.5983  -53.4048 H         1 UNK         0.0600 
    230 H230       -6.3253  -22.5406  -53.9686 H         1 UNK         0.3000 
    231 H231       -6.7575  -21.4886  -55.8464 H         1 UNK         0.0600 
    232 H232       -8.1814  -22.5532  -57.5423 H         1 UNK         0.0600 
    233 H233       -8.6994  -23.0695  -55.9470 H         1 UNK         0.0600 
    234 H234       -7.7556  -24.1580  -56.9643 H         1 UNK         0.0600 
    235 H235       -4.0796  -22.8825  -55.5225 H         1 UNK         0.3000 
    236 H236       -3.0785  -22.5092  -58.3005 H         1 UNK         0.0600 
    237 H237       -3.6575  -24.9277  -58.0416 H         1 UNK         0.0600 
    238 H238       -1.9194  -24.7165  -58.1584 H         1 UNK         0.0600 
    239 H239       -2.6615  -25.0226  -56.5911 H         1 UNK         0.0600 
    240 H240       -2.7103  -21.6081  -55.1250 H         1 UNK         0.3000 
    241 H241       -1.1179  -20.7151  -53.8951 H         1 UNK         0.0600 
    242 H242       -1.4969  -23.3174  -53.4887 H         1 UNK         0.3800 
    243 H243        0.0284  -24.1315  -53.1941 H         1 UNK         0.3800 
    244 H244       -0.5491  -19.3615  -55.9519 H         1 UNK         0.0800 
    245 H245        0.7097  -20.5047  -56.3208 H         1 UNK         0.0800 
    246 H246       -0.4818  -18.6765  -52.8847 H         1 UNK         0.0800 
    247 H247       -0.4039  -17.4626  -54.1470 H         1 UNK         0.0800 
@<TRIPOS>BOND
     1    1    2 1    
     2    1  127 1    
     3    1  128 1    
     4    1  129 1    
     5    2    3 2    
     6    2    4 am   BACKBONE|DICT|INTERRES
     7    4    5 1    
     8    4  130 1    
     9    5    6 1    
    10    5   65 1    
    11    5  131 1    
    12    6    7 1    
    13    6  132 1    
    14    6  133 1    
    15    7    8 1    
    16    8    9 1    
    17    8  134 1    
    18    8  135 1    
    19    9   10 ar   
    20    9   14 ar   
    21   10   11 ar   
    22   10  136 1    
    23   11   12 ar   
    24   11  126 1    
    25   12   13 ar   
    26   12  137 1    
    27   13   14 ar   
    28   13   15 1    
    29   14  138 1    
    30   15   16 1    
    31   15  139 1    
    32   15  140 1    
    33   16   17 1    
    34   17   18 1    
    35   17  141 1    
    36   17  142 1    
    37   18   19 1    
    38   18   67 1    
    39   18  143 1    
    40   19   20 am   BACKBONE|DICT|INTERRES
    41   19  144 1    
    42   20   21 2    
    43   20   22 1    
    44   22   23 1    
    45   22   24 1    
    46   22  145 1    
    47   23  146 1    
    48   23  147 1    
    49   23  148 1    
    50   24   25 am   BACKBONE|DICT|INTERRES
    51   24  149 1    
    52   25   26 2    
    53   25   27 1    
    54   27   28 1    
    55   27   29 1    
    56   27  150 1    
    57   28  151 1    
    58   28  152 1    
    59   28  153 1    
    60   29   30 am   BACKBONE|DICT|INTERRES
    61   29  154 1    
    62   30   31 2    
    63   30   32 1    
    64   32   33 1    
    65   32   34 1    
    66   32  155 1    
    67   33  156 1    
    68   33  157 1    
    69   33  158 1    
    70   34   35 am   BACKBONE|DICT|INTERRES
    71   34  159 1    
    72   35   36 2    
    73   35   37 1    
    74   37   38 1    
    75   37   39 1    
    76   37  160 1    
    77   38  161 1    
    78   38  162 1    
    79   38  163 1    
    80   39   40 am   BACKBONE|DICT|INTERRES
    81   39  164 1    
    82   40   41 2    
    83   40   42 1    
    84   42   43 1    
    85   42   44 1    
    86   42  165 1    
    87   43  166 1    
    88   43  167 1    
    89   43  168 1    
    90   44   45 am   BACKBONE|DICT|INTERRES
    91   44  169 1    
    92   45   46 2    
    93   45   47 1    
    94   47   48 1    
    95   47   49 1    
    96   47  170 1    
    97   48  171 1    
    98   48  172 1    
    99   48  173 1    
   100   49   50 am   BACKBONE|DICT|INTERRES
   101   49  174 1    
   102   50   51 2    
   103   50   52 1    
   104   52   53 1    
   105   52   54 1    
   106   52  175 1    
   107   53  176 1    
   108   53  177 1    
   109   53  178 1    
   110   54   55 am   BACKBONE|DICT|INTERRES
   111   54  179 1    
   112   55   56 2    
   113   55   57 1    
   114   57   58 1    
   115   57   59 1    
   116   57  180 1    
   117   58  181 1    
   118   58  182 1    
   119   58  183 1    
   120   59   60 am   BACKBONE|DICT|INTERRES
   121   59  184 1    
   122   60   61 2    
   123   60   62 1    
   124   62   63 1    
   125   62   64 1    
   126   62  185 1    
   127   63  186 1    
   128   63  187 1    
   129   63  188 1    
   130   64   65 am   BACKBONE|DICT|INTERRES
   131   64  189 1    
   132   65   66 2    
   133   67   68 2    
   134   67   69 am   BACKBONE|DICT|INTERRES
   135   69   70 1    
   136   69  190 1    
   137   70   71 1    
   138   70   72 1    
   139   70  191 1    
   140   71  192 1    
   141   71  193 1    
   142   71  194 1    
   143   72   73 2    
   144   72   74 am   BACKBONE|DICT|INTERRES
   145   74   75 1    
   146   74  195 1    
   147   75   76 1    
   148   75   77 1    
   149   75  196 1    
   150   76  197 1    
   151   76  198 1    
   152   76  199 1    
   153   77   78 2    
   154   77   79 am   BACKBONE|DICT|INTERRES
   155   79   80 1    
   156   79  200 1    
   157   80   81 1    
   158   80   82 1    
   159   80  201 1    
   160   81  202 1    
   161   81  203 1    
   162   81  204 1    
   163   82   83 2    
   164   82   84 am   BACKBONE|DICT|INTERRES
   165   84   85 1    
   166   84  205 1    
   167   85   86 1    
   168   85   87 1    
   169   85  206 1    
   170   86  207 1    
   171   86  208 1    
   172   86  209 1    
   173   87   88 2    
   174   87   89 am   BACKBONE|DICT|INTERRES
   175   89   90 1    
   176   89  210 1    
   177   90   91 1    
   178   90   92 1    
   179   90  211 1    
   180   91  212 1    
   181   91  213 1    
   182   91  214 1    
   183   92   93 2    
   184   92   94 am   BACKBONE|DICT|INTERRES
   185   94   95 1    
   186   94  215 1    
   187   95   96 1    
   188   95   97 1    
   189   95  216 1    
   190   96  217 1    
   191   96  218 1    
   192   96  219 1    
   193   97   98 2    
   194   97   99 am   BACKBONE|DICT|INTERRES
   195   99  100 1    
   196   99  220 1    
   197  100  101 1    
   198  100  102 1    
   199  100  221 1    
   200  101  222 1    
   201  101  223 1    
   202  101  224 1    
   203  102  103 2    
   204  102  104 am   BACKBONE|DICT|INTERRES
   205  104  105 1    
   206  104  225 1    
   207  105  106 1    
   208  105  107 1    
   209  105  226 1    
   210  106  227 1    
   211  106  228 1    
   212  106  229 1    
   213  107  108 2    
   214  107  109 am   BACKBONE|DICT|INTERRES
   215  109  110 1    
   216  109  230 1    
   217  110  111 1    
   218  110  112 1    
   219  110  231 1    
   220  111  232 1    
   221  111  233 1    
   222  111  234 1    
   223  112  113 2    
   224  112  114 am   BACKBONE|DICT|INTERRES
   225  114  115 1    
   226  114  235 1    
   227  115  116 1    
   228  115  117 1    
   229  115  236 1    
   230  116  237 1    
   231  116  238 1    
   232  116  239 1    
   233  117  118 2    
   234  117  119 am   BACKBONE|DICT|INTERRES
   235  119  120 1    
   236  119  240 1    
   237  120  121 1    
   238  120  124 1    
   239  120  241 1    
   240  121  122 am   BACKBONE|DICT|INTERRES
   241  121  123 2    
   242  122  242 1    
   243  122  243 1    
   244  124  125 1    
   245  124  244 1    
   246  124  245 1    
   247  125  126 1    
   248  126  246 1    
   249  126  247 1    
@<TRIPOS>SUBSTRUCTURE
     1 UNK         1 GROUP             0       ****    0 ROOT    
