@<TRIPOS>MOLECULE
3R540
247   249    1
SMALL
USER_CHARGES


@<TRIPOS>ATOM
      1 CA         -4.7653  -12.1516  -49.7347 C.3       0 UNK        -0.1800 
      2 C          -3.3550  -12.2293  -49.1667 C.2       0 UNK         0.5000 
      3 O          -2.5425  -11.3383  -49.4160 O.2       0 UNK        -0.5000 
      4 N          -3.0598  -13.2964  -48.4162 N.am      1 UNK        -0.5000 
      5 CA         -1.7658  -13.5408  -47.7737 C.3       1 UNK         0.1400 
      6 C6         -1.6316  -15.0050  -47.2926 C.3       23 UNK        -0.0398 
      7 S7         -1.8453  -16.2338  -48.6181 S.3       23 UNK        -0.2404 
      8 C8         -0.2888  -16.0446  -49.5406 C.3       23 UNK        -0.0205 
      9 C9          0.1028  -17.3677  -50.1689 C.ar      23 UNK        -0.0193 
     10 C10        -0.4018  -17.7380  -51.4169 C.ar      23 UNK        -0.1150 
     11 C11        -0.1156  -18.9984  -51.9479 C.ar      23 UNK        -0.0193 
     12 C12         0.6900  -19.8837  -51.2265 C.ar      23 UNK        -0.1150 
     13 C13         1.2159  -19.5169  -49.9846 C.ar      23 UNK        -0.0193 
     14 C14         0.9319  -18.2472  -49.4710 C.ar      23 UNK        -0.1150 
     15 C15         2.0520  -20.5173  -49.1922 C.3       23 UNK        -0.0205 
     16 S16         1.6629  -20.5454  -47.4083 S.3       23 UNK        -0.2404 
     17 C17        -0.1466  -20.7971  -47.4081 C.3       23 UNK        -0.0398 
     18 CA         -0.5347  -22.1563  -46.7997 C.3       11 UNK         0.1400 
     19 N          -0.1380  -22.2768  -45.3945 N.am      11 UNK        -0.5000 
     20 C          -0.1989  -23.4064  -44.6774 C.2       10 UNK         0.5000 
     21 O          -0.6305  -24.4719  -45.1211 O.2       10 UNK        -0.5000 
     22 CA          0.2534  -23.3114  -43.2133 C.3       10 UNK         0.1400 
     23 CB          1.7866  -23.3179  -43.1136 C.3       10 UNK        -0.1800 
     24 N          -0.2764  -22.0991  -42.5901 N.am      10 UNK        -0.5000 
     25 C          -1.5014  -22.0035  -42.0552 C.2       9 UNK         0.5000 
     26 O          -2.2803  -22.9523  -41.9599 O.2       9 UNK        -0.5000 
     27 CA         -1.9434  -20.6140  -41.5532 C.3       9 UNK         0.1400 
     28 CB         -1.5755  -20.4350  -40.0726 C.3       9 UNK        -0.1800 
     29 N          -1.3810  -19.5020  -42.3221 N.am      9 UNK        -0.5000 
     30 C          -1.6531  -19.2497  -43.6097 C.2       8 UNK         0.5000 
     31 O          -2.4105  -19.9332  -44.2948 O.2       8 UNK        -0.5000 
     32 CA         -0.9216  -18.0598  -44.2564 C.3       8 UNK         0.1400 
     33 CB         -1.7117  -16.7659  -44.0159 C.3       8 UNK        -0.1800 
     34 N           0.4645  -17.8747  -43.8130 N.am      8 UNK        -0.5000 
     35 C           1.4260  -18.8129  -43.8238 C.2       7 UNK         0.5000 
     36 O           1.2143  -20.0009  -44.0770 O.2       7 UNK        -0.5000 
     37 CA          2.8542  -18.3429  -43.4756 C.3       7 UNK         0.1400 
     38 CB          3.9398  -19.3444  -43.9211 C.3       7 UNK        -0.1800 
     39 N           3.1480  -16.9939  -43.9713 N.am      7 UNK        -0.5000 
     40 C           3.1547  -16.5704  -45.2459 C.2       6 UNK         0.5000 
     41 O           2.9771  -17.3072  -46.2151 O.2       6 UNK        -0.5000 
     42 CA          3.3724  -15.0632  -45.4890 C.3       6 UNK         0.1400 
     43 CB          2.1707  -14.4585  -46.2283 C.3       6 UNK        -0.1800 
     44 N           3.5671  -14.3181  -44.2450 N.am      6 UNK        -0.5000 
     45 C           4.7549  -14.0044  -43.7117 C.2       5 UNK         0.5000 
     46 O           5.8343  -14.2373  -44.2562 O.2       5 UNK        -0.5000 
     47 CA          4.7357  -13.3516  -42.3151 C.3       5 UNK         0.1400 
     48 CB          4.8109  -11.8214  -42.4264 C.3       5 UNK        -0.1800 
     49 N           3.5590  -13.7288  -41.5257 N.am      5 UNK        -0.5000 
     50 C           3.3446  -14.9578  -41.0327 C.2       4 UNK         0.5000 
     51 O           4.1324  -15.8926  -41.1740 O.2       4 UNK        -0.5000 
     52 CA          2.0109  -15.2104  -40.3051 C.3       4 UNK         0.1400 
     53 CB          2.1804  -15.0196  -38.7907 C.3       4 UNK        -0.1800 
     54 N           0.9072  -14.3702  -40.7731 N.am      4 UNK        -0.5000 
     55 C           0.3943  -14.3780  -42.0106 C.2       3 UNK         0.5000 
     56 O           0.8259  -15.0972  -42.9155 O.2       3 UNK        -0.5000 
     57 CA         -0.7997  -13.4344  -42.2856 C.3       3 UNK         0.1400 
     58 CB         -1.0795  -12.4288  -41.1460 C.3       3 UNK        -0.1800 
     59 N          -0.6882  -12.7147  -43.5576 N.am      3 UNK        -0.5000 
     60 C           0.3316  -11.9558  -43.9805 C.2       2 UNK         0.5000 
     61 O           1.3865  -11.8242  -43.3572 O.2       2 UNK        -0.5000 
     62 CA          0.1266  -11.2211  -45.3261 C.3       2 UNK         0.1400 
     63 CB          1.3857  -10.4596  -45.7807 C.3       2 UNK        -0.1800 
     64 N          -0.3055  -12.1120  -46.4089 N.am      2 UNK        -0.5000 
     65 C          -1.5473  -12.5814  -46.5860 C.2       1 UNK         0.5000 
     66 O          -2.4835  -12.3289  -45.8232 O.2       1 UNK        -0.5000 
     67 C          -2.0294  -22.4505  -47.0286 C.2       11 UNK         0.5000 
     68 O          -2.3742  -22.9838  -48.0826 O.2       11 UNK        -0.5000 
     69 N          -2.8817  -22.1608  -46.0361 N.am      12 UNK        -0.5000 
     70 CA         -4.3020  -22.5171  -46.0069 C.3       12 UNK         0.1400 
     71 CB         -4.9575  -21.8867  -44.7694 C.3       12 UNK        -0.1800 
     72 C          -4.5712  -24.0355  -46.0412 C.2       12 UNK         0.5000 
     73 O          -5.6526  -24.4370  -46.4702 O.2       12 UNK        -0.5000 
     74 N          -3.5961  -24.8488  -45.6151 N.am      13 UNK        -0.5000 
     75 CA         -3.6339  -26.3042  -45.7310 C.3       13 UNK         0.1400 
     76 CB         -3.0309  -26.9342  -44.4652 C.3       13 UNK        -0.1800 
     77 C          -2.8816  -26.7744  -46.9874 C.2       13 UNK         0.5000 
     78 O          -3.3874  -27.6357  -47.7071 O.2       13 UNK        -0.5000 
     79 N          -1.6845  -26.2168  -47.2211 N.am      14 UNK        -0.5000 
     80 CA         -0.7615  -26.6613  -48.2673 C.3       14 UNK         0.1400 
     81 CB          0.6422  -26.1116  -47.9698 C.3       14 UNK        -0.1800 
     82 C          -1.1936  -26.2916  -49.6992 C.2       14 UNK         0.5000 
     83 O          -1.0418  -27.1163  -50.6014 O.2       14 UNK        -0.5000 
     84 N          -1.6953  -25.0649  -49.8870 N.am      15 UNK        -0.5000 
     85 CA         -2.0373  -24.4890  -51.1931 C.3       15 UNK         0.1400 
     86 CB         -1.0897  -23.3046  -51.4576 C.3       15 UNK        -0.1800 
     87 C          -3.4998  -24.0152  -51.2710 C.2       15 UNK         0.5000 
     88 O          -3.9503  -23.6434  -52.3537 O.2       15 UNK        -0.5000 
     89 N          -4.1990  -24.0001  -50.1266 N.am      16 UNK        -0.5000 
     90 CA         -5.4879  -23.3400  -49.8892 C.3       16 UNK         0.1400 
     91 CB         -6.6202  -23.9620  -50.7315 C.3       16 UNK        -0.1800 
     92 C          -5.3911  -21.7996  -49.9877 C.2       16 UNK         0.5000 
     93 O          -6.3679  -21.1398  -50.3445 O.2       16 UNK        -0.5000 
     94 N          -4.2141  -21.2686  -49.6191 N.am      17 UNK        -0.5000 
     95 CA         -3.8272  -19.8557  -49.5839 C.3       17 UNK         0.1400 
     96 CB         -4.6174  -19.1126  -48.4831 C.3       17 UNK        -0.1800 
     97 C          -3.8755  -19.1718  -50.9699 C.2       17 UNK         0.5000 
     98 O          -3.6808  -19.8354  -51.9907 O.2       17 UNK        -0.5000 
     99 N          -4.0654  -17.8457  -50.9792 N.am      18 UNK        -0.5000 
    100 CA        -4.1094  -17.0037  -52.1736 C.3       18 UNK         0.1400 
    101 CB        -4.1336  -15.5280  -51.7428 C.3       18 UNK        -0.1800 
    102 C         -5.3058  -17.3237  -53.0885 C.2       18 UNK         0.5000 
    103 O         -6.3914  -17.6353  -52.5938 O.2       18 UNK        -0.5000 
    104 N         -5.0768  -17.1983  -54.4047 N.am      19 UNK        -0.5000 
    105 CA        -6.0290  -17.4400  -55.4967 C.3       19 UNK         0.1400 
    106 CB        -7.1630  -16.3926  -55.4767 C.3       19 UNK        -0.1800 
    107 C         -6.5455  -18.8953  -55.5421 C.2       19 UNK         0.5000 
    108 O         -7.7248  -19.1267  -55.8179 O.2       19 UNK        -0.5000 
    109 N         -5.6461  -19.8489  -55.2731 N.am      20 UNK        -0.5000 
    110 CA        -5.9177  -21.2829  -55.2627 C.3       20 UNK         0.1400 
    111 CB        -6.2915  -21.7301  -53.8390 C.3       20 UNK        -0.1800 
    112 C         -4.7345  -22.0426  -55.8905 C.2       20 UNK         0.5000 
    113 O         -4.2096  -21.5952  -56.9137 O.2       20 UNK        -0.5000 
    114 N         -4.3350  -23.1797  -55.3054 N.am      21 UNK        -0.5000 
    115 CA        -3.3197  -24.0991  -55.8260 C.3       21 UNK         0.1400 
    116 CB        -3.5980  -25.5112  -55.2784 C.3       21 UNK        -0.1800 
    117 C         -1.8859  -23.6136  -55.5295 C.2       21 UNK         0.5000 
    118 O         -1.1092  -24.3148  -54.8790 O.2       21 UNK        -0.5000 
    119 N         -1.5677  -22.4084  -56.0130 N.am      22 UNK        -0.5000 
    120 CA        -0.2659  -21.7415  -55.8558 C.3       22 UNK         0.1400 
    121 C          0.8573  -22.2607  -56.8037 C.2       22 UNK         0.5000 
    122 N          0.5654  -23.1119  -57.7799 N.am      22 UNK        -0.7600 
    123 O          2.0181  -21.8925  -56.6475 O.2       22 UNK        -0.5000 
    124 C124       -0.4254  -20.1958  -55.9273 C.3       23 UNK        -0.0398 
    125 S125        0.5127  -19.3433  -54.6185 S.3       23 UNK        -0.2404 
    126 C126       -0.7100  -19.4280  -53.2772 C.3       23 UNK        -0.0205 
    127 H127       -4.7299  -12.1341  -50.8241 H         1 UNK         0.0600 
    128 H128       -5.2585  -11.2417  -49.3929 H         1 UNK         0.0600 
    129 H129       -5.3730  -13.0037  -49.4291 H         1 UNK         0.0600 
    130 H130       -3.7729  -13.9865  -48.2320 H         1 UNK         0.3000 
    131 H131       -0.9856  -13.3505  -48.5138 H         1 UNK         0.0600 
    132 H132       -0.6637  -15.1785  -46.8216 H         1 UNK         0.0800 
    133 H133       -2.3822  -15.2194  -46.5300 H         1 UNK         0.0800 
    134 H134       -0.4102  -15.2776  -50.3070 H         1 UNK         0.0800 
    135 H135        0.5074  -15.7020  -48.8798 H         1 UNK         0.0800 
    136 H136       -1.0388  -17.0541  -51.9575 H         1 UNK         0.1150 
    137 H137        0.8973  -20.8640  -51.6324 H         1 UNK         0.1150 
    138 H138        1.3207  -17.9579  -48.5041 H         1 UNK         0.1150 
    139 H139        1.9173  -21.5255  -49.5871 H         1 UNK         0.0800 
    140 H140        3.1068  -20.2709  -49.3185 H         1 UNK         0.0800 
    141 H141       -0.5265  -20.7228  -48.4276 H         1 UNK         0.0800 
    142 H142       -0.6092  -19.9803  -46.8539 H         1 UNK         0.0800 
    143 H143        0.0120  -22.9238  -47.3488 H         1 UNK         0.0600 
    144 H144        0.2675  -21.4480  -44.9676 H         1 UNK         0.3000 
    145 H145       -0.1226  -24.1896  -42.6840 H         1 UNK         0.0600 
    146 H146        2.1132  -23.2760  -42.0745 H         1 UNK         0.0600 
    147 H147        2.1998  -24.2289  -43.5483 H         1 UNK         0.0600 
    148 H148        2.2335  -22.4733  -43.6390 H         1 UNK         0.0600 
    149 H149        0.2738  -21.2564  -42.7077 H         1 UNK         0.3000 
    150 H150       -3.0307  -20.5650  -41.6432 H         1 UNK         0.0600 
    151 H151       -2.0011  -21.2347  -39.4649 H         1 UNK         0.0600 
    152 H152       -1.9592  -19.4925  -39.6814 H         1 UNK         0.0600 
    153 H153       -0.4953  -20.4475  -39.9219 H         1 UNK         0.0600 
    154 H154       -0.7315  -18.8966  -41.8427 H         1 UNK         0.3000 
    155 H155       -0.8884  -18.2367  -45.3323 H         1 UNK         0.0600 
    156 H156       -2.7212  -16.8428  -44.4220 H         1 UNK         0.0600 
    157 H157       -1.2313  -15.9135  -44.4943 H         1 UNK         0.0600 
    158 H158       -1.8011  -16.5448  -42.9519 H         1 UNK         0.0600 
    159 H159        0.7261  -16.9234  -43.5685 H         1 UNK         0.3000 
    160 H160        2.8931  -18.2800  -42.3874 H         1 UNK         0.0600 
    161 H161        3.9091  -19.5228  -44.9966 H         1 UNK         0.0600 
    162 H162        3.8075  -20.3084  -43.4286 H         1 UNK         0.0600 
    163 H163        4.9368  -18.9849  -43.6672 H         1 UNK         0.0600 
    164 H164        3.3236  -16.3033  -43.2542 H         1 UNK         0.3000 
    165 H165        4.2504  -14.9623  -46.1300 H         1 UNK         0.0600 
    166 H166        1.2667  -14.5074  -45.6209 H         1 UNK         0.0600 
    167 H167        2.3573  -13.4163  -46.4810 H         1 UNK         0.0600 
    168 H168        1.9761  -14.9860  -47.1619 H         1 UNK         0.0600 
    169 H169        2.7281  -14.0969  -43.7222 H         1 UNK         0.3000 
    170 H170        5.6244  -13.6942  -41.7808 H         1 UNK         0.0600 
    171 H171        5.7125  -11.5144  -42.9580 H         1 UNK         0.0600 
    172 H172        3.9585  -11.4120  -42.9684 H         1 UNK         0.0600 
    173 H173        4.8397  -11.3541  -41.4420 H         1 UNK         0.0600 
    174 H174        2.8430  -13.0246  -41.4117 H         1 UNK         0.3000 
    175 H175        1.7334  -16.2506  -40.4886 H         1 UNK         0.0600 
    176 H176        2.4291  -13.9875  -38.5405 H         1 UNK         0.0600 
    177 H177        1.2693  -15.2859  -38.2546 H         1 UNK         0.0600 
    178 H178        2.9798  -15.6531  -38.4037 H         1 UNK         0.0600 
    179 H179        0.5029  -13.7431  -40.0929 H         1 UNK         0.3000 
    180 H180       -1.6745  -14.0787  -42.3780 H         1 UNK         0.0600 
    181 H181       -0.2278  -11.7719  -40.9641 H         1 UNK         0.0600 
    182 H182       -1.3206  -12.9375  -40.2119 H         1 UNK         0.0600 
    183 H183       -1.9343  -11.7968  -41.3878 H         1 UNK         0.0600 
    184 H184       -1.5007  -12.7595  -44.1643 H         1 UNK         0.3000 
    185 H185       -0.6571  -10.4791  -45.1592 H         1 UNK         0.0600 
    186 H186        1.6855   -9.7218  -45.0353 H         1 UNK         0.0600 
    187 H187        2.2327  -11.1281  -45.9351 H         1 UNK         0.0600 
    188 H188        1.2075   -9.9211  -46.7116 H         1 UNK         0.0600 
    189 H189        0.4122  -12.3760  -47.0676 H         1 UNK         0.3000 
    190 H190       -2.5398  -21.6302  -45.2400 H         1 UNK         0.3000 
    191 H191       -4.7712  -22.0869  -46.8926 H         1 UNK         0.0600 
    192 H192       -4.9089  -20.7986  -44.8106 H         1 UNK         0.0600 
    193 H193       -4.4706  -22.2109  -43.8487 H         1 UNK         0.0600 
    194 H194       -6.0116  -22.1584  -44.6993 H         1 UNK         0.0600 
    195 H195       -2.7263  -24.4454  -45.2888 H         1 UNK         0.3000 
    196 H196       -4.6665  -26.6511  -45.8098 H         1 UNK         0.0600 
    197 H197       -3.0663  -28.0230  -44.5179 H         1 UNK         0.0600 
    198 H198       -3.5849  -26.6336  -43.5758 H         1 UNK         0.0600 
    199 H199       -1.9889  -26.6474  -44.3210 H         1 UNK         0.0600 
    200 H200       -1.3217  -25.5445  -46.5514 H         1 UNK         0.3000 
    201 H201       -0.7044  -27.7509  -48.2163 H         1 UNK         0.0600 
    202 H202        0.9835  -26.4136  -46.9793 H         1 UNK         0.0600 
    203 H203        0.6687  -25.0237  -48.0154 H         1 UNK         0.0600 
    204 H204        1.3684  -26.4862  -48.6922 H         1 UNK         0.0600 
    205 H205       -1.7957  -24.4436  -49.0893 H         1 UNK         0.3000 
    206 H206       -1.9019  -25.2214  -51.9915 H         1 UNK         0.0600 
    207 H207       -0.0488  -23.6275  -51.4683 H         1 UNK         0.0600 
    208 H208       -1.2952  -22.8462  -52.4257 H         1 UNK         0.0600 
    209 H209       -1.1931  -22.5272  -50.6993 H         1 UNK         0.0600 
    210 H210       -3.7194  -24.3161  -49.2953 H         1 UNK         0.3000 
    211 H211       -5.7366  -23.5391  -48.8494 H         1 UNK         0.0600 
    212 H212       -6.4757  -23.8006  -51.7969 H         1 UNK         0.0600 
    213 H213       -6.6858  -25.0369  -50.5639 H         1 UNK         0.0600 
    214 H214       -7.5870  -23.5339  -50.4652 H         1 UNK         0.0600 
    215 H215       -3.4888  -21.9192  -49.3394 H         1 UNK         0.3000 
    216 H216       -2.7762  -19.8455  -49.2919 H         1 UNK         0.0600 
    217 H217       -4.5688  -19.6504  -47.5361 H         1 UNK         0.0600 
    218 H218       -5.6691  -18.9980  -48.7477 H         1 UNK         0.0600 
    219 H219       -4.2113  -18.1187  -48.2966 H         1 UNK         0.0600 
    220 H220       -4.2169  -17.3764  -50.0994 H         1 UNK         0.3000 
    221 H221       -3.1936  -17.1812  -52.7382 H         1 UNK         0.0600 
    222 H222       -5.0057  -15.3030  -51.1275 H         1 UNK         0.0600 
    223 H223       -3.2428  -15.2671  -51.1713 H         1 UNK         0.0600 
    224 H224       -4.1649  -14.8663  -52.6092 H         1 UNK         0.0600 
    225 H225       -4.1517  -16.9205  -54.7016 H         1 UNK         0.3000 
    226 H226       -5.4714  -17.2944  -56.4230 H         1 UNK         0.0600 
    227 H227       -6.7631  -15.3787  -55.4624 H         1 UNK         0.0600 
    228 H228       -7.7910  -16.4794  -56.3640 H         1 UNK         0.0600 
    229 H229       -7.8098  -16.5104  -54.6069 H         1 UNK         0.0600 
    230 H230       -4.6917  -19.5814  -55.0794 H         1 UNK         0.3000 
    231 H231       -6.7698  -21.4938  -55.9120 H         1 UNK         0.0600 
    232 H232       -6.5898  -22.7778  -53.8246 H         1 UNK         0.0600 
    233 H233       -7.1327  -21.1542  -53.4527 H         1 UNK         0.0600 
    234 H234       -5.4608  -21.5984  -53.1454 H         1 UNK         0.0600 
    235 H235       -4.6998  -23.4097  -54.3878 H         1 UNK         0.3000 
    236 H236       -3.4198  -24.1488  -56.9123 H         1 UNK         0.0600 
    237 H237       -4.6019  -25.8451  -55.5409 H         1 UNK         0.0600 
    238 H238       -2.8971  -26.2364  -55.6936 H         1 UNK         0.0600 
    239 H239       -3.5054  -25.5511  -54.1930 H         1 UNK         0.0600 
    240 H240       -2.2824  -21.9091  -56.5327 H         1 UNK         0.3000 
    241 H241        0.0785  -22.0003  -54.8524 H         1 UNK         0.0600 
    242 H242       -0.3811  -23.4254  -57.9224 H         1 UNK         0.3800 
    243 H243        1.3003  -23.4453  -58.3841 H         1 UNK         0.3800 
    244 H244       -0.1147  -19.8017  -56.8968 H         1 UNK         0.0800 
    245 H245       -1.4720  -19.9032  -55.8275 H         1 UNK         0.0800 
    246 H246       -1.0908  -20.4465  -53.1860 H         1 UNK         0.0800 
    247 H247       -1.5672  -18.8051  -53.5340 H         1 UNK         0.0800 
@<TRIPOS>BOND
     1    1    2 1    
     2    1  127 1    
     3    1  128 1    
     4    1  129 1    
     5    2    3 2    
     6    2    4 am   BACKBONE|DICT|INTERRES
     7    4    5 1    
     8    4  130 1    
     9    5    6 1    
    10    5   65 1    
    11    5  131 1    
    12    6    7 1    
    13    6  132 1    
    14    6  133 1    
    15    7    8 1    
    16    8    9 1    
    17    8  134 1    
    18    8  135 1    
    19    9   10 ar   
    20    9   14 ar   
    21   10   11 ar   
    22   10  136 1    
    23   11   12 ar   
    24   11  126 1    
    25   12   13 ar   
    26   12  137 1    
    27   13   14 ar   
    28   13   15 1    
    29   14  138 1    
    30   15   16 1    
    31   15  139 1    
    32   15  140 1    
    33   16   17 1    
    34   17   18 1    
    35   17  141 1    
    36   17  142 1    
    37   18   19 1    
    38   18   67 1    
    39   18  143 1    
    40   19   20 am   BACKBONE|DICT|INTERRES
    41   19  144 1    
    42   20   21 2    
    43   20   22 1    
    44   22   23 1    
    45   22   24 1    
    46   22  145 1    
    47   23  146 1    
    48   23  147 1    
    49   23  148 1    
    50   24   25 am   BACKBONE|DICT|INTERRES
    51   24  149 1    
    52   25   26 2    
    53   25   27 1    
    54   27   28 1    
    55   27   29 1    
    56   27  150 1    
    57   28  151 1    
    58   28  152 1    
    59   28  153 1    
    60   29   30 am   BACKBONE|DICT|INTERRES
    61   29  154 1    
    62   30   31 2    
    63   30   32 1    
    64   32   33 1    
    65   32   34 1    
    66   32  155 1    
    67   33  156 1    
    68   33  157 1    
    69   33  158 1    
    70   34   35 am   BACKBONE|DICT|INTERRES
    71   34  159 1    
    72   35   36 2    
    73   35   37 1    
    74   37   38 1    
    75   37   39 1    
    76   37  160 1    
    77   38  161 1    
    78   38  162 1    
    79   38  163 1    
    80   39   40 am   BACKBONE|DICT|INTERRES
    81   39  164 1    
    82   40   41 2    
    83   40   42 1    
    84   42   43 1    
    85   42   44 1    
    86   42  165 1    
    87   43  166 1    
    88   43  167 1    
    89   43  168 1    
    90   44   45 am   BACKBONE|DICT|INTERRES
    91   44  169 1    
    92   45   46 2    
    93   45   47 1    
    94   47   48 1    
    95   47   49 1    
    96   47  170 1    
    97   48  171 1    
    98   48  172 1    
    99   48  173 1    
   100   49   50 am   BACKBONE|DICT|INTERRES
   101   49  174 1    
   102   50   51 2    
   103   50   52 1    
   104   52   53 1    
   105   52   54 1    
   106   52  175 1    
   107   53  176 1    
   108   53  177 1    
   109   53  178 1    
   110   54   55 am   BACKBONE|DICT|INTERRES
   111   54  179 1    
   112   55   56 2    
   113   55   57 1    
   114   57   58 1    
   115   57   59 1    
   116   57  180 1    
   117   58  181 1    
   118   58  182 1    
   119   58  183 1    
   120   59   60 am   BACKBONE|DICT|INTERRES
   121   59  184 1    
   122   60   61 2    
   123   60   62 1    
   124   62   63 1    
   125   62   64 1    
   126   62  185 1    
   127   63  186 1    
   128   63  187 1    
   129   63  188 1    
   130   64   65 am   BACKBONE|DICT|INTERRES
   131   64  189 1    
   132   65   66 2    
   133   67   68 2    
   134   67   69 am   BACKBONE|DICT|INTERRES
   135   69   70 1    
   136   69  190 1    
   137   70   71 1    
   138   70   72 1    
   139   70  191 1    
   140   71  192 1    
   141   71  193 1    
   142   71  194 1    
   143   72   73 2    
   144   72   74 am   BACKBONE|DICT|INTERRES
   145   74   75 1    
   146   74  195 1    
   147   75   76 1    
   148   75   77 1    
   149   75  196 1    
   150   76  197 1    
   151   76  198 1    
   152   76  199 1    
   153   77   78 2    
   154   77   79 am   BACKBONE|DICT|INTERRES
   155   79   80 1    
   156   79  200 1    
   157   80   81 1    
   158   80   82 1    
   159   80  201 1    
   160   81  202 1    
   161   81  203 1    
   162   81  204 1    
   163   82   83 2    
   164   82   84 am   BACKBONE|DICT|INTERRES
   165   84   85 1    
   166   84  205 1    
   167   85   86 1    
   168   85   87 1    
   169   85  206 1    
   170   86  207 1    
   171   86  208 1    
   172   86  209 1    
   173   87   88 2    
   174   87   89 am   BACKBONE|DICT|INTERRES
   175   89   90 1    
   176   89  210 1    
   177   90   91 1    
   178   90   92 1    
   179   90  211 1    
   180   91  212 1    
   181   91  213 1    
   182   91  214 1    
   183   92   93 2    
   184   92   94 am   BACKBONE|DICT|INTERRES
   185   94   95 1    
   186   94  215 1    
   187   95   96 1    
   188   95   97 1    
   189   95  216 1    
   190   96  217 1    
   191   96  218 1    
   192   96  219 1    
   193   97   98 2    
   194   97   99 am   BACKBONE|DICT|INTERRES
   195   99  100 1    
   196   99  220 1    
   197  100  101 1    
   198  100  102 1    
   199  100  221 1    
   200  101  222 1    
   201  101  223 1    
   202  101  224 1    
   203  102  103 2    
   204  102  104 am   BACKBONE|DICT|INTERRES
   205  104  105 1    
   206  104  225 1    
   207  105  106 1    
   208  105  107 1    
   209  105  226 1    
   210  106  227 1    
   211  106  228 1    
   212  106  229 1    
   213  107  108 2    
   214  107  109 am   BACKBONE|DICT|INTERRES
   215  109  110 1    
   216  109  230 1    
   217  110  111 1    
   218  110  112 1    
   219  110  231 1    
   220  111  232 1    
   221  111  233 1    
   222  111  234 1    
   223  112  113 2    
   224  112  114 am   BACKBONE|DICT|INTERRES
   225  114  115 1    
   226  114  235 1    
   227  115  116 1    
   228  115  117 1    
   229  115  236 1    
   230  116  237 1    
   231  116  238 1    
   232  116  239 1    
   233  117  118 2    
   234  117  119 am   BACKBONE|DICT|INTERRES
   235  119  120 1    
   236  119  240 1    
   237  120  121 1    
   238  120  124 1    
   239  120  241 1    
   240  121  122 am   BACKBONE|DICT|INTERRES
   241  121  123 2    
   242  122  242 1    
   243  122  243 1    
   244  124  125 1    
   245  124  244 1    
   246  124  245 1    
   247  125  126 1    
   248  126  246 1    
   249  126  247 1    
@<TRIPOS>SUBSTRUCTURE
     1 UNK         1 GROUP             0       ****    0 ROOT    
