@<TRIPOS>MOLECULE
3R540
247   249    1
SMALL
USER_CHARGES


@<TRIPOS>ATOM
      1 CA         -2.5126  -16.1303  -44.7091 C.3       0 UNK        -0.1800 
      2 C          -2.8411  -15.4293  -46.0178 C.2       0 UNK         0.5000 
      3 O          -3.9103  -14.8311  -46.1358 O.2       0 UNK        -0.5000 
      4 N          -1.9354  -15.5118  -47.0028 N.am      1 UNK        -0.5000 
      5 CA         -2.1077  -14.9369  -48.3435 C.3       1 UNK         0.1400 
      6 C6         -1.0325  -15.4227  -49.3461 C.3       23 UNK        -0.0398 
      7 S7         -0.9403  -17.2359  -49.5137 S.3       23 UNK        -0.2404 
      8 C8         -0.2300  -17.3613  -51.1855 C.3       23 UNK        -0.0205 
      9 C9          0.6216  -18.6093  -51.3601 C.ar      23 UNK        -0.0193 
     10 C10         0.3155  -19.5480  -52.3506 C.ar      23 UNK        -0.1150 
     11 C11         1.1431  -20.6572  -52.5545 C.ar      23 UNK        -0.0193 
     12 C12         2.2737  -20.8299  -51.7521 C.ar      23 UNK        -0.1150 
     13 C13         2.5858  -19.9019  -50.7554 C.ar      23 UNK        -0.0193 
     14 C14         1.7583  -18.7929  -50.5666 C.ar      23 UNK        -0.1150 
     15 C15         3.8393  -20.0794  -49.9138 C.3       23 UNK        -0.0205 
     16 S16         3.6837  -21.4504  -48.7296 S.3       23 UNK        -0.2404 
     17 C17         2.5767  -20.7459  -47.4623 C.3       23 UNK        -0.0398 
     18 CA          1.4815  -21.7557  -47.0273 C.3       11 UNK         0.1400 
     19 N           1.3339  -21.8286  -45.5703 N.am      11 UNK        -0.5000 
     20 C           0.6570  -22.7934  -44.9305 C.2       10 UNK         0.5000 
     21 O           0.1082  -23.7369  -45.5010 O.2       10 UNK        -0.5000 
     22 CA          0.5364  -22.6607  -43.4016 C.3       10 UNK         0.1400 
     23 CB          1.8169  -23.1473  -42.7072 C.3       10 UNK        -0.1800 
     24 N           0.2320  -21.2931  -42.9790 N.am      10 UNK        -0.5000 
     25 C          -0.9007  -20.6445  -43.2846 C.2       9 UNK         0.5000 
     26 O          -1.8288  -21.1537  -43.9110 O.2       9 UNK        -0.5000 
     27 CA         -0.9976  -19.1665  -42.8690 C.3       9 UNK         0.1400 
     28 CB         -1.3967  -19.0314  -41.3928 C.3       9 UNK        -0.1800 
     29 N           0.2393  -18.4269  -43.1145 N.am      9 UNK        -0.5000 
     30 C           0.7924  -18.2336  -44.3198 C.2       8 UNK         0.5000 
     31 O           0.2977  -18.6254  -45.3752 O.2       8 UNK        -0.5000 
     32 CA          2.1539  -17.5229  -44.3460 C.3       8 UNK         0.1400 
     33 CB          1.9824  -15.9998  -44.2308 C.3       8 UNK        -0.1800 
     34 N           3.0406  -18.0109  -43.2894 N.am      8 UNK        -0.5000 
     35 C           3.5495  -19.2510  -43.2440 C.2       7 UNK         0.5000 
     36 O           3.3497  -20.1053  -44.1073 O.2       7 UNK        -0.5000 
     37 CA          4.3833  -19.6087  -42.0010 C.3       7 UNK         0.1400 
     38 CB          5.8146  -19.0667  -42.1305 C.3       7 UNK        -0.1800 
     39 N           3.7816  -19.1073  -40.7651 N.am      7 UNK        -0.5000 
     40 C           2.6180  -19.5424  -40.2614 C.2       6 UNK         0.5000 
     41 O           1.9484  -20.4431  -40.7656 O.2       6 UNK        -0.5000 
     42 CA          2.0914  -18.8145  -39.0108 C.3       6 UNK         0.1400 
     43 CB          2.6860  -19.4316  -37.7363 C.3       6 UNK        -0.1800 
     44 N           2.3506  -17.3711  -39.0206 N.am      6 UNK        -0.5000 
     45 C           1.8819  -16.5204  -39.9431 C.2       5 UNK         0.5000 
     46 O           1.2285  -16.8715  -40.9273 O.2       5 UNK        -0.5000 
     47 CA          2.2535  -15.0374  -39.7627 C.3       5 UNK         0.1400 
     48 CB          3.5602  -14.7276  -40.5100 C.3       5 UNK        -0.1800 
     49 N           1.2113  -14.1326  -40.2493 N.am      5 UNK        -0.5000 
     50 C          -0.0402  -14.0541  -39.7742 C.2       4 UNK         0.5000 
     51 O          -0.4487  -14.7226  -38.8230 O.2       4 UNK        -0.5000 
     52 CA         -0.9915  -13.0383  -40.4422 C.3       4 UNK         0.1400 
     53 CB         -1.5190  -12.0263  -39.4106 C.3       4 UNK        -0.1800 
     54 N          -0.3679  -12.2932  -41.5406 N.am      4 UNK        -0.5000 
     55 C          -0.3641  -12.6790  -42.8209 C.2       3 UNK         0.5000 
     56 O          -0.8609  -13.7300  -43.2298 O.2       3 UNK        -0.5000 
     57 CA          0.3322  -11.7376  -43.8096 C.3       3 UNK         0.1400 
     58 CB          1.8415  -12.0322  -43.8806 C.3       3 UNK        -0.1800 
     59 N          -0.2757  -11.9121  -45.1245 N.am      3 UNK        -0.5000 
     60 C          -0.2886  -10.9930  -46.0979 C.2       2 UNK         0.5000 
     61 O           0.2358   -9.8841  -45.9808 O.2       2 UNK        -0.5000 
     62 CA         -0.9906  -11.3640  -47.4197 C.3       2 UNK         0.1400 
     63 CB         -0.2300  -10.8276  -48.6502 C.3       2 UNK        -0.1800 
     64 N          -1.1866  -12.8097  -47.5487 N.am      2 UNK        -0.5000 
     65 C          -2.1212  -13.3944  -48.3100 C.2       1 UNK         0.5000 
     66 O          -2.9589  -12.7760  -48.9683 O.2       1 UNK        -0.5000 
     67 C           0.1298  -21.4996  -47.7274 C.2       11 UNK         0.5000 
     68 O          -0.1689  -22.1520  -48.7267 O.2       11 UNK        -0.5000 
     69 N          -0.6928  -20.6110  -47.1501 N.am      12 UNK        -0.5000 
     70 CA         -2.0621  -20.3424  -47.5850 C.3       12 UNK         0.1400 
     71 CB         -2.6452  -19.1652  -46.7936 C.3       12 UNK        -0.1800 
     72 C          -2.9724  -21.5728  -47.4578 C.2       12 UNK         0.5000 
     73 O          -3.7161  -21.8623  -48.3929 O.2       12 UNK        -0.5000 
     74 N          -2.8847  -22.2926  -46.3304 N.am      13 UNK        -0.5000 
     75 CA         -3.6193  -23.5340  -46.0770 C.3       13 UNK         0.1400 
     76 CB         -3.3944  -23.9904  -44.6282 C.3       13 UNK        -0.1800 
     77 C          -3.2557  -24.6518  -47.0705 C.2       13 UNK         0.5000 
     78 O          -4.1549  -25.3156  -47.5881 O.2       13 UNK        -0.5000 
     79 N          -1.9565  -24.7945  -47.3724 N.am      14 UNK        -0.5000 
     80 CA         -1.4354  -25.6953  -48.4058 C.3       14 UNK         0.1400 
     81 CB          0.0988  -25.7215  -48.3333 C.3       14 UNK        -0.1800 
     82 C          -1.9114  -25.3245  -49.8263 C.2       14 UNK         0.5000 
     83 O          -2.1030  -26.2126  -50.6568 O.2       14 UNK        -0.5000 
     84 N          -2.1438  -24.0271  -50.0584 N.am      15 UNK        -0.5000 
     85 CA         -2.7155  -23.4509  -51.2748 C.3       15 UNK         0.1400 
     86 CB         -2.1222  -22.0463  -51.4683 C.3       15 UNK        -0.1800 
     87 C          -4.2604  -23.4153  -51.2624 C.2       15 UNK         0.5000 
     88 O          -4.8450  -22.6475  -52.0272 O.2       15 UNK        -0.5000 
     89 N          -4.8974  -24.2222  -50.3988 N.am      16 UNK        -0.5000 
     90 CA         -6.3465  -24.3965  -50.2437 C.3       16 UNK         0.1400 
     91 CB         -6.9552  -25.0461  -51.5042 C.3       16 UNK        -0.1800 
     92 C          -7.0674  -23.1006  -49.8181 C.2       16 UNK         0.5000 
     93 O          -8.1001  -22.7465  -50.3884 O.2       16 UNK        -0.5000 
     94 N          -6.4885  -22.4221  -48.8181 N.am      17 UNK        -0.5000 
     95 CA         -6.8699  -21.1097  -48.2861 C.3       17 UNK         0.1400 
     96 CB         -8.3082  -21.1090  -47.7255 C.3       17 UNK        -0.1800 
     97 C          -6.5944  -19.9852  -49.3043 C.2       17 UNK         0.5000 
     98 O          -7.4379  -19.1107  -49.5094 O.2       17 UNK        -0.5000 
     99 N          -5.3986  -20.0446  -49.9113 N.am      18 UNK        -0.5000 
    100 CA        -4.8541  -19.1252  -50.9154 C.3       18 UNK         0.1400 
    101 CB        -4.5404  -17.7573  -50.2743 C.3       18 UNK        -0.1800 
    102 C         -5.7510  -19.0168  -52.1662 C.2       18 UNK         0.5000 
    103 O         -6.1223  -17.9139  -52.5757 O.2       18 UNK        -0.5000 
    104 N         -6.0993  -20.1722  -52.7476 N.am      19 UNK        -0.5000 
    105 CA        -6.9746  -20.3127  -53.9125 C.3       19 UNK         0.1400 
    106 CB        -7.5410  -21.7437  -53.9350 C.3       19 UNK        -0.1800 
    107 C         -6.2631  -19.9346  -55.2300 C.2       19 UNK         0.5000 
    108 O         -6.0919  -20.7821  -56.1078 O.2       19 UNK        -0.5000 
    109 N         -5.8684  -18.6588  -55.3357 N.am      20 UNK        -0.5000 
    110 CA        -5.1362  -18.0355  -56.4403 C.3       20 UNK         0.1400 
    111 CB        -5.9940  -18.0091  -57.7270 C.3       20 UNK        -0.1800 
    112 C         -3.7292  -18.6490  -56.6135 C.2       20 UNK         0.5000 
    113 O         -2.9978  -18.7563  -55.6262 O.2       20 UNK        -0.5000 
    114 N         -3.3573  -18.9976  -57.8525 N.am      21 UNK        -0.5000 
    115 CA        -2.0722  -19.5970  -58.2140 C.3       21 UNK         0.1400 
    116 CB        -1.9559  -19.6259  -59.7463 C.3       21 UNK        -0.1800 
    117 C         -1.8893  -21.0124  -57.6323 C.2       21 UNK         0.5000 
    118 O         -2.8699  -21.7281  -57.4169 O.2       21 UNK        -0.5000 
    119 N         -0.6261  -21.3951  -57.4179 N.am      22 UNK        -0.5000 
    120 CA        -0.2266  -22.6739  -56.8044 C.3       22 UNK         0.1400 
    121 C         -0.4291  -23.9345  -57.6978 C.2       22 UNK         0.5000 
    122 N         -0.7194  -23.8023  -58.9863 N.am      22 UNK        -0.7600 
    123 O         -0.3220  -25.0561  -57.2095 O.2       22 UNK        -0.5000 
    124 C124        1.2257  -22.6283  -56.2584 C.3       23 UNK        -0.0398 
    125 S125        1.5894  -21.1699  -55.2217 S.3       23 UNK        -0.2404 
    126 C126        0.8285  -21.6646  -53.6481 C.3       23 UNK        -0.0205 
    127 H127       -3.0691  -17.0638  -44.6371 H         1 UNK         0.0600 
    128 H128       -2.7922  -15.5033  -43.8627 H         1 UNK         0.0600 
    129 H129       -1.4487  -16.3486  -44.6278 H         1 UNK         0.0600 
    130 H130       -1.0942  -16.0529  -46.8628 H         1 UNK         0.3000 
    131 H131       -3.0813  -15.2639  -48.7160 H         1 UNK         0.0600 
    132 H132       -0.0420  -15.0661  -49.0572 H         1 UNK         0.0800 
    133 H133       -1.2348  -14.9982  -50.3316 H         1 UNK         0.0800 
    134 H134       -1.0399  -17.3317  -51.9161 H         1 UNK         0.0800 
    135 H135        0.4011  -16.4945  -51.3864 H         1 UNK         0.0800 
    136 H136       -0.5534  -19.4074  -52.9786 H         1 UNK         0.1150 
    137 H137        2.9188  -21.6832  -51.9083 H         1 UNK         0.1150 
    138 H138        2.0024  -18.0611  -49.8094 H         1 UNK         0.1150 
    139 H139        4.6829  -20.2826  -50.5749 H         1 UNK         0.0800 
    140 H140        4.0877  -19.1614  -49.3788 H         1 UNK         0.0800 
    141 H141        2.1498  -19.7998  -47.8002 H         1 UNK         0.0800 
    142 H142        3.2181  -20.4846  -46.6220 H         1 UNK         0.0800 
    143 H143        1.7963  -22.7563  -47.3329 H         1 UNK         0.0600 
    144 H144        1.7864  -21.1023  -45.0256 H         1 UNK         0.3000 
    145 H145       -0.2870  -23.3007  -43.0780 H         1 UNK         0.0600 
    146 H146        1.7024  -23.1416  -41.6232 H         1 UNK         0.0600 
    147 H147        2.0582  -24.1689  -43.0034 H         1 UNK         0.0600 
    148 H148        2.6742  -22.5211  -42.9553 H         1 UNK         0.0600 
    149 H149        0.9283  -20.8264  -42.4056 H         1 UNK         0.3000 
    150 H150       -1.7818  -18.7085  -43.4725 H         1 UNK         0.0600 
    151 H151       -2.3453  -19.5329  -41.1979 H         1 UNK         0.0600 
    152 H152       -1.5162  -17.9848  -41.1114 H         1 UNK         0.0600 
    153 H153       -0.6503  -19.4720  -40.7322 H         1 UNK         0.0600 
    154 H154        0.6916  -18.0133  -42.3023 H         1 UNK         0.3000 
    155 H155        2.6238  -17.7391  -45.3079 H         1 UNK         0.0600 
    156 H156        1.3613  -15.6164  -45.0412 H         1 UNK         0.0600 
    157 H157        1.5047  -15.7105  -43.2944 H         1 UNK         0.0600 
    158 H158        2.9437  -15.4895  -44.2890 H         1 UNK         0.0600 
    159 H159        3.2001  -17.3923  -42.5088 H         1 UNK         0.3000 
    160 H160        4.4351  -20.6978  -41.9367 H         1 UNK         0.0600 
    161 H161        5.8333  -17.9769  -42.1701 H         1 UNK         0.0600 
    162 H162        6.2905  -19.4367  -43.0396 H         1 UNK         0.0600 
    163 H163        6.4328  -19.3827  -41.2900 H         1 UNK         0.0600 
    164 H164        4.2667  -18.3635  -40.2857 H         1 UNK         0.3000 
    165 H165        1.0090  -18.9542  -38.9817 H         1 UNK         0.0600 
    166 H166        2.2481  -18.9884  -36.8417 H         1 UNK         0.0600 
    167 H167        2.4907  -20.5041  -37.6943 H         1 UNK         0.0600 
    168 H168        3.7667  -19.2926  -37.6864 H         1 UNK         0.0600 
    169 H169        2.8927  -17.0081  -38.2496 H         1 UNK         0.3000 
    170 H170        2.3988  -14.8393  -38.6988 H         1 UNK         0.0600 
    171 H171        3.4565  -14.8835  -41.5847 H         1 UNK         0.0600 
    172 H172        3.8704  -13.6947  -40.3504 H         1 UNK         0.0600 
    173 H173        4.3736  -15.3658  -40.1623 H         1 UNK         0.0600 
    174 H174        1.4466  -13.5609  -41.0450 H         1 UNK         0.3000 
    175 H175       -1.8441  -13.6031  -40.8255 H         1 UNK         0.0600 
    176 H176       -2.2238  -11.3304  -39.8661 H         1 UNK         0.0600 
    177 H177       -0.7100  -11.4440  -38.9678 H         1 UNK         0.0600 
    178 H178       -2.0446  -12.5292  -38.5978 H         1 UNK         0.0600 
    179 H179        0.0745  -11.4203  -41.2890 H         1 UNK         0.3000 
    180 H180        0.1760  -10.7105  -43.4723 H         1 UNK         0.0600 
    181 H181        2.3479  -11.3409  -44.5544 H         1 UNK         0.0600 
    182 H182        2.0358  -13.0446  -44.2351 H         1 UNK         0.0600 
    183 H183        2.3105  -11.9294  -42.9014 H         1 UNK         0.0600 
    184 H184       -0.8021  -12.7704  -45.2221 H         1 UNK         0.3000 
    185 H185       -1.9695  -10.8818  -47.3828 H         1 UNK         0.0600 
    186 H186       -0.1061   -9.7453  -48.5994 H         1 UNK         0.0600 
    187 H187        0.7635  -11.2704  -48.7280 H         1 UNK         0.0600 
    188 H188       -0.7650  -11.0420  -49.5754 H         1 UNK         0.0600 
    189 H189       -0.5289  -13.3930  -47.0518 H         1 UNK         0.3000 
    190 H190       -0.3557  -20.0676  -46.3591 H         1 UNK         0.3000 
    191 H191       -2.0244  -20.0581  -48.6384 H         1 UNK         0.0600 
    192 H192       -2.0193  -18.2817  -46.8994 H         1 UNK         0.0600 
    193 H193       -3.6421  -18.9061  -47.1517 H         1 UNK         0.0600 
    194 H194       -2.7250  -19.3897  -45.7305 H         1 UNK         0.0600 
    195 H195       -2.2931  -21.9534  -45.5761 H         1 UNK         0.3000 
    196 H196       -4.6825  -23.3175  -46.1993 H         1 UNK         0.0600 
    197 H197       -3.9487  -24.9054  -44.4162 H         1 UNK         0.0600 
    198 H198       -3.7335  -23.2337  -43.9206 H         1 UNK         0.0600 
    199 H199       -2.3421  -24.1891  -44.4254 H         1 UNK         0.0600 
    200 H200       -1.2745  -24.2339  -46.8699 H         1 UNK         0.3000 
    201 H201       -1.8035  -26.6997  -48.1871 H         1 UNK         0.0600 
    202 H202        0.4416  -26.0394  -47.3485 H         1 UNK         0.0600 
    203 H203        0.5291  -24.7407  -48.5358 H         1 UNK         0.0600 
    204 H204        0.5123  -26.4183  -49.0634 H         1 UNK         0.0600 
    205 H205       -1.9180  -23.3655  -49.3249 H         1 UNK         0.3000 
    206 H206       -2.4173  -24.0602  -52.1299 H         1 UNK         0.0600 
    207 H207       -2.4151  -21.6164  -52.4268 H         1 UNK         0.0600 
    208 H208       -2.4431  -21.3611  -50.6855 H         1 UNK         0.0600 
    209 H209       -1.0343  -22.0814  -51.4410 H         1 UNK         0.0600 
    210 H210       -4.3305  -24.7666  -49.7611 H         1 UNK         0.3000 
    211 H211       -6.4796  -25.0989  -49.4196 H         1 UNK         0.0600 
    212 H212       -6.8962  -24.3870  -52.3704 H         1 UNK         0.0600 
    213 H213       -8.0074  -25.2878  -51.3497 H         1 UNK         0.0600 
    214 H214       -6.4432  -25.9751  -51.7547 H         1 UNK         0.0600 
    215 H215       -5.5861  -22.7554  -48.4993 H         1 UNK         0.3000 
    216 H216       -6.2013  -20.9220  -47.4448 H         1 UNK         0.0600 
    217 H217       -8.5143  -20.1800  -47.1929 H         1 UNK         0.0600 
    218 H218       -8.4573  -21.9269  -47.0208 H         1 UNK         0.0600 
    219 H219       -9.0565  -21.2018  -48.5127 H         1 UNK         0.0600 
    220 H220       -4.7914  -20.8133  -49.6440 H         1 UNK         0.3000 
    221 H221       -3.9092  -19.5530  -51.2515 H         1 UNK         0.0600 
    222 H222       -5.4460  -17.2388  -49.9582 H         1 UNK         0.0600 
    223 H223       -3.8997  -17.8698  -49.4006 H         1 UNK         0.0600 
    224 H224       -4.0180  -17.1074  -50.9772 H         1 UNK         0.0600 
    225 H225       -5.7125  -21.0404  -52.3817 H         1 UNK         0.3000 
    226 H226       -7.8187  -19.6302  -53.7943 H         1 UNK         0.0600 
    227 H227       -8.0855  -21.9663  -53.0176 H         1 UNK         0.0600 
    228 H228       -8.2359  -21.8778  -54.7647 H         1 UNK         0.0600 
    229 H229       -6.7504  -22.4871  -54.0433 H         1 UNK         0.0600 
    230 H230       -5.9995  -18.0780  -54.5121 H         1 UNK         0.3000 
    231 H231       -4.9716  -16.9995  -56.1410 H         1 UNK         0.0600 
    232 H232       -6.1692  -19.0081  -58.1276 H         1 UNK         0.0600 
    233 H233       -5.5176  -17.4147  -58.5075 H         1 UNK         0.0600 
    234 H234       -6.9671  -17.5567  -57.5354 H         1 UNK         0.0600 
    235 H235       -4.0334  -18.9079  -58.5960 H         1 UNK         0.3000 
    236 H236       -1.2821  -18.9563  -57.8166 H         1 UNK         0.0600 
    237 H237       -2.0381  -18.6239  -60.1679 H         1 UNK         0.0600 
    238 H238       -0.9921  -20.0291  -60.0599 H         1 UNK         0.0600 
    239 H239       -2.7330  -20.2450  -60.1966 H         1 UNK         0.0600 
    240 H240        0.1273  -20.7567  -57.6285 H         1 UNK         0.3000 
    241 H241       -0.8839  -22.8243  -55.9459 H         1 UNK         0.0600 
    242 H242       -0.8183  -22.8885  -59.3980 H         1 UNK         0.3800 
    243 H243       -0.8516  -24.6254  -59.5531 H         1 UNK         0.3800 
    244 H244        1.4483  -23.5284  -55.6826 H         1 UNK         0.0800 
    245 H245        1.9349  -22.6214  -57.0879 H         1 UNK         0.0800 
    246 H246        1.1849  -22.6542  -53.3578 H         1 UNK         0.0800 
    247 H247       -0.2504  -21.7481  -53.7828 H         1 UNK         0.0800 
@<TRIPOS>BOND
     1    1    2 1    
     2    1  127 1    
     3    1  128 1    
     4    1  129 1    
     5    2    3 2    
     6    2    4 am   BACKBONE|DICT|INTERRES
     7    4    5 1    
     8    4  130 1    
     9    5    6 1    
    10    5   65 1    
    11    5  131 1    
    12    6    7 1    
    13    6  132 1    
    14    6  133 1    
    15    7    8 1    
    16    8    9 1    
    17    8  134 1    
    18    8  135 1    
    19    9   10 ar   
    20    9   14 ar   
    21   10   11 ar   
    22   10  136 1    
    23   11   12 ar   
    24   11  126 1    
    25   12   13 ar   
    26   12  137 1    
    27   13   14 ar   
    28   13   15 1    
    29   14  138 1    
    30   15   16 1    
    31   15  139 1    
    32   15  140 1    
    33   16   17 1    
    34   17   18 1    
    35   17  141 1    
    36   17  142 1    
    37   18   19 1    
    38   18   67 1    
    39   18  143 1    
    40   19   20 am   BACKBONE|DICT|INTERRES
    41   19  144 1    
    42   20   21 2    
    43   20   22 1    
    44   22   23 1    
    45   22   24 1    
    46   22  145 1    
    47   23  146 1    
    48   23  147 1    
    49   23  148 1    
    50   24   25 am   BACKBONE|DICT|INTERRES
    51   24  149 1    
    52   25   26 2    
    53   25   27 1    
    54   27   28 1    
    55   27   29 1    
    56   27  150 1    
    57   28  151 1    
    58   28  152 1    
    59   28  153 1    
    60   29   30 am   BACKBONE|DICT|INTERRES
    61   29  154 1    
    62   30   31 2    
    63   30   32 1    
    64   32   33 1    
    65   32   34 1    
    66   32  155 1    
    67   33  156 1    
    68   33  157 1    
    69   33  158 1    
    70   34   35 am   BACKBONE|DICT|INTERRES
    71   34  159 1    
    72   35   36 2    
    73   35   37 1    
    74   37   38 1    
    75   37   39 1    
    76   37  160 1    
    77   38  161 1    
    78   38  162 1    
    79   38  163 1    
    80   39   40 am   BACKBONE|DICT|INTERRES
    81   39  164 1    
    82   40   41 2    
    83   40   42 1    
    84   42   43 1    
    85   42   44 1    
    86   42  165 1    
    87   43  166 1    
    88   43  167 1    
    89   43  168 1    
    90   44   45 am   BACKBONE|DICT|INTERRES
    91   44  169 1    
    92   45   46 2    
    93   45   47 1    
    94   47   48 1    
    95   47   49 1    
    96   47  170 1    
    97   48  171 1    
    98   48  172 1    
    99   48  173 1    
   100   49   50 am   BACKBONE|DICT|INTERRES
   101   49  174 1    
   102   50   51 2    
   103   50   52 1    
   104   52   53 1    
   105   52   54 1    
   106   52  175 1    
   107   53  176 1    
   108   53  177 1    
   109   53  178 1    
   110   54   55 am   BACKBONE|DICT|INTERRES
   111   54  179 1    
   112   55   56 2    
   113   55   57 1    
   114   57   58 1    
   115   57   59 1    
   116   57  180 1    
   117   58  181 1    
   118   58  182 1    
   119   58  183 1    
   120   59   60 am   BACKBONE|DICT|INTERRES
   121   59  184 1    
   122   60   61 2    
   123   60   62 1    
   124   62   63 1    
   125   62   64 1    
   126   62  185 1    
   127   63  186 1    
   128   63  187 1    
   129   63  188 1    
   130   64   65 am   BACKBONE|DICT|INTERRES
   131   64  189 1    
   132   65   66 2    
   133   67   68 2    
   134   67   69 am   BACKBONE|DICT|INTERRES
   135   69   70 1    
   136   69  190 1    
   137   70   71 1    
   138   70   72 1    
   139   70  191 1    
   140   71  192 1    
   141   71  193 1    
   142   71  194 1    
   143   72   73 2    
   144   72   74 am   BACKBONE|DICT|INTERRES
   145   74   75 1    
   146   74  195 1    
   147   75   76 1    
   148   75   77 1    
   149   75  196 1    
   150   76  197 1    
   151   76  198 1    
   152   76  199 1    
   153   77   78 2    
   154   77   79 am   BACKBONE|DICT|INTERRES
   155   79   80 1    
   156   79  200 1    
   157   80   81 1    
   158   80   82 1    
   159   80  201 1    
   160   81  202 1    
   161   81  203 1    
   162   81  204 1    
   163   82   83 2    
   164   82   84 am   BACKBONE|DICT|INTERRES
   165   84   85 1    
   166   84  205 1    
   167   85   86 1    
   168   85   87 1    
   169   85  206 1    
   170   86  207 1    
   171   86  208 1    
   172   86  209 1    
   173   87   88 2    
   174   87   89 am   BACKBONE|DICT|INTERRES
   175   89   90 1    
   176   89  210 1    
   177   90   91 1    
   178   90   92 1    
   179   90  211 1    
   180   91  212 1    
   181   91  213 1    
   182   91  214 1    
   183   92   93 2    
   184   92   94 am   BACKBONE|DICT|INTERRES
   185   94   95 1    
   186   94  215 1    
   187   95   96 1    
   188   95   97 1    
   189   95  216 1    
   190   96  217 1    
   191   96  218 1    
   192   96  219 1    
   193   97   98 2    
   194   97   99 am   BACKBONE|DICT|INTERRES
   195   99  100 1    
   196   99  220 1    
   197  100  101 1    
   198  100  102 1    
   199  100  221 1    
   200  101  222 1    
   201  101  223 1    
   202  101  224 1    
   203  102  103 2    
   204  102  104 am   BACKBONE|DICT|INTERRES
   205  104  105 1    
   206  104  225 1    
   207  105  106 1    
   208  105  107 1    
   209  105  226 1    
   210  106  227 1    
   211  106  228 1    
   212  106  229 1    
   213  107  108 2    
   214  107  109 am   BACKBONE|DICT|INTERRES
   215  109  110 1    
   216  109  230 1    
   217  110  111 1    
   218  110  112 1    
   219  110  231 1    
   220  111  232 1    
   221  111  233 1    
   222  111  234 1    
   223  112  113 2    
   224  112  114 am   BACKBONE|DICT|INTERRES
   225  114  115 1    
   226  114  235 1    
   227  115  116 1    
   228  115  117 1    
   229  115  236 1    
   230  116  237 1    
   231  116  238 1    
   232  116  239 1    
   233  117  118 2    
   234  117  119 am   BACKBONE|DICT|INTERRES
   235  119  120 1    
   236  119  240 1    
   237  120  121 1    
   238  120  124 1    
   239  120  241 1    
   240  121  122 am   BACKBONE|DICT|INTERRES
   241  121  123 2    
   242  122  242 1    
   243  122  243 1    
   244  124  125 1    
   245  124  244 1    
   246  124  245 1    
   247  125  126 1    
   248  126  246 1    
   249  126  247 1    
@<TRIPOS>SUBSTRUCTURE
     1 UNK         1 GROUP             0       ****    0 ROOT    
