@<TRIPOS>MOLECULE
3R540
247   249    1
SMALL
USER_CHARGES


@<TRIPOS>ATOM
      1 CA          2.4240  -16.4613  -47.4953 C.3       0 UNK        -0.1800 
      2 C           2.1702  -15.0639  -46.9536 C.2       0 UNK         0.5000 
      3 O           2.8492  -14.6354  -46.0225 O.2       0 UNK        -0.5000 
      4 N           1.2055  -14.3494  -47.5491 N.am      1 UNK        -0.5000 
      5 CA          0.7030  -13.0276  -47.1359 C.3       1 UNK         0.1400 
      6 C6         -0.4013  -12.5054  -48.0897 C.3       23 UNK        -0.0398 
      7 S7         -1.7905  -13.6711  -48.2867 S.3       23 UNK        -0.2404 
      8 C8         -1.4593  -14.4085  -49.9218 C.3       23 UNK        -0.0205 
      9 C9         -1.5593  -15.9255  -49.8703 C.ar      23 UNK        -0.0193 
     10 C10        -2.8023  -16.5342  -49.6896 C.ar      23 UNK        -0.1150 
     11 C11        -2.9137  -17.9261  -49.6150 C.ar      23 UNK        -0.0193 
     12 C12        -1.7645  -18.7078  -49.7596 C.ar      23 UNK        -0.1150 
     13 C13        -0.5093  -18.1176  -49.9673 C.ar      23 UNK        -0.0193 
     14 C14        -0.4205  -16.7226  -50.0150 C.ar      23 UNK        -0.1150 
     15 C15         0.7724  -18.9303  -50.1768 C.3       23 UNK        -0.0205 
     16 S16         0.6811  -20.7055  -49.7595 S.3       23 UNK        -0.2404 
     17 C17         0.5410  -20.6041  -47.9429 C.3       23 UNK        -0.0398 
     18 CA          0.1358  -21.9313  -47.2592 C.3       11 UNK         0.1400 
     19 N           0.1923  -21.8137  -45.8019 N.am      11 UNK        -0.5000 
     20 C           0.0349  -22.8214  -44.9329 C.2       10 UNK         0.5000 
     21 O          -0.1037  -23.9982  -45.2658 O.2       10 UNK        -0.5000 
     22 CA         -0.0388  -22.4373  -43.4434 C.3       10 UNK         0.1400 
     23 CB          1.3646  -22.2088  -42.8633 C.3       10 UNK        -0.1800 
     24 N          -0.8687  -21.2513  -43.2182 N.am      10 UNK        -0.5000 
     25 C          -2.1855  -21.1973  -43.4661 C.2       9 UNK         0.5000 
     26 O          -2.8454  -22.1673  -43.8401 O.2       9 UNK        -0.5000 
     27 CA         -2.8729  -19.8265  -43.3145 C.3       9 UNK         0.1400 
     28 CB         -3.2216  -19.5464  -41.8455 C.3       9 UNK        -0.1800 
     29 N          -2.0732  -18.7236  -43.8521 N.am      9 UNK        -0.5000 
     30 C          -1.7513  -18.5806  -45.1459 C.2       8 UNK         0.5000 
     31 O          -2.1270  -19.3487  -46.0277 O.2       8 UNK        -0.5000 
     32 CA         -0.8014  -17.4261  -45.5117 C.3       8 UNK         0.1400 
     33 CB         -1.5640  -16.0988  -45.6030 C.3       8 UNK        -0.1800 
     34 N           0.3137  -17.3032  -44.5707 N.am      8 UNK        -0.5000 
     35 C           1.2384  -18.2535  -44.3680 C.2       7 UNK         0.5000 
     36 O           1.2998  -19.2934  -45.0220 O.2       7 UNK        -0.5000 
     37 CA          2.2163  -18.0436  -43.1993 C.3       7 UNK         0.1400 
     38 CB          3.4237  -17.1934  -43.6169 C.3       7 UNK        -0.1800 
     39 N           1.5557  -17.4377  -42.0443 N.am      7 UNK        -0.5000 
     40 C           0.6719  -18.0767  -41.2647 C.2       6 UNK         0.5000 
     41 O           0.3664  -19.2600  -41.4094 O.2       6 UNK        -0.5000 
     42 CA         -0.0153  -17.2410  -40.1685 C.3       6 UNK         0.1400 
     43 CB          0.8545  -17.1895  -38.9038 C.3       6 UNK        -0.1800 
     44 N          -0.3100  -15.8764  -40.6089 N.am      6 UNK        -0.5000 
     45 C          -1.1992  -15.5614  -41.5622 C.2       5 UNK         0.5000 
     46 O          -1.9199  -16.3892  -42.1172 O.2       5 UNK        -0.5000 
     47 CA         -1.2495  -14.0848  -42.0058 C.3       5 UNK         0.1400 
     48 CB         -2.2686  -13.3022  -41.1651 C.3       5 UNK        -0.1800 
     49 N           0.0587  -13.4263  -41.9246 N.am      5 UNK        -0.5000 
     50 C           1.1190  -13.7716  -42.6665 C.2       4 UNK         0.5000 
     51 O           1.0769  -14.6290  -43.5499 O.2       4 UNK        -0.5000 
     52 CA          2.4567  -13.1302  -42.2772 C.3       4 UNK         0.1400 
     53 CB          3.0086  -13.8342  -41.0173 C.3       4 UNK        -0.1800 
     54 N           3.4154  -13.2328  -43.3775 N.am      4 UNK        -0.5000 
     55 C           4.6105  -12.6255  -43.4052 C.2       3 UNK         0.5000 
     56 O           5.0082  -11.8568  -42.5284 O.2       3 UNK        -0.5000 
     57 CA          5.5145  -12.9048  -44.6147 C.3       3 UNK         0.1400 
     58 CB          5.9737  -14.3723  -44.6503 C.3       3 UNK        -0.1800 
     59 N           4.8256  -12.5691  -45.8556 N.am      3 UNK        -0.5000 
     60 C           4.8952  -11.3777  -46.4653 C.2       2 UNK         0.5000 
     61 O           5.6042  -10.4497  -46.0733 O.2       2 UNK        -0.5000 
     62 CA          4.0370  -11.1785  -47.7311 C.3       2 UNK         0.1400 
     63 CB          4.8820  -11.4066  -48.9939 C.3       2 UNK        -0.1800 
     64 N           2.8655  -12.0528  -47.7830 N.am      2 UNK        -0.5000 
     65 C           1.7948  -11.9463  -46.9840 C.2       1 UNK         0.5000 
     66 O           1.6501  -11.0507  -46.1510 O.2       1 UNK        -0.5000 
     67 C          -1.2398  -22.4523  -47.7281 C.2       11 UNK         0.5000 
     68 O          -1.2810  -23.3931  -48.5189 O.2       11 UNK        -0.5000 
     69 N          -2.3308  -21.8801  -47.1951 N.am      12 UNK        -0.5000 
     70 CA         -3.7135  -22.2883  -47.4545 C.3       12 UNK         0.1400 
     71 CB         -4.6904  -21.3674  -46.7058 C.3       12 UNK        -0.1800 
     72 C          -3.9912  -23.7603  -47.1056 C.2       12 UNK         0.5000 
     73 O          -4.6466  -24.4542  -47.8837 O.2       12 UNK        -0.5000 
     74 N          -3.4684  -24.2081  -45.9564 N.am      13 UNK        -0.5000 
     75 CA         -3.5521  -25.5917  -45.4930 C.3       13 UNK         0.1400 
     76 CB         -3.1085  -25.6612  -44.0237 C.3       13 UNK        -0.1800 
     77 C          -2.7328  -26.5684  -46.3589 C.2       13 UNK         0.5000 
     78 O          -3.1794  -27.6944  -46.5817 O.2       13 UNK        -0.5000 
     79 N          -1.5550  -26.1284  -46.8221 N.am      14 UNK        -0.5000 
     80 CA         -0.6465  -26.9085  -47.6598 C.3       14 UNK         0.1400 
     81 CB          0.7534  -26.2716  -47.6317 C.3       14 UNK        -0.1800 
     82 C          -1.1618  -27.0687  -49.1020 C.2       14 UNK         0.5000 
     83 O          -1.3929  -28.1960  -49.5414 O.2       14 UNK        -0.5000 
     84 N          -1.3242  -25.9422  -49.8050 N.am      15 UNK        -0.5000 
     85 CA         -1.7124  -25.8318  -51.2096 C.3       15 UNK         0.1400 
     86 CB         -0.7048  -26.5443  -52.1400 C.3       15 UNK        -0.1800 
     87 C          -1.7916  -24.3341  -51.5275 C.2       15 UNK         0.5000 
     88 O          -0.7762  -23.7369  -51.8916 O.2       15 UNK        -0.5000 
     89 N          -2.9786  -23.7507  -51.3150 N.am      16 UNK        -0.5000 
     90 CA         -3.2765  -22.3177  -51.3766 C.3       16 UNK         0.1400 
     91 CB         -4.7937  -22.1270  -51.2329 C.3       16 UNK        -0.1800 
     92 C          -2.7588  -21.6242  -52.6497 C.2       16 UNK         0.5000 
     93 O          -3.3378  -21.8035  -53.7212 O.2       16 UNK        -0.5000 
     94 N          -1.6453  -20.8899  -52.5102 N.am      17 UNK        -0.5000 
     95 CA         -0.9232  -20.1745  -53.5697 C.3       17 UNK         0.1400 
     96 CB         -1.7592  -18.9775  -54.0680 C.3       17 UNK        -0.1800 
     97 C          -0.4371  -21.0890  -54.7187 C.2       17 UNK         0.5000 
     98 O          -0.2642  -20.6181  -55.8438 O.2       17 UNK        -0.5000 
     99 N          -0.2460  -22.3833  -54.4136 N.am      18 UNK        -0.5000 
    100 CA         0.0764  -23.4848  -55.3272 C.3       18 UNK         0.1400 
    101 CB         1.4847  -23.3034  -55.9309 C.3       18 UNK        -0.1800 
    102 C         -1.0070  -23.7462  -56.4004 C.2       18 UNK         0.5000 
    103 O         -0.7039  -24.3340  -57.4405 O.2       18 UNK        -0.5000 
    104 N         -2.2491  -23.3220  -56.1357 N.am      19 UNK        -0.5000 
    105 CA        -3.3963  -23.4518  -57.0260 C.3       19 UNK         0.1400 
    106 CB        -3.3712  -22.3252  -58.0825 C.3       19 UNK        -0.1800 
    107 C         -4.6605  -23.4810  -56.1538 C.2       19 UNK         0.5000 
    108 O         -4.8897  -24.4767  -55.4645 O.2       19 UNK        -0.5000 
    109 N         -5.4357  -22.3929  -56.1695 N.am      20 UNK        -0.5000 
    110 CA        -6.5503  -22.1364  -55.2682 C.3       20 UNK         0.1400 
    111 CB        -7.8722  -22.5391  -55.9416 C.3       20 UNK        -0.1800 
    112 C         -6.5314  -20.6433  -54.9161 C.2       20 UNK         0.5000 
    113 O         -6.2617  -19.8159  -55.7910 O.2       20 UNK        -0.5000 
    114 N         -6.8253  -20.3343  -53.6514 N.am      21 UNK        -0.5000 
    115 CA        -6.8295  -19.0119  -53.0321 C.3       21 UNK         0.1400 
    116 CB        -5.4157  -18.3892  -53.0687 C.3       21 UNK        -0.1800 
    117 C         -7.3457  -19.1795  -51.5899 C.2       21 UNK         0.5000 
    118 O         -7.5935  -20.3115  -51.1638 O.2       21 UNK        -0.5000 
    119 N         -7.4935  -18.0658  -50.8592 N.am      22 UNK        -0.5000 
    120 CA        -7.9399  -18.0165  -49.4492 C.3       22 UNK         0.1400 
    121 C         -9.4138  -18.4802  -49.2123 C.2       22 UNK         0.5000 
    122 N        -10.2631  -18.5310  -50.2314 N.am      22 UNK        -0.7600 
    123 O         -9.8124  -18.7622  -48.0853 O.2       22 UNK        -0.5000 
    124 C124       -6.9279  -18.6842  -48.4664 C.3       23 UNK        -0.0398 
    125 S125       -5.3841  -17.7273  -48.2890 S.3       23 UNK        -0.2404 
    126 C126       -4.2673  -18.6050  -49.4311 C.3       23 UNK        -0.0205 
    127 H127        1.4897  -16.9438  -47.7768 H         1 UNK         0.0600 
    128 H128        2.9063  -17.0822  -46.7408 H         1 UNK         0.0600 
    129 H129        3.0739  -16.4174  -48.3689 H         1 UNK         0.0600 
    130 H130        0.6796  -14.7781  -48.2956 H         1 UNK         0.3000 
    131 H131        0.2620  -13.1617  -46.1460 H         1 UNK         0.0600 
    132 H132       -0.8202  -11.5756  -47.7001 H         1 UNK         0.0800 
    133 H133        0.0125  -12.2550  -49.0680 H         1 UNK         0.0800 
    134 H134       -0.4789  -14.1091  -50.2936 H         1 UNK         0.0800 
    135 H135       -2.1855  -14.0218  -50.6382 H         1 UNK         0.0800 
    136 H136       -3.6826  -15.9145  -49.5963 H         1 UNK         0.1150 
    137 H137       -1.8633  -19.7807  -49.7151 H         1 UNK         0.1150 
    138 H138        0.5412  -16.2574  -50.1799 H         1 UNK         0.1150 
    139 H139        1.0653  -18.8404  -51.2227 H         1 UNK         0.0800 
    140 H140        1.5852  -18.4882  -49.6000 H         1 UNK         0.0800 
    141 H141       -0.1617  -19.8143  -47.6808 H         1 UNK         0.0800 
    142 H142        1.5097  -20.2787  -47.5613 H         1 UNK         0.0800 
    143 H143        0.8757  -22.6836  -47.5402 H         1 UNK         0.0600 
    144 H144        0.3573  -20.8799  -45.4350 H         1 UNK         0.3000 
    145 H145       -0.4954  -23.2717  -42.9072 H         1 UNK         0.0600 
    146 H146        1.3188  -21.9873  -41.7968 H         1 UNK         0.0600 
    147 H147        1.9856  -23.0970  -42.9855 H         1 UNK         0.0600 
    148 H148        1.8758  -21.3812  -43.3546 H         1 UNK         0.0600 
    149 H149       -0.4042  -20.4281  -42.8485 H         1 UNK         0.3000 
    150 H150       -3.8061  -19.8619  -43.8802 H         1 UNK         0.0600 
    151 H151       -3.8510  -20.3377  -41.4367 H         1 UNK         0.0600 
    152 H152       -3.7686  -18.6090  -41.7424 H         1 UNK         0.0600 
    153 H153       -2.3294  -19.4824  -41.2230 H         1 UNK         0.0600 
    154 H154       -1.7784  -18.0084  -43.1941 H         1 UNK         0.3000 
    155 H155       -0.3831  -17.6392  -46.4967 H         1 UNK         0.0600 
    156 H156       -2.1009  -15.8702  -44.6837 H         1 UNK         0.0600 
    157 H157       -2.2984  -16.1336  -46.4089 H         1 UNK         0.0600 
    158 H158       -0.8895  -15.2698  -45.8092 H         1 UNK         0.0600 
    159 H159        0.3790  -16.4403  -44.0406 H         1 UNK         0.3000 
    160 H160        2.5901  -19.0254  -42.9015 H         1 UNK         0.0600 
    161 H161        3.1277  -16.1867  -43.9045 H         1 UNK         0.0600 
    162 H162        3.9397  -17.6386  -44.4682 H         1 UNK         0.0600 
    163 H163        4.1470  -17.1088  -42.8059 H         1 UNK         0.0600 
    164 H164        1.7128  -16.4528  -41.8977 H         1 UNK         0.3000 
    165 H165       -0.9586  -17.7303  -39.9166 H         1 UNK         0.0600 
    166 H166        0.3460  -16.6612  -38.0970 H         1 UNK         0.0600 
    167 H167        1.0771  -18.1945  -38.5429 H         1 UNK         0.0600 
    168 H168        1.8057  -16.6880  -39.0870 H         1 UNK         0.0600 
    169 H169        0.2283  -15.1344  -40.1882 H         1 UNK         0.3000 
    170 H170       -1.5757  -14.0619  -43.0477 H         1 UNK         0.0600 
    171 H171       -3.2571  -13.7597  -41.2260 H         1 UNK         0.0600 
    172 H172       -1.9853  -13.2712  -40.1123 H         1 UNK         0.0600 
    173 H173       -2.3652  -12.2753  -41.5181 H         1 UNK         0.0600 
    174 H174        0.1634  -12.7171  -41.2131 H         1 UNK         0.3000 
    175 H175        2.2804  -12.0740  -42.0640 H         1 UNK         0.0600 
    176 H176        3.2635  -14.8751  -41.2199 H         1 UNK         0.0600 
    177 H177        3.9045  -13.3430  -40.6389 H         1 UNK         0.0600 
    178 H178        2.2831  -13.8251  -40.2033 H         1 UNK         0.0600 
    179 H179        3.1201  -13.8189  -44.1558 H         1 UNK         0.3000 
    180 H180        6.4106  -12.2890  -44.5112 H         1 UNK         0.0600 
    181 H181        6.4755  -14.6460  -43.7214 H         1 UNK         0.0600 
    182 H182        6.6797  -14.5409  -45.4634 H         1 UNK         0.0600 
    183 H183        5.1414  -15.0613  -44.7872 H         1 UNK         0.0600 
    184 H184        4.1599  -13.2592  -46.1913 H         1 UNK         0.3000 
    185 H185        3.6905  -10.1429  -47.7342 H         1 UNK         0.0600 
    186 H186        5.7523  -10.7490  -49.0058 H         1 UNK         0.0600 
    187 H187        5.2456  -12.4332  -49.0545 H         1 UNK         0.0600 
    188 H188        4.3074  -11.1988  -49.8967 H         1 UNK         0.0600 
    189 H189        2.9045  -12.8268  -48.4298 H         1 UNK         0.3000 
    190 H190       -2.2103  -21.0696  -46.5899 H         1 UNK         0.3000 
    191 H191       -3.8858  -22.1601  -48.5199 H         1 UNK         0.0600 
    192 H192       -4.6442  -21.5166  -45.6279 H         1 UNK         0.0600 
    193 H193       -5.7180  -21.5602  -47.0157 H         1 UNK         0.0600 
    194 H194       -4.4846  -20.3160  -46.8983 H         1 UNK         0.0600 
    195 H195       -2.9879  -23.5494  -45.3517 H         1 UNK         0.3000 
    196 H196       -4.5983  -25.9005  -45.5450 H         1 UNK         0.0600 
    197 H197       -3.1894  -26.6784  -43.6386 H         1 UNK         0.0600 
    198 H198       -3.7297  -25.0237  -43.3942 H         1 UNK         0.0600 
    199 H199       -2.0728  -25.3439  -43.8997 H         1 UNK         0.0600 
    200 H200       -1.2447  -25.2003  -46.5564 H         1 UNK         0.3000 
    201 H201       -0.5604  -27.9076  -47.2274 H         1 UNK         0.0600 
    202 H202        1.1594  -26.2635  -46.6200 H         1 UNK         0.0600 
    203 H203        0.7410  -25.2422  -47.9908 H         1 UNK         0.0600 
    204 H204        1.4500  -26.8304  -48.2577 H         1 UNK         0.0600 
    205 H205       -1.1734  -25.0484  -49.3364 H         1 UNK         0.3000 
    206 H206       -2.6991  -26.2791  -51.3437 H         1 UNK         0.0600 
    207 H207        0.3187  -26.2177  -51.9517 H         1 UNK         0.0600 
    208 H208       -0.7374  -27.6265  -52.0194 H         1 UNK         0.0600 
    209 H209       -0.9287  -26.3365  -53.1871 H         1 UNK         0.0600 
    210 H210       -3.7394  -24.3362  -51.0030 H         1 UNK         0.3000 
    211 H211       -2.7910  -21.8549  -50.5170 H         1 UNK         0.0600 
    212 H212       -5.3350  -22.5485  -52.0803 H         1 UNK         0.0600 
    213 H213       -5.0387  -21.0678  -51.1777 H         1 UNK         0.0600 
    214 H214       -5.1838  -22.5984  -50.3316 H         1 UNK         0.0600 
    215 H215       -1.1891  -20.8829  -51.6081 H         1 UNK         0.3000 
    216 H216       -0.0202  -19.7757  -53.1082 H         1 UNK         0.0600 
    217 H217       -1.1834  -18.3526  -54.7513 H         1 UNK         0.0600 
    218 H218       -2.0720  -18.3440  -53.2375 H         1 UNK         0.0600 
    219 H219       -2.6551  -19.3028  -54.5981 H         1 UNK         0.0600 
    220 H220       -0.4217  -22.6719  -53.4535 H         1 UNK         0.3000 
    221 H221        0.1011  -24.3823  -54.7078 H         1 UNK         0.0600 
    222 H222        1.5226  -22.4661  -56.6280 H         1 UNK         0.0600 
    223 H223        2.2273  -23.1270  -55.1527 H         1 UNK         0.0600 
    224 H224        1.7951  -24.1953  -56.4761 H         1 UNK         0.0600 
    225 H225       -2.4420  -22.8640  -55.2492 H         1 UNK         0.3000 
    226 H226       -3.3501  -24.4132  -57.5416 H         1 UNK         0.0600 
    227 H227       -2.5030  -22.4220  -58.7344 H         1 UNK         0.0600 
    228 H228       -4.2547  -22.3619  -58.7211 H         1 UNK         0.0600 
    229 H229       -3.3252  -21.3367  -57.6231 H         1 UNK         0.0600 
    230 H230       -5.1529  -21.5904  -56.7171 H         1 UNK         0.3000 
    231 H231       -6.4235  -22.7127  -54.3491 H         1 UNK         0.0600 
    232 H232       -7.8832  -23.6023  -56.1823 H         1 UNK         0.0600 
    233 H233       -8.0375  -21.9844  -56.8661 H         1 UNK         0.0600 
    234 H234       -8.7200  -22.3447  -55.2837 H         1 UNK         0.0600 
    235 H235       -7.0795  -21.0646  -52.9956 H         1 UNK         0.3000 
    236 H236       -7.5297  -18.3705  -53.5701 H         1 UNK         0.0600 
    237 H237       -4.6638  -19.0756  -52.6797 H         1 UNK         0.0600 
    238 H238       -5.1222  -18.1311  -54.0858 H         1 UNK         0.0600 
    239 H239       -5.3603  -17.4685  -52.4874 H         1 UNK         0.0600 
    240 H240       -7.2875  -17.1712  -51.2800 H         1 UNK         0.3000 
    241 H241       -7.9702  -16.9557  -49.1980 H         1 UNK         0.0600 
    242 H242       -9.9645  -18.2896  -51.1625 H         1 UNK         0.3800 
    243 H243      -11.2154  -18.8192  -50.0690 H         1 UNK         0.3800 
    244 H244       -7.3477  -18.7504  -47.4618 H         1 UNK         0.0800 
    245 H245       -6.7053  -19.7111  -48.7574 H         1 UNK         0.0800 
    246 H246       -4.7424  -18.6744  -50.4042 H         1 UNK         0.0800 
    247 H247       -4.1330  -19.6269  -49.0780 H         1 UNK         0.0800 
@<TRIPOS>BOND
     1    1    2 1    
     2    1  127 1    
     3    1  128 1    
     4    1  129 1    
     5    2    3 2    
     6    2    4 am   BACKBONE|DICT|INTERRES
     7    4    5 1    
     8    4  130 1    
     9    5    6 1    
    10    5   65 1    
    11    5  131 1    
    12    6    7 1    
    13    6  132 1    
    14    6  133 1    
    15    7    8 1    
    16    8    9 1    
    17    8  134 1    
    18    8  135 1    
    19    9   10 ar   
    20    9   14 ar   
    21   10   11 ar   
    22   10  136 1    
    23   11   12 ar   
    24   11  126 1    
    25   12   13 ar   
    26   12  137 1    
    27   13   14 ar   
    28   13   15 1    
    29   14  138 1    
    30   15   16 1    
    31   15  139 1    
    32   15  140 1    
    33   16   17 1    
    34   17   18 1    
    35   17  141 1    
    36   17  142 1    
    37   18   19 1    
    38   18   67 1    
    39   18  143 1    
    40   19   20 am   BACKBONE|DICT|INTERRES
    41   19  144 1    
    42   20   21 2    
    43   20   22 1    
    44   22   23 1    
    45   22   24 1    
    46   22  145 1    
    47   23  146 1    
    48   23  147 1    
    49   23  148 1    
    50   24   25 am   BACKBONE|DICT|INTERRES
    51   24  149 1    
    52   25   26 2    
    53   25   27 1    
    54   27   28 1    
    55   27   29 1    
    56   27  150 1    
    57   28  151 1    
    58   28  152 1    
    59   28  153 1    
    60   29   30 am   BACKBONE|DICT|INTERRES
    61   29  154 1    
    62   30   31 2    
    63   30   32 1    
    64   32   33 1    
    65   32   34 1    
    66   32  155 1    
    67   33  156 1    
    68   33  157 1    
    69   33  158 1    
    70   34   35 am   BACKBONE|DICT|INTERRES
    71   34  159 1    
    72   35   36 2    
    73   35   37 1    
    74   37   38 1    
    75   37   39 1    
    76   37  160 1    
    77   38  161 1    
    78   38  162 1    
    79   38  163 1    
    80   39   40 am   BACKBONE|DICT|INTERRES
    81   39  164 1    
    82   40   41 2    
    83   40   42 1    
    84   42   43 1    
    85   42   44 1    
    86   42  165 1    
    87   43  166 1    
    88   43  167 1    
    89   43  168 1    
    90   44   45 am   BACKBONE|DICT|INTERRES
    91   44  169 1    
    92   45   46 2    
    93   45   47 1    
    94   47   48 1    
    95   47   49 1    
    96   47  170 1    
    97   48  171 1    
    98   48  172 1    
    99   48  173 1    
   100   49   50 am   BACKBONE|DICT|INTERRES
   101   49  174 1    
   102   50   51 2    
   103   50   52 1    
   104   52   53 1    
   105   52   54 1    
   106   52  175 1    
   107   53  176 1    
   108   53  177 1    
   109   53  178 1    
   110   54   55 am   BACKBONE|DICT|INTERRES
   111   54  179 1    
   112   55   56 2    
   113   55   57 1    
   114   57   58 1    
   115   57   59 1    
   116   57  180 1    
   117   58  181 1    
   118   58  182 1    
   119   58  183 1    
   120   59   60 am   BACKBONE|DICT|INTERRES
   121   59  184 1    
   122   60   61 2    
   123   60   62 1    
   124   62   63 1    
   125   62   64 1    
   126   62  185 1    
   127   63  186 1    
   128   63  187 1    
   129   63  188 1    
   130   64   65 am   BACKBONE|DICT|INTERRES
   131   64  189 1    
   132   65   66 2    
   133   67   68 2    
   134   67   69 am   BACKBONE|DICT|INTERRES
   135   69   70 1    
   136   69  190 1    
   137   70   71 1    
   138   70   72 1    
   139   70  191 1    
   140   71  192 1    
   141   71  193 1    
   142   71  194 1    
   143   72   73 2    
   144   72   74 am   BACKBONE|DICT|INTERRES
   145   74   75 1    
   146   74  195 1    
   147   75   76 1    
   148   75   77 1    
   149   75  196 1    
   150   76  197 1    
   151   76  198 1    
   152   76  199 1    
   153   77   78 2    
   154   77   79 am   BACKBONE|DICT|INTERRES
   155   79   80 1    
   156   79  200 1    
   157   80   81 1    
   158   80   82 1    
   159   80  201 1    
   160   81  202 1    
   161   81  203 1    
   162   81  204 1    
   163   82   83 2    
   164   82   84 am   BACKBONE|DICT|INTERRES
   165   84   85 1    
   166   84  205 1    
   167   85   86 1    
   168   85   87 1    
   169   85  206 1    
   170   86  207 1    
   171   86  208 1    
   172   86  209 1    
   173   87   88 2    
   174   87   89 am   BACKBONE|DICT|INTERRES
   175   89   90 1    
   176   89  210 1    
   177   90   91 1    
   178   90   92 1    
   179   90  211 1    
   180   91  212 1    
   181   91  213 1    
   182   91  214 1    
   183   92   93 2    
   184   92   94 am   BACKBONE|DICT|INTERRES
   185   94   95 1    
   186   94  215 1    
   187   95   96 1    
   188   95   97 1    
   189   95  216 1    
   190   96  217 1    
   191   96  218 1    
   192   96  219 1    
   193   97   98 2    
   194   97   99 am   BACKBONE|DICT|INTERRES
   195   99  100 1    
   196   99  220 1    
   197  100  101 1    
   198  100  102 1    
   199  100  221 1    
   200  101  222 1    
   201  101  223 1    
   202  101  224 1    
   203  102  103 2    
   204  102  104 am   BACKBONE|DICT|INTERRES
   205  104  105 1    
   206  104  225 1    
   207  105  106 1    
   208  105  107 1    
   209  105  226 1    
   210  106  227 1    
   211  106  228 1    
   212  106  229 1    
   213  107  108 2    
   214  107  109 am   BACKBONE|DICT|INTERRES
   215  109  110 1    
   216  109  230 1    
   217  110  111 1    
   218  110  112 1    
   219  110  231 1    
   220  111  232 1    
   221  111  233 1    
   222  111  234 1    
   223  112  113 2    
   224  112  114 am   BACKBONE|DICT|INTERRES
   225  114  115 1    
   226  114  235 1    
   227  115  116 1    
   228  115  117 1    
   229  115  236 1    
   230  116  237 1    
   231  116  238 1    
   232  116  239 1    
   233  117  118 2    
   234  117  119 am   BACKBONE|DICT|INTERRES
   235  119  120 1    
   236  119  240 1    
   237  120  121 1    
   238  120  124 1    
   239  120  241 1    
   240  121  122 am   BACKBONE|DICT|INTERRES
   241  121  123 2    
   242  122  242 1    
   243  122  243 1    
   244  124  125 1    
   245  124  244 1    
   246  124  245 1    
   247  125  126 1    
   248  126  246 1    
   249  126  247 1    
@<TRIPOS>SUBSTRUCTURE
     1 UNK         1 GROUP             0       ****    0 ROOT    
