@<TRIPOS>MOLECULE
3R540
247   249    1
SMALL
USER_CHARGES


@<TRIPOS>ATOM
      1 CA         -0.0136  -16.2009  -43.4546 C.3       0 UNK        -0.1800 
      2 C          -1.0330  -16.4753  -44.5482 C.2       0 UNK         0.5000 
      3 O          -2.2167  -16.6299  -44.2535 O.2       0 UNK        -0.5000 
      4 N          -0.5794  -16.5083  -45.8076 N.am      1 UNK        -0.5000 
      5 CA         -1.3795  -16.8262  -46.9993 C.3       1 UNK         0.1400 
      6 C6         -0.4879  -17.0176  -48.2474 C.3       23 UNK        -0.0398 
      7 S7          0.5181  -15.5538  -48.6880 S.3       23 UNK        -0.2404 
      8 C8          2.0070  -16.3112  -49.4194 C.3       23 UNK        -0.0205 
      9 C9          1.6722  -17.3811  -50.4492 C.ar      23 UNK        -0.0193 
     10 C10         1.0087  -17.0385  -51.6312 C.ar      23 UNK        -0.1150 
     11 C11         0.6728  -18.0219  -52.5647 C.ar      23 UNK        -0.0193 
     12 C12         1.0176  -19.3525  -52.3145 C.ar      23 UNK        -0.1150 
     13 C13         1.6926  -19.7064  -51.1439 C.ar      23 UNK        -0.0193 
     14 C14         2.0164  -18.7163  -50.2136 C.ar      23 UNK        -0.1150 
     15 C15         2.0858  -21.1551  -50.9022 C.3       23 UNK        -0.0205 
     16 S16         0.7257  -22.1086  -50.1630 S.3       23 UNK        -0.2404 
     17 C17         0.9502  -21.7827  -48.3802 C.3       23 UNK        -0.0398 
     18 CA          0.1507  -22.7901  -47.5147 C.3       11 UNK         0.1400 
     19 N           0.7200  -22.9660  -46.1752 N.am      11 UNK        -0.5000 
     20 C           0.3984  -23.9726  -45.3473 C.2       10 UNK         0.5000 
     21 O          -0.3893  -24.8718  -45.6379 O.2       10 UNK        -0.5000 
     22 CA          1.0140  -23.9384  -43.9367 C.3       10 UNK         0.1400 
     23 CB          2.4553  -24.4681  -43.9583 C.3       10 UNK        -0.1800 
     24 N           0.9936  -22.5972  -43.3531 N.am      10 UNK        -0.5000 
     25 C          -0.1237  -21.9140  -43.0662 C.2       9 UNK         0.5000 
     26 O          -1.2557  -22.3760  -43.1959 O.2       9 UNK        -0.5000 
     27 CA          0.0470  -20.4530  -42.6103 C.3       9 UNK         0.1400 
     28 CB          0.0789  -20.3678  -41.0782 C.3       9 UNK        -0.1800 
     29 N           1.2379  -19.8000  -43.1628 N.am      9 UNK        -0.5000 
     30 C           1.4686  -19.6030  -44.4702 C.2       8 UNK         0.5000 
     31 O           0.6911  -19.9608  -45.3584 O.2       8 UNK        -0.5000 
     32 CA          2.7844  -18.8922  -44.8295 C.3       8 UNK         0.1400 
     33 CB          2.7626  -18.2605  -46.2308 C.3       8 UNK        -0.1800 
     34 N           3.0995  -17.8687  -43.8334 N.am      8 UNK        -0.5000 
     35 C           4.2953  -17.6769  -43.2655 C.2       7 UNK         0.5000 
     36 O           5.3013  -18.3293  -43.5463 O.2       7 UNK        -0.5000 
     37 CA          4.3829  -16.5737  -42.1920 C.3       7 UNK         0.1400 
     38 CB          4.9567  -15.2853  -42.8004 C.3       7 UNK        -0.1800 
     39 N           3.1075  -16.2660  -41.5321 N.am      7 UNK        -0.5000 
     40 C           2.4519  -17.1003  -40.7084 C.2       6 UNK         0.5000 
     41 O           2.8011  -18.2671  -40.5248 O.2       6 UNK        -0.5000 
     42 CA          1.1820  -16.5711  -39.9982 C.3       6 UNK         0.1400 
     43 CB          1.0153  -17.1550  -38.5796 C.3       6 UNK        -0.1800 
     44 N           1.0622  -15.1079  -39.9826 N.am      6 UNK        -0.5000 
     45 C           1.8786  -14.2263  -39.3856 C.2       5 UNK         0.5000 
     46 O           2.8400  -14.5490  -38.6860 O.2       5 UNK        -0.5000 
     47 CA          1.5750  -12.7310  -39.6377 C.3       5 UNK         0.1400 
     48 CB          2.8360  -11.8516  -39.5065 C.3       5 UNK        -0.1800 
     49 N           0.9025  -12.4458  -40.9155 N.am      5 UNK        -0.5000 
     50 C           1.3247  -12.7597  -42.1485 C.2       4 UNK         0.5000 
     51 O           2.2870  -13.4951  -42.3730 O.2       4 UNK        -0.5000 
     52 CA          0.5005  -12.1855  -43.3187 C.3       4 UNK         0.1400 
     53 CB          1.2125  -12.3519  -44.6739 C.3       4 UNK        -0.1800 
     54 N          -0.8197  -12.8038  -43.4179 N.am      4 UNK        -0.5000 
     55 C          -1.8768  -12.5692  -42.6294 C.2       3 UNK         0.5000 
     56 O          -1.8470  -11.7984  -41.6681 O.2       3 UNK        -0.5000 
     57 CA         -3.1696  -13.3432  -42.9753 C.3       3 UNK         0.1400 
     58 CB         -4.4467  -12.6314  -42.4829 C.3       3 UNK        -0.1800 
     59 N          -3.2710  -13.6995  -44.3992 N.am      3 UNK        -0.5000 
     60 C          -3.3731  -12.8610  -45.4453 C.2       2 UNK         0.5000 
     61 O          -3.4406  -11.6361  -45.3373 O.2       2 UNK        -0.5000 
     62 CA         -3.3422  -13.5119  -46.8419 C.3       2 UNK         0.1400 
     63 CB         -3.0296  -12.5103  -47.9689 C.3       2 UNK        -0.1800 
     64 N          -2.3410  -14.5762  -46.8572 N.am      2 UNK        -0.5000 
     65 C          -2.5408  -15.8381  -47.2535 C.2       1 UNK         0.5000 
     66 O          -3.5887  -16.2448  -47.7555 O.2       1 UNK        -0.5000 
     67 C          -1.3395  -22.4100  -47.4366 C.2       11 UNK         0.5000 
     68 O          -2.1411  -22.9357  -48.2101 O.2       11 UNK        -0.5000 
     69 N          -1.6896  -21.5367  -46.4807 N.am      12 UNK        -0.5000 
     70 CA         -3.0661  -21.1292  -46.1920 C.3       12 UNK         0.1400 
     71 CB         -3.0649  -20.0552  -45.0921 C.3       12 UNK        -0.1800 
     72 C          -3.9615  -22.3141  -45.7807 C.2       12 UNK         0.5000 
     73 O          -5.0994  -22.4029  -46.2394 O.2       12 UNK        -0.5000 
     74 N          -3.4247  -23.2021  -44.9350 N.am      13 UNK        -0.5000 
     75 CA         -4.1117  -24.3853  -44.4304 C.3       13 UNK         0.1400 
     76 CB         -3.4169  -24.8680  -43.1465 C.3       13 UNK        -0.1800 
     77 C          -4.1926  -25.5184  -45.4672 C.2       13 UNK         0.5000 
     78 O          -5.2905  -25.9973  -45.7537 O.2       13 UNK        -0.5000 
     79 N          -3.0345  -25.9605  -45.9765 N.am      14 UNK        -0.5000 
     80 CA         -2.9205  -27.1975  -46.7512 C.3       14 UNK         0.1400 
     81 CB         -1.4995  -27.7635  -46.6035 C.3       14 UNK        -0.1800 
     82 C          -3.2702  -27.0305  -48.2372 C.2       14 UNK         0.5000 
     83 O          -3.8492  -27.9476  -48.8214 O.2       14 UNK        -0.5000 
     84 N          -2.8932  -25.8900  -48.8279 N.am      15 UNK        -0.5000 
     85 CA         -2.9969  -25.6404  -50.2682 C.3       15 UNK         0.1400 
     86 CB         -1.6085  -25.2355  -50.7912 C.3       15 UNK        -0.1800 
     87 C          -4.0396  -24.5654  -50.6152 C.2       15 UNK         0.5000 
     88 O          -4.2206  -24.2768  -51.7987 O.2       15 UNK        -0.5000 
     89 N          -4.6746  -23.9617  -49.5988 N.am      16 UNK        -0.5000 
     90 CA         -5.6026  -22.8281  -49.6961 C.3       16 UNK         0.1400 
     91 CB         -6.9199  -23.2594  -50.3747 C.3       16 UNK        -0.1800 
     92 C          -4.9527  -21.5945  -50.3606 C.2       16 UNK         0.5000 
     93 O          -5.5888  -20.9306  -51.1796 O.2       16 UNK        -0.5000 
     94 N          -3.6750  -21.3489  -50.0244 N.am      17 UNK        -0.5000 
     95 CA         -2.7774  -20.3543  -50.6237 C.3       17 UNK         0.1400 
     96 CB         -3.2452  -18.9199  -50.3036 C.3       17 UNK        -0.1800 
     97 C          -2.5838  -20.6078  -52.1324 C.2       17 UNK         0.5000 
     98 O          -2.7770  -19.7017  -52.9435 O.2       17 UNK        -0.5000 
     99 N          -2.2703  -21.8680  -52.4751 N.am      18 UNK        -0.5000 
    100 CA        -2.1572  -22.4179  -53.8325 C.3       18 UNK         0.1400 
    101 CB        -0.8820  -21.8980  -54.5191 C.3       18 UNK        -0.1800 
    102 C         -3.4371  -22.1756  -54.6586 C.2       18 UNK         0.5000 
    103 O         -3.3876  -21.5777  -55.7378 O.2       18 UNK        -0.5000 
    104 N         -4.5726  -22.5798  -54.0688 N.am      19 UNK        -0.5000 
    105 CA        -5.9533  -22.4118  -54.5410 C.3       19 UNK         0.1400 
    106 CB        -6.1926  -23.2907  -55.7857 C.3       19 UNK        -0.1800 
    107 C         -6.3734  -20.9425  -54.7786 C.2       19 UNK         0.5000 
    108 O         -7.3298  -20.6966  -55.5150 O.2       19 UNK        -0.5000 
    109 N         -5.6253  -19.9954  -54.1915 N.am      20 UNK        -0.5000 
    110 CA        -5.6515  -18.5462  -54.4162 C.3       20 UNK         0.1400 
    111 CB        -6.9990  -17.9410  -53.9729 C.3       20 UNK        -0.1800 
    112 C         -5.2576  -18.1306  -55.8537 C.2       20 UNK         0.5000 
    113 O         -5.4477  -16.9697  -56.2205 O.2       20 UNK        -0.5000 
    114 N         -4.7126  -19.0683  -56.6412 N.am      21 UNK        -0.5000 
    115 CA        -4.2864  -18.8648  -58.0229 C.3       21 UNK         0.1400 
    116 CB        -4.5658  -20.1442  -58.8274 C.3       21 UNK        -0.1800 
    117 C         -2.7976  -18.4962  -58.0900 C.2       21 UNK         0.5000 
    118 O         -2.4242  -17.6243  -58.8753 O.2       21 UNK        -0.5000 
    119 N         -1.9811  -19.1515  -57.2522 N.am      22 UNK        -0.5000 
    120 CA        -0.5292  -18.9327  -57.1255 C.3       22 UNK         0.1400 
    121 C          0.3220  -19.3751  -58.3569 C.2       22 UNK         0.5000 
    122 N         -0.2017  -20.1996  -59.2562 N.am      22 UNK        -0.7600 
    123 O          1.4817  -18.9942  -58.4912 O.2       22 UNK        -0.5000 
    124 C124       -0.1895  -17.5004  -56.6095 C.3       23 UNK        -0.0398 
    125 S125        1.0394  -17.5247  -55.2619 S.3       23 UNK        -0.2404 
    126 C126       -0.0782  -17.6568  -53.8338 C.3       23 UNK        -0.0205 
    127 H127        0.8950  -15.7461  -43.8497 H         1 UNK         0.0600 
    128 H128        0.2446  -17.1350  -42.9600 H         1 UNK         0.0600 
    129 H129       -0.4333  -15.5288  -42.7074 H         1 UNK         0.0600 
    130 H130        0.3969  -16.3299  -45.9909 H         1 UNK         0.3000 
    131 H131       -1.8521  -17.7901  -46.8102 H         1 UNK         0.0600 
    132 H132       -1.0905  -17.2908  -49.1134 H         1 UNK         0.0800 
    133 H133        0.1757  -17.8656  -48.0738 H         1 UNK         0.0800 
    134 H134        2.6279  -16.7206  -48.6228 H         1 UNK         0.0800 
    135 H135        2.6017  -15.5308  -49.8958 H         1 UNK         0.0800 
    136 H136        0.7411  -16.0072  -51.8143 H         1 UNK         0.1150 
    137 H137        0.7654  -20.1143  -53.0363 H         1 UNK         0.1150 
    138 H138        2.5388  -18.9878  -49.3084 H         1 UNK         0.1150 
    139 H139        2.3560  -21.6180  -51.8525 H         1 UNK         0.0800 
    140 H140        2.9766  -21.2160  -50.2754 H         1 UNK         0.0800 
    141 H141        2.0145  -21.8769  -48.1610 H         1 UNK         0.0800 
    142 H142        0.6850  -20.7477  -48.1545 H         1 UNK         0.0800 
    143 H143        0.2057  -23.7676  -48.0001 H         1 UNK         0.0600 
    144 H144        1.3146  -22.2248  -45.8344 H         1 UNK         0.3000 
    145 H145        0.4182  -24.5939  -43.2978 H         1 UNK         0.0600 
    146 H146        2.8704  -24.5211  -42.9516 H         1 UNK         0.0600 
    147 H147        3.1106  -23.8362  -44.5591 H         1 UNK         0.0600 
    148 H148        2.4942  -25.4744  -44.3777 H         1 UNK         0.0600 
    149 H149        1.8845  -22.1476  -43.2044 H         1 UNK         0.3000 
    150 H150       -0.8253  -19.8988  -42.9619 H         1 UNK         0.0600 
    151 H151       -0.7820  -20.8735  -40.6386 H         1 UNK         0.0600 
    152 H152        0.0478  -19.3328  -40.7424 H         1 UNK         0.0600 
    153 H153        0.9777  -20.8286  -40.6666 H         1 UNK         0.0600 
    154 H154        1.9367  -19.4989  -42.4959 H         1 UNK         0.3000 
    155 H155        3.5503  -19.6701  -44.8224 H         1 UNK         0.0600 
    156 H156        2.5329  -19.0056  -46.9923 H         1 UNK         0.0600 
    157 H157        3.7322  -17.8303  -46.4813 H         1 UNK         0.0600 
    158 H158        2.0181  -17.4696  -46.3030 H         1 UNK         0.0600 
    159 H159        2.3362  -17.2874  -43.5234 H         1 UNK         0.3000 
    160 H160        5.0763  -16.9229  -41.4242 H         1 UNK         0.0600 
    161 H161        4.3125  -14.8922  -43.5881 H         1 UNK         0.0600 
    162 H162        5.9398  -15.4625  -43.2384 H         1 UNK         0.0600 
    163 H163        5.0725  -14.5086  -42.0441 H         1 UNK         0.0600 
    164 H164        2.7609  -15.3191  -41.6559 H         1 UNK         0.3000 
    165 H165        0.3385  -16.9283  -40.5881 H         1 UNK         0.0600 
    166 H166        0.1105  -16.7790  -38.1020 H         1 UNK         0.0600 
    167 H167        0.9356  -18.2422  -38.6082 H         1 UNK         0.0600 
    168 H168        1.8610  -16.9101  -37.9368 H         1 UNK         0.0600 
    169 H169        0.3069  -14.7249  -40.5318 H         1 UNK         0.3000 
    170 H170        0.8791  -12.4307  -38.8532 H         1 UNK         0.0600 
    171 H171        3.6010  -12.1356  -40.2302 H         1 UNK         0.0600 
    172 H172        2.6008  -10.7989  -39.6632 H         1 UNK         0.0600 
    173 H173        3.2763  -11.9375  -38.5124 H         1 UNK         0.0600 
    174 H174        0.0362  -11.9201  -40.8501 H         1 UNK         0.3000 
    175 H175        0.3740  -11.1160  -43.1375 H         1 UNK         0.0600 
    176 H176        1.3473  -13.4019  -44.9369 H         1 UNK         0.0600 
    177 H177        0.6491  -11.8753  -45.4764 H         1 UNK         0.0600 
    178 H178        2.2005  -11.8900  -44.6546 H         1 UNK         0.0600 
    179 H179       -0.9461  -13.4518  -44.1771 H         1 UNK         0.3000 
    180 H180       -3.0990  -14.2896  -42.4373 H         1 UNK         0.0600 
    181 H181       -4.5491  -11.6345  -42.9122 H         1 UNK         0.0600 
    182 H182       -4.4371  -12.5179  -41.3983 H         1 UNK         0.0600 
    183 H183       -5.3396  -13.2013  -42.7395 H         1 UNK         0.0600 
    184 H184       -3.2135  -14.6932  -44.5941 H         1 UNK         0.3000 
    185 H185       -4.3391  -13.9227  -47.0137 H         1 UNK         0.0600 
    186 H186       -2.0588  -12.0344  -47.8253 H         1 UNK         0.0600 
    187 H187       -3.0189  -13.0044  -48.9406 H         1 UNK         0.0600 
    188 H188       -3.7820  -11.7221  -48.0150 H         1 UNK         0.0600 
    189 H189       -1.4328  -14.3390  -46.4871 H         1 UNK         0.3000 
    190 H190       -0.9596  -21.1295  -45.9068 H         1 UNK         0.3000 
    191 H191       -3.4745  -20.6880  -47.1035 H         1 UNK         0.0600 
    192 H192       -2.2824  -19.3156  -45.2481 H         1 UNK         0.0600 
    193 H193       -2.9102  -20.4846  -44.1026 H         1 UNK         0.0600 
    194 H194       -4.0181  -19.5262  -45.0678 H         1 UNK         0.0600 
    195 H195       -2.5036  -23.0142  -44.5506 H         1 UNK         0.3000 
    196 H196       -5.1333  -24.1034  -44.1664 H         1 UNK         0.0600 
    197 H197       -3.4541  -24.1035  -42.3701 H         1 UNK         0.0600 
    198 H198       -2.3681  -25.1125  -43.3200 H         1 UNK         0.0600 
    199 H199       -3.9026  -25.7597  -42.7485 H         1 UNK         0.0600 
    200 H200       -2.1615  -25.5012  -45.7269 H         1 UNK         0.3000 
    201 H201       -3.6091  -27.9347  -46.3318 H         1 UNK         0.0600 
    202 H202       -1.2362  -27.9042  -45.5550 H         1 UNK         0.0600 
    203 H203       -0.7538  -27.1058  -47.0516 H         1 UNK         0.0600 
    204 H204       -1.4142  -28.7340  -47.0939 H         1 UNK         0.0600 
    205 H205       -2.4494  -25.1663  -48.2759 H         1 UNK         0.3000 
    206 H206       -3.2977  -26.5459  -50.7985 H         1 UNK         0.0600 
    207 H207       -1.2681  -24.3013  -50.3470 H         1 UNK         0.0600 
    208 H208       -1.6164  -25.1036  -51.8734 H         1 UNK         0.0600 
    209 H209       -0.8654  -26.0008  -50.5668 H         1 UNK         0.0600 
    210 H210       -4.4334  -24.2516  -48.6618 H         1 UNK         0.3000 
    211 H211       -5.8468  -22.5300  -48.6779 H         1 UNK         0.0600 
    212 H212       -6.7697  -23.5383  -51.4174 H         1 UNK         0.0600 
    213 H213       -7.6529  -22.4522  -50.3546 H         1 UNK         0.0600 
    214 H214       -7.3643  -24.1121  -49.8616 H         1 UNK         0.0600 
    215 H215       -3.2351  -21.9835  -49.3611 H         1 UNK         0.3000 
    216 H216       -1.8005  -20.4897  -50.1588 H         1 UNK         0.0600 
    217 H217       -2.5479  -18.1859  -50.7084 H         1 UNK         0.0600 
    218 H218       -3.3076  -18.7566  -49.2278 H         1 UNK         0.0600 
    219 H219       -4.2232  -18.7021  -50.7332 H         1 UNK         0.0600 
    220 H220       -2.1810  -22.5425  -51.7299 H         1 UNK         0.3000 
    221 H221       -2.0600  -23.4994  -53.7312 H         1 UNK         0.0600 
    222 H222       -0.8884  -20.8123  -54.5863 H         1 UNK         0.0600 
    223 H223        0.0083  -22.1965  -53.9659 H         1 UNK         0.0600 
    224 H224       -0.7850  -22.2947  -55.5303 H         1 UNK         0.0600 
    225 H225       -4.4828  -23.0679  -53.1791 H         1 UNK         0.3000 
    226 H226       -6.5947  -22.7828  -53.7411 H         1 UNK         0.0600 
    227 H227       -5.9020  -24.3246  -55.5996 H         1 UNK         0.0600 
    228 H228       -7.2464  -23.2983  -56.0664 H         1 UNK         0.0600 
    229 H229       -5.6272  -22.9325  -56.6467 H         1 UNK         0.0600 
    230 H230       -4.8717  -20.3084  -53.5913 H         1 UNK         0.3000 
    231 H231       -4.8795  -18.1335  -53.7657 H         1 UNK         0.0600 
    232 H232       -6.9584  -16.8513  -53.9778 H         1 UNK         0.0600 
    233 H233       -7.2539  -18.2502  -52.9590 H         1 UNK         0.0600 
    234 H234       -7.8154  -18.2384  -54.6312 H         1 UNK         0.0600 
    235 H235       -4.5355  -19.9860  -56.2466 H         1 UNK         0.3000 
    236 H236       -4.8594  -18.0513  -58.4729 H         1 UNK         0.0600 
    237 H237       -4.0248  -21.0025  -58.4269 H         1 UNK         0.0600 
    238 H238       -5.6283  -20.3879  -58.8186 H         1 UNK         0.0600 
    239 H239       -4.2679  -20.0231  -59.8697 H         1 UNK         0.0600 
    240 H240       -2.3759  -19.8741  -56.6613 H         1 UNK         0.3000 
    241 H241       -0.2309  -19.6424  -56.3571 H         1 UNK         0.0600 
    242 H242        0.3540  -20.4904  -60.0454 H         1 UNK         0.3800 
    243 H243       -1.1467  -20.5337  -59.1577 H         1 UNK         0.3800 
    244 H244       -1.0823  -16.9974  -56.2350 H         1 UNK         0.0800 
    245 H245        0.1759  -16.8614  -57.4152 H         1 UNK         0.0800 
    246 H246       -0.8330  -18.4157  -54.0378 H         1 UNK         0.0800 
    247 H247       -0.6164  -16.7167  -53.7041 H         1 UNK         0.0800 
@<TRIPOS>BOND
     1    1    2 1    
     2    1  127 1    
     3    1  128 1    
     4    1  129 1    
     5    2    3 2    
     6    2    4 am   BACKBONE|DICT|INTERRES
     7    4    5 1    
     8    4  130 1    
     9    5    6 1    
    10    5   65 1    
    11    5  131 1    
    12    6    7 1    
    13    6  132 1    
    14    6  133 1    
    15    7    8 1    
    16    8    9 1    
    17    8  134 1    
    18    8  135 1    
    19    9   10 ar   
    20    9   14 ar   
    21   10   11 ar   
    22   10  136 1    
    23   11   12 ar   
    24   11  126 1    
    25   12   13 ar   
    26   12  137 1    
    27   13   14 ar   
    28   13   15 1    
    29   14  138 1    
    30   15   16 1    
    31   15  139 1    
    32   15  140 1    
    33   16   17 1    
    34   17   18 1    
    35   17  141 1    
    36   17  142 1    
    37   18   19 1    
    38   18   67 1    
    39   18  143 1    
    40   19   20 am   BACKBONE|DICT|INTERRES
    41   19  144 1    
    42   20   21 2    
    43   20   22 1    
    44   22   23 1    
    45   22   24 1    
    46   22  145 1    
    47   23  146 1    
    48   23  147 1    
    49   23  148 1    
    50   24   25 am   BACKBONE|DICT|INTERRES
    51   24  149 1    
    52   25   26 2    
    53   25   27 1    
    54   27   28 1    
    55   27   29 1    
    56   27  150 1    
    57   28  151 1    
    58   28  152 1    
    59   28  153 1    
    60   29   30 am   BACKBONE|DICT|INTERRES
    61   29  154 1    
    62   30   31 2    
    63   30   32 1    
    64   32   33 1    
    65   32   34 1    
    66   32  155 1    
    67   33  156 1    
    68   33  157 1    
    69   33  158 1    
    70   34   35 am   BACKBONE|DICT|INTERRES
    71   34  159 1    
    72   35   36 2    
    73   35   37 1    
    74   37   38 1    
    75   37   39 1    
    76   37  160 1    
    77   38  161 1    
    78   38  162 1    
    79   38  163 1    
    80   39   40 am   BACKBONE|DICT|INTERRES
    81   39  164 1    
    82   40   41 2    
    83   40   42 1    
    84   42   43 1    
    85   42   44 1    
    86   42  165 1    
    87   43  166 1    
    88   43  167 1    
    89   43  168 1    
    90   44   45 am   BACKBONE|DICT|INTERRES
    91   44  169 1    
    92   45   46 2    
    93   45   47 1    
    94   47   48 1    
    95   47   49 1    
    96   47  170 1    
    97   48  171 1    
    98   48  172 1    
    99   48  173 1    
   100   49   50 am   BACKBONE|DICT|INTERRES
   101   49  174 1    
   102   50   51 2    
   103   50   52 1    
   104   52   53 1    
   105   52   54 1    
   106   52  175 1    
   107   53  176 1    
   108   53  177 1    
   109   53  178 1    
   110   54   55 am   BACKBONE|DICT|INTERRES
   111   54  179 1    
   112   55   56 2    
   113   55   57 1    
   114   57   58 1    
   115   57   59 1    
   116   57  180 1    
   117   58  181 1    
   118   58  182 1    
   119   58  183 1    
   120   59   60 am   BACKBONE|DICT|INTERRES
   121   59  184 1    
   122   60   61 2    
   123   60   62 1    
   124   62   63 1    
   125   62   64 1    
   126   62  185 1    
   127   63  186 1    
   128   63  187 1    
   129   63  188 1    
   130   64   65 am   BACKBONE|DICT|INTERRES
   131   64  189 1    
   132   65   66 2    
   133   67   68 2    
   134   67   69 am   BACKBONE|DICT|INTERRES
   135   69   70 1    
   136   69  190 1    
   137   70   71 1    
   138   70   72 1    
   139   70  191 1    
   140   71  192 1    
   141   71  193 1    
   142   71  194 1    
   143   72   73 2    
   144   72   74 am   BACKBONE|DICT|INTERRES
   145   74   75 1    
   146   74  195 1    
   147   75   76 1    
   148   75   77 1    
   149   75  196 1    
   150   76  197 1    
   151   76  198 1    
   152   76  199 1    
   153   77   78 2    
   154   77   79 am   BACKBONE|DICT|INTERRES
   155   79   80 1    
   156   79  200 1    
   157   80   81 1    
   158   80   82 1    
   159   80  201 1    
   160   81  202 1    
   161   81  203 1    
   162   81  204 1    
   163   82   83 2    
   164   82   84 am   BACKBONE|DICT|INTERRES
   165   84   85 1    
   166   84  205 1    
   167   85   86 1    
   168   85   87 1    
   169   85  206 1    
   170   86  207 1    
   171   86  208 1    
   172   86  209 1    
   173   87   88 2    
   174   87   89 am   BACKBONE|DICT|INTERRES
   175   89   90 1    
   176   89  210 1    
   177   90   91 1    
   178   90   92 1    
   179   90  211 1    
   180   91  212 1    
   181   91  213 1    
   182   91  214 1    
   183   92   93 2    
   184   92   94 am   BACKBONE|DICT|INTERRES
   185   94   95 1    
   186   94  215 1    
   187   95   96 1    
   188   95   97 1    
   189   95  216 1    
   190   96  217 1    
   191   96  218 1    
   192   96  219 1    
   193   97   98 2    
   194   97   99 am   BACKBONE|DICT|INTERRES
   195   99  100 1    
   196   99  220 1    
   197  100  101 1    
   198  100  102 1    
   199  100  221 1    
   200  101  222 1    
   201  101  223 1    
   202  101  224 1    
   203  102  103 2    
   204  102  104 am   BACKBONE|DICT|INTERRES
   205  104  105 1    
   206  104  225 1    
   207  105  106 1    
   208  105  107 1    
   209  105  226 1    
   210  106  227 1    
   211  106  228 1    
   212  106  229 1    
   213  107  108 2    
   214  107  109 am   BACKBONE|DICT|INTERRES
   215  109  110 1    
   216  109  230 1    
   217  110  111 1    
   218  110  112 1    
   219  110  231 1    
   220  111  232 1    
   221  111  233 1    
   222  111  234 1    
   223  112  113 2    
   224  112  114 am   BACKBONE|DICT|INTERRES
   225  114  115 1    
   226  114  235 1    
   227  115  116 1    
   228  115  117 1    
   229  115  236 1    
   230  116  237 1    
   231  116  238 1    
   232  116  239 1    
   233  117  118 2    
   234  117  119 am   BACKBONE|DICT|INTERRES
   235  119  120 1    
   236  119  240 1    
   237  120  121 1    
   238  120  124 1    
   239  120  241 1    
   240  121  122 am   BACKBONE|DICT|INTERRES
   241  121  123 2    
   242  122  242 1    
   243  122  243 1    
   244  124  125 1    
   245  124  244 1    
   246  124  245 1    
   247  125  126 1    
   248  126  246 1    
   249  126  247 1    
@<TRIPOS>SUBSTRUCTURE
     1 UNK         1 GROUP             0       ****    0 ROOT    
