@<TRIPOS>MOLECULE
3R540
247   249    1
SMALL
USER_CHARGES


@<TRIPOS>ATOM
      1 CA          1.3347  -11.7091  -46.8618 C.3       0 UNK        -0.1800 
      2 C           1.5939  -11.9982  -48.3395 C.2       0 UNK         0.5000 
      3 O           1.9880  -11.0911  -49.0685 O.2       0 UNK        -0.5000 
      4 N           1.3891  -13.2275  -48.8336 N.am      1 UNK        -0.5000 
      5 CA          0.9107  -14.4106  -48.1017 C.3       1 UNK         0.1400 
      6 C6          1.4636  -15.7254  -48.7016 C.3       23 UNK        -0.0398 
      7 S7          3.2832  -15.7939  -48.6288 S.3       23 UNK        -0.2404 
      8 C8          3.7000  -16.3078  -50.3290 C.3       23 UNK        -0.0205 
      9 C9          3.2994  -17.7469  -50.6409 C.ar      23 UNK        -0.0193 
     10 C10         2.6533  -18.0523  -51.8428 C.ar      23 UNK        -0.1150 
     11 C11         2.3209  -19.3746  -52.1608 C.ar      23 UNK        -0.0193 
     12 C12         2.6463  -20.3936  -51.2596 C.ar      23 UNK        -0.1150 
     13 C13         3.2995  -20.1087  -50.0527 C.ar      23 UNK        -0.0193 
     14 C14         3.6225  -18.7822  -49.7582 C.ar      23 UNK        -0.1150 
     15 C15         3.7341  -21.1963  -49.0682 C.3       23 UNK        -0.0205 
     16 S16         2.8130  -22.7665  -49.1748 S.3       23 UNK        -0.2404 
     17 C17         1.1796  -22.2735  -48.5344 C.3       23 UNK        -0.0398 
     18 CA          0.6083  -23.3479  -47.5850 C.3       11 UNK         0.1400 
     19 N           1.4007  -23.5089  -46.3657 N.am      11 UNK        -0.5000 
     20 C           1.3587  -24.6032  -45.5935 C.2       10 UNK         0.5000 
     21 O           0.6590  -25.5830  -45.8460 O.2       10 UNK        -0.5000 
     22 CA          2.1897  -24.5841  -44.2967 C.3       10 UNK         0.1400 
     23 CB          3.5884  -25.1655  -44.5476 C.3       10 UNK        -0.1800 
     24 N           2.3208  -23.2495  -43.7102 N.am      10 UNK        -0.5000 
     25 C           1.2987  -22.4758  -43.3210 C.2       9 UNK         0.5000 
     26 O           0.1197  -22.8281  -43.3875 O.2       9 UNK        -0.5000 
     27 CA          1.6380  -21.0581  -42.8229 C.3       9 UNK         0.1400 
     28 CB          3.1141  -20.8736  -42.4075 C.3       9 UNK        -0.1800 
     29 N           1.2576  -20.0321  -43.7959 N.am      9 UNK        -0.5000 
     30 C           1.6490  -19.9160  -45.0738 C.2       8 UNK         0.5000 
     31 O           2.3519  -20.7425  -45.6565 O.2       8 UNK        -0.5000 
     32 CA          1.1847  -18.6534  -45.8265 C.3       8 UNK         0.1400 
     33 CB         -0.1920  -18.8688  -46.4683 C.3       8 UNK        -0.1800 
     34 N           1.1233  -17.4774  -44.9575 N.am      8 UNK        -0.5000 
     35 C           2.1950  -16.7996  -44.5229 C.2       7 UNK         0.5000 
     36 O           3.3486  -17.0372  -44.8803 O.2       7 UNK        -0.5000 
     37 CA          1.9350  -15.6848  -43.4937 C.3       7 UNK         0.1400 
     38 CB          1.5640  -14.3657  -44.1874 C.3       7 UNK        -0.1800 
     39 N           0.8833  -16.0564  -42.5458 N.am      7 UNK        -0.5000 
     40 C           1.0771  -16.8839  -41.5069 C.2       6 UNK         0.5000 
     41 O           2.1732  -17.3619  -41.2148 O.2       6 UNK        -0.5000 
     42 CA         -0.1480  -17.2520  -40.6450 C.3       6 UNK         0.1400 
     43 CB         -0.2079  -16.3632  -39.3935 C.3       6 UNK        -0.1800 
     44 N          -1.4244  -17.1552  -41.3533 N.am      6 UNK        -0.5000 
     45 C          -1.7886  -17.9138  -42.3960 C.2       5 UNK         0.5000 
     46 O          -1.0888  -18.8093  -42.8637 O.2       5 UNK        -0.5000 
     47 CA         -3.1341  -17.5747  -43.0649 C.3       5 UNK         0.1400 
     48 CB         -4.2608  -18.4284  -42.4650 C.3       5 UNK        -0.1800 
     49 N          -3.4963  -16.1567  -42.9645 N.am      5 UNK        -0.5000 
     50 C          -2.7713  -15.1480  -43.4647 C.2       4 UNK         0.5000 
     51 O          -1.6992  -15.2993  -44.0549 O.2       4 UNK        -0.5000 
     52 CA         -3.2910  -13.7336  -43.1984 C.3       4 UNK         0.1400 
     53 CB         -2.6761  -13.1750  -41.9011 C.3       4 UNK        -0.1800 
     54 N          -2.9351  -12.8919  -44.3332 N.am      4 UNK        -0.5000 
     55 C          -3.4969  -11.7147  -44.6277 C.2       3 UNK         0.5000 
     56 O          -4.3750  -11.1856  -43.9447 O.2       3 UNK        -0.5000 
     57 CA         -3.0032  -11.0029  -45.9012 C.3       3 UNK         0.1400 
     58 CB         -1.8402  -10.0564  -45.5648 C.3       3 UNK        -0.1800 
     59 N          -2.5862  -11.9090  -46.9747 N.am      3 UNK        -0.5000 
     60 C          -3.3960  -12.7441  -47.6426 C.2       2 UNK         0.5000 
     61 O          -4.5887  -12.8981  -47.3798 O.2       2 UNK        -0.5000 
     62 CA         -2.7818  -13.5128  -48.8284 C.3       2 UNK         0.1400 
     63 CB         -3.1880  -12.8457  -50.1517 C.3       2 UNK        -0.1800 
     64 N          -1.3199  -13.5915  -48.7737 N.am      2 UNK        -0.5000 
     65 C          -0.6314  -14.4609  -48.0197 C.2       1 UNK         0.5000 
     66 O          -1.1676  -15.2855  -47.2831 O.2       1 UNK        -0.5000 
     67 C          -0.8824  -23.1053  -47.2777 C.2       11 UNK         0.5000 
     68 O          -1.7207  -23.5234  -48.0737 O.2       11 UNK        -0.5000 
     69 N          -1.2125  -22.4981  -46.1262 N.am      12 UNK        -0.5000 
     70 CA         -2.5984  -22.3814  -45.6606 C.3       12 UNK         0.1400 
     71 CB         -2.7260  -21.3135  -44.5651 C.3       12 UNK        -0.1800 
     72 C          -3.1495  -23.7331  -45.1811 C.2       12 UNK         0.5000 
     73 O          -4.2949  -24.0596  -45.4909 O.2       12 UNK        -0.5000 
     74 N          -2.3096  -24.5179  -44.4901 N.am      13 UNK        -0.5000 
     75 CA         -2.6195  -25.8851  -44.0624 C.3       13 UNK         0.1400 
     76 CB         -1.5146  -26.3927  -43.1236 C.3       13 UNK        -0.1800 
     77 C          -2.8259  -26.8491  -45.2491 C.2       13 UNK         0.5000 
     78 O          -3.7219  -27.6923  -45.2005 O.2       13 UNK        -0.5000 
     79 N          -2.0205  -26.6793  -46.3067 N.am      14 UNK        -0.5000 
     80 CA         -2.1204  -27.4142  -47.5701 C.3       14 UNK         0.1400 
     81 CB         -0.7816  -27.2940  -48.3154 C.3       14 UNK        -0.1800 
     82 C          -3.2741  -26.9415  -48.4806 C.2       14 UNK         0.5000 
     83 O          -3.5746  -27.6270  -49.4586 O.2       14 UNK        -0.5000 
     84 N          -3.8777  -25.7846  -48.1649 N.am      15 UNK        -0.5000 
     85 CA         -4.9060  -25.0737  -48.9345 C.3       15 UNK         0.1400 
     86 CB         -6.2196  -25.8812  -48.9856 C.3       15 UNK        -0.1800 
     87 C          -4.4002  -24.6336  -50.3265 C.2       15 UNK         0.5000 
     88 O          -5.1099  -24.7663  -51.3250 O.2       15 UNK        -0.5000 
     89 N          -3.1681  -24.1161  -50.3538 N.am      16 UNK        -0.5000 
     90 CA         -2.4398  -23.6559  -51.5330 C.3       16 UNK         0.1400 
     91 CB         -1.4189  -24.7337  -51.9410 C.3       16 UNK        -0.1800 
     92 C          -1.7819  -22.2930  -51.2458 C.2       16 UNK         0.5000 
     93 O          -0.6756  -22.0278  -51.7146 O.2       16 UNK        -0.5000 
     94 N          -2.4644  -21.4580  -50.4530 N.am      17 UNK        -0.5000 
     95 CA         -2.0492  -20.1015  -50.1042 C.3       17 UNK         0.1400 
     96 CB         -2.7435  -19.7097  -48.7895 C.3       17 UNK        -0.1800 
     97 C          -2.4145  -19.0974  -51.2104 C.2       17 UNK         0.5000 
     98 O          -3.2704  -19.3834  -52.0517 O.2       17 UNK        -0.5000 
     99 N          -1.8163  -17.9010  -51.1396 N.am      18 UNK        -0.5000 
    100 CA        -2.0786  -16.7766  -52.0481 C.3       18 UNK         0.1400 
    101 CB        -0.9751  -15.7231  -51.8736 C.3       18 UNK        -0.1800 
    102 C         -3.4748  -16.1455  -51.8796 C.2       18 UNK         0.5000 
    103 O         -3.9098  -15.3972  -52.7542 O.2       18 UNK        -0.5000 
    104 N         -4.1613  -16.4723  -50.7752 N.am      19 UNK        -0.5000 
    105 CA        -5.5824  -16.1910  -50.5649 C.3       19 UNK         0.1400 
    106 CB        -5.9132  -16.4024  -49.0792 C.3       19 UNK        -0.1800 
    107 C         -6.4982  -17.0609  -51.4556 C.2       19 UNK         0.5000 
    108 O         -7.6519  -16.6903  -51.6762 O.2       19 UNK        -0.5000 
    109 N         -5.9693  -18.1892  -51.9485 N.am      20 UNK        -0.5000 
    110 CA        -6.5879  -19.0782  -52.9243 C.3       20 UNK         0.1400 
    111 CB        -6.5685  -20.5148  -52.3608 C.3       20 UNK        -0.1800 
    112 C         -5.8444  -18.9298  -54.2694 C.2       20 UNK         0.5000 
    113 O         -5.4390  -17.8222  -54.6273 O.2       20 UNK        -0.5000 
    114 N         -5.6818  -20.0363  -55.0043 N.am      21 UNK        -0.5000 
    115 CA        -5.0359  -20.0831  -56.3196 C.3       21 UNK         0.1400 
    116 CB        -5.6656  -21.2357  -57.1207 C.3       21 UNK        -0.1800 
    117 C         -3.5006  -20.2404  -56.2580 C.2       21 UNK         0.5000 
    118 O         -2.8654  -20.2955  -57.3118 O.2       21 UNK        -0.5000 
    119 N         -2.9287  -20.3453  -55.0500 N.am      22 UNK        -0.5000 
    120 CA        -1.5124  -20.6627  -54.7861 C.3       22 UNK         0.1400 
    121 C         -1.0890  -22.1177  -55.1686 C.2       22 UNK         0.5000 
    122 N         -2.0190  -23.0460  -55.3644 N.am      22 UNK        -0.7600 
    123 O          0.0951  -22.4257  -55.2697 O.2       22 UNK        -0.5000 
    124 C124       -0.5168  -19.5668  -55.2886 C.3       23 UNK        -0.0398 
    125 S125        0.2570  -18.6555  -53.9112 S.3       23 UNK        -0.2404 
    126 C126        1.6657  -19.7304  -53.4940 C.3       23 UNK        -0.0205 
    127 H127        2.1928  -12.0179  -46.2655 H         1 UNK         0.0600 
    128 H128        0.4485  -12.2173  -46.4857 H         1 UNK         0.0600 
    129 H129        1.1883  -10.6400  -46.7065 H         1 UNK         0.0600 
    130 H130        1.6024  -13.3861  -49.8079 H         1 UNK         0.3000 
    131 H131        1.2751  -14.3603  -47.0760 H         1 UNK         0.0600 
    132 H132        1.0897  -16.5898  -48.1527 H         1 UNK         0.0800 
    133 H133        1.1312  -15.8507  -49.7325 H         1 UNK         0.0800 
    134 H134        3.2418  -15.6125  -51.0340 H         1 UNK         0.0800 
    135 H135        4.7782  -16.2154  -50.4644 H         1 UNK         0.0800 
    136 H136        2.4233  -17.2620  -52.5434 H         1 UNK         0.1150 
    137 H137        2.4063  -21.4147  -51.5184 H         1 UNK         0.1150 
    138 H138        4.1459  -18.5542  -48.8401 H         1 UNK         0.1150 
    139 H139        4.7884  -21.4101  -49.2471 H         1 UNK         0.0800 
    140 H140        3.6680  -20.8230  -48.0451 H         1 UNK         0.0800 
    141 H141        0.5266  -22.1263  -49.3936 H         1 UNK         0.0800 
    142 H142        1.2504  -21.3083  -48.0346 H         1 UNK         0.0800 
    143 H143        0.6484  -24.2953  -48.1264 H         1 UNK         0.0600 
    144 H144        1.9745  -22.7194  -46.0864 H         1 UNK         0.3000 
    145 H145        1.6788  -25.2174  -43.5688 H         1 UNK         0.0600 
    146 H146        4.1598  -25.2342  -43.6217 H         1 UNK         0.0600 
    147 H147        4.1573  -24.5553  -45.2504 H         1 UNK         0.0600 
    148 H148        3.5238  -26.1718  -44.9639 H         1 UNK         0.0600 
    149 H149        3.2543  -22.8689  -43.6564 H         1 UNK         0.3000 
    150 H150        1.0211  -20.8888  -41.9391 H         1 UNK         0.0600 
    151 H151        3.4101  -21.6131  -41.6623 H         1 UNK         0.0600 
    152 H152        3.2679  -19.8911  -41.9611 H         1 UNK         0.0600 
    153 H153        3.7976  -20.9563  -43.2533 H         1 UNK         0.0600 
    154 H154        0.5621  -19.3714  -43.4572 H         1 UNK         0.3000 
    155 H155        1.9061  -18.4645  -46.6248 H         1 UNK         0.0600 
    156 H156       -0.9718  -18.9416  -45.7132 H         1 UNK         0.0600 
    157 H157       -0.2178  -19.7803  -47.0638 H         1 UNK         0.0600 
    158 H158       -0.4543  -18.0412  -47.1260 H         1 UNK         0.0600 
    159 H159        0.2116  -17.2098  -44.6138 H         1 UNK         0.3000 
    160 H160        2.8624  -15.5179  -42.9411 H         1 UNK         0.0600 
    161 H161        0.6560  -14.4612  -44.7821 H         1 UNK         0.0600 
    162 H162        2.3646  -14.0446  -44.8543 H         1 UNK         0.0600 
    163 H163        1.4056  -13.5681  -43.4616 H         1 UNK         0.0600 
    164 H164       -0.0519  -15.7276  -42.7543 H         1 UNK         0.3000 
    165 H165       -0.0215  -18.2884  -40.3248 H         1 UNK         0.0600 
    166 H166       -1.0186  -16.6675  -38.7311 H         1 UNK         0.0600 
    167 H167        0.7188  -16.4295  -38.8217 H         1 UNK         0.0600 
    168 H168       -0.3598  -15.3144  -39.6522 H         1 UNK         0.0600 
    169 H169       -2.0624  -16.4394  -41.0396 H         1 UNK         0.3000 
    170 H170       -3.0413  -17.8218  -44.1246 H         1 UNK         0.0600 
    171 H171       -4.4423  -18.1781  -41.4190 H         1 UNK         0.0600 
    172 H172       -4.0147  -19.4898  -42.5076 H         1 UNK         0.0600 
    173 H173       -5.1940  -18.2902  -43.0113 H         1 UNK         0.0600 
    174 H174       -4.3569  -15.9482  -42.4786 H         1 UNK         0.3000 
    175 H175       -4.3787  -13.7690  -43.1065 H         1 UNK         0.0600 
    176 H176       -1.5894  -13.1076  -41.9698 H         1 UNK         0.0600 
    177 H177       -3.0581  -12.1798  -41.6743 H         1 UNK         0.0600 
    178 H178       -2.9131  -13.8119  -41.0480 H         1 UNK         0.0600 
    179 H179       -2.2432  -13.2931  -44.9538 H         1 UNK         0.3000 
    180 H180       -3.8315  -10.4013  -46.2815 H         1 UNK         0.0600 
    181 H181       -1.5087   -9.5048  -46.4448 H         1 UNK         0.0600 
    182 H182       -0.9836  -10.5978  -45.1619 H         1 UNK         0.0600 
    183 H183       -2.1412   -9.3214  -44.8171 H         1 UNK         0.0600 
    184 H184       -1.6276  -11.8396  -47.2767 H         1 UNK         0.3000 
    185 H185       -3.1889  -14.5255  -48.8157 H         1 UNK         0.0600 
    186 H186       -2.7626  -13.3661  -51.0088 H         1 UNK         0.0600 
    187 H187       -4.2718  -12.8528  -50.2751 H         1 UNK         0.0600 
    188 H188       -2.8585  -11.8069  -50.1972 H         1 UNK         0.0600 
    189 H189       -0.8064  -12.9491  -49.3604 H         1 UNK         0.3000 
    190 H190       -0.4879  -22.2587  -45.4624 H         1 UNK         0.3000 
    191 H191       -3.2215  -22.0629  -46.4988 H         1 UNK         0.0600 
    192 H192       -2.5220  -20.3207  -44.9583 H         1 UNK         0.0600 
    193 H193       -2.0511  -21.4912  -43.7289 H         1 UNK         0.0600 
    194 H194       -3.7401  -21.2911  -44.1649 H         1 UNK         0.0600 
    195 H195       -1.3952  -24.1540  -44.2491 H         1 UNK         0.3000 
    196 H196       -3.5534  -25.8518  -43.4975 H         1 UNK         0.0600 
    197 H197       -1.3908  -25.7318  -42.2655 H         1 UNK         0.0600 
    198 H198       -0.5532  -26.4663  -43.6310 H         1 UNK         0.0600 
    199 H199       -1.7572  -27.3841  -42.7391 H         1 UNK         0.0600 
    200 H200       -1.2464  -26.0279  -46.2242 H         1 UNK         0.3000 
    201 H201       -2.2915  -28.4686  -47.3443 H         1 UNK         0.0600 
    202 H202        0.0474  -27.6478  -47.7021 H         1 UNK         0.0600 
    203 H203       -0.5748  -26.2623  -48.5997 H         1 UNK         0.0600 
    204 H204       -0.7862  -27.8895  -49.2291 H         1 UNK         0.0600 
    205 H205       -3.5501  -25.3019  -47.3391 H         1 UNK         0.3000 
    206 H206       -5.1105  -24.1545  -48.3837 H         1 UNK         0.0600 
    207 H207       -6.1152  -26.7940  -49.5726 H         1 UNK         0.0600 
    208 H208       -6.5478  -26.1613  -47.9846 H         1 UNK         0.0600 
    209 H209       -7.0202  -25.2939  -49.4367 H         1 UNK         0.0600 
    210 H210       -2.6671  -24.0044  -49.4711 H         1 UNK         0.3000 
    211 H211       -3.1293  -23.4976  -52.3643 H         1 UNK         0.0600 
    212 H212       -0.6800  -24.9000  -51.1561 H         1 UNK         0.0600 
    213 H213       -0.8821  -24.4461  -52.8459 H         1 UNK         0.0600 
    214 H214       -1.9112  -25.6848  -52.1442 H         1 UNK         0.0600 
    215 H215       -3.3745  -21.7481  -50.1295 H         1 UNK         0.3000 
    216 H216       -0.9671  -20.0795  -49.9566 H         1 UNK         0.0600 
    217 H217       -2.4667  -18.7033  -48.4740 H         1 UNK         0.0600 
    218 H218       -2.4623  -20.3860  -47.9839 H         1 UNK         0.0600 
    219 H219       -3.8302  -19.7357  -48.8830 H         1 UNK         0.0600 
    220 H220       -1.1228  -17.7425  -50.4244 H         1 UNK         0.3000 
    221 H221       -2.0369  -17.1502  -53.0726 H         1 UNK         0.0600 
    222 H222       -0.9745  -15.3130  -50.8665 H         1 UNK         0.0600 
    223 H223        0.0108  -16.1455  -52.0679 H         1 UNK         0.0600 
    224 H224       -1.1127  -14.8923  -52.5668 H         1 UNK         0.0600 
    225 H225       -3.7146  -17.0709  -50.0979 H         1 UNK         0.3000 
    226 H226       -5.7711  -15.1448  -50.8147 H         1 UNK         0.0600 
    227 H227       -5.3229  -15.7425  -48.4433 H         1 UNK         0.0600 
    228 H228       -6.9636  -16.1868  -48.8791 H         1 UNK         0.0600 
    229 H229       -5.7240  -17.4301  -48.7663 H         1 UNK         0.0600 
    230 H230       -4.9892  -18.3815  -51.7750 H         1 UNK         0.3000 
    231 H231       -7.6268  -18.7924  -53.0986 H         1 UNK         0.0600 
    232 H232       -7.1224  -21.2029  -53.0001 H         1 UNK         0.0600 
    233 H233       -7.0380  -20.5524  -51.3776 H         1 UNK         0.0600 
    234 H234       -5.5526  -20.8979  -52.2537 H         1 UNK         0.0600 
    235 H235       -6.0351  -20.9116  -54.6455 H         1 UNK         0.3000 
    236 H236       -5.2411  -19.1533  -56.8543 H         1 UNK         0.0600 
    237 H237       -6.7441  -21.1071  -57.2146 H         1 UNK         0.0600 
    238 H238       -5.2593  -21.2818  -58.1319 H         1 UNK         0.0600 
    239 H239       -5.4823  -22.2019  -56.6492 H         1 UNK         0.0600 
    240 H240       -3.5075  -20.2374  -54.2275 H         1 UNK         0.3000 
    241 H241       -1.4644  -20.6752  -53.7009 H         1 UNK         0.0600 
    242 H242       -1.7347  -23.9804  -55.6125 H         1 UNK         0.3800 
    243 H243       -2.9973  -22.8203  -55.3006 H         1 UNK         0.3800 
    244 H244        0.2692  -19.9687  -55.9297 H         1 UNK         0.0800 
    245 H245       -1.0283  -18.8289  -55.9069 H         1 UNK         0.0800 
    246 H246        1.3155  -20.7634  -53.4704 H         1 UNK         0.0800 
    247 H247        2.4123  -19.6704  -54.2866 H         1 UNK         0.0800 
@<TRIPOS>BOND
     1    1    2 1    
     2    1  127 1    
     3    1  128 1    
     4    1  129 1    
     5    2    3 2    
     6    2    4 am   BACKBONE|DICT|INTERRES
     7    4    5 1    
     8    4  130 1    
     9    5    6 1    
    10    5   65 1    
    11    5  131 1    
    12    6    7 1    
    13    6  132 1    
    14    6  133 1    
    15    7    8 1    
    16    8    9 1    
    17    8  134 1    
    18    8  135 1    
    19    9   10 ar   
    20    9   14 ar   
    21   10   11 ar   
    22   10  136 1    
    23   11   12 ar   
    24   11  126 1    
    25   12   13 ar   
    26   12  137 1    
    27   13   14 ar   
    28   13   15 1    
    29   14  138 1    
    30   15   16 1    
    31   15  139 1    
    32   15  140 1    
    33   16   17 1    
    34   17   18 1    
    35   17  141 1    
    36   17  142 1    
    37   18   19 1    
    38   18   67 1    
    39   18  143 1    
    40   19   20 am   BACKBONE|DICT|INTERRES
    41   19  144 1    
    42   20   21 2    
    43   20   22 1    
    44   22   23 1    
    45   22   24 1    
    46   22  145 1    
    47   23  146 1    
    48   23  147 1    
    49   23  148 1    
    50   24   25 am   BACKBONE|DICT|INTERRES
    51   24  149 1    
    52   25   26 2    
    53   25   27 1    
    54   27   28 1    
    55   27   29 1    
    56   27  150 1    
    57   28  151 1    
    58   28  152 1    
    59   28  153 1    
    60   29   30 am   BACKBONE|DICT|INTERRES
    61   29  154 1    
    62   30   31 2    
    63   30   32 1    
    64   32   33 1    
    65   32   34 1    
    66   32  155 1    
    67   33  156 1    
    68   33  157 1    
    69   33  158 1    
    70   34   35 am   BACKBONE|DICT|INTERRES
    71   34  159 1    
    72   35   36 2    
    73   35   37 1    
    74   37   38 1    
    75   37   39 1    
    76   37  160 1    
    77   38  161 1    
    78   38  162 1    
    79   38  163 1    
    80   39   40 am   BACKBONE|DICT|INTERRES
    81   39  164 1    
    82   40   41 2    
    83   40   42 1    
    84   42   43 1    
    85   42   44 1    
    86   42  165 1    
    87   43  166 1    
    88   43  167 1    
    89   43  168 1    
    90   44   45 am   BACKBONE|DICT|INTERRES
    91   44  169 1    
    92   45   46 2    
    93   45   47 1    
    94   47   48 1    
    95   47   49 1    
    96   47  170 1    
    97   48  171 1    
    98   48  172 1    
    99   48  173 1    
   100   49   50 am   BACKBONE|DICT|INTERRES
   101   49  174 1    
   102   50   51 2    
   103   50   52 1    
   104   52   53 1    
   105   52   54 1    
   106   52  175 1    
   107   53  176 1    
   108   53  177 1    
   109   53  178 1    
   110   54   55 am   BACKBONE|DICT|INTERRES
   111   54  179 1    
   112   55   56 2    
   113   55   57 1    
   114   57   58 1    
   115   57   59 1    
   116   57  180 1    
   117   58  181 1    
   118   58  182 1    
   119   58  183 1    
   120   59   60 am   BACKBONE|DICT|INTERRES
   121   59  184 1    
   122   60   61 2    
   123   60   62 1    
   124   62   63 1    
   125   62   64 1    
   126   62  185 1    
   127   63  186 1    
   128   63  187 1    
   129   63  188 1    
   130   64   65 am   BACKBONE|DICT|INTERRES
   131   64  189 1    
   132   65   66 2    
   133   67   68 2    
   134   67   69 am   BACKBONE|DICT|INTERRES
   135   69   70 1    
   136   69  190 1    
   137   70   71 1    
   138   70   72 1    
   139   70  191 1    
   140   71  192 1    
   141   71  193 1    
   142   71  194 1    
   143   72   73 2    
   144   72   74 am   BACKBONE|DICT|INTERRES
   145   74   75 1    
   146   74  195 1    
   147   75   76 1    
   148   75   77 1    
   149   75  196 1    
   150   76  197 1    
   151   76  198 1    
   152   76  199 1    
   153   77   78 2    
   154   77   79 am   BACKBONE|DICT|INTERRES
   155   79   80 1    
   156   79  200 1    
   157   80   81 1    
   158   80   82 1    
   159   80  201 1    
   160   81  202 1    
   161   81  203 1    
   162   81  204 1    
   163   82   83 2    
   164   82   84 am   BACKBONE|DICT|INTERRES
   165   84   85 1    
   166   84  205 1    
   167   85   86 1    
   168   85   87 1    
   169   85  206 1    
   170   86  207 1    
   171   86  208 1    
   172   86  209 1    
   173   87   88 2    
   174   87   89 am   BACKBONE|DICT|INTERRES
   175   89   90 1    
   176   89  210 1    
   177   90   91 1    
   178   90   92 1    
   179   90  211 1    
   180   91  212 1    
   181   91  213 1    
   182   91  214 1    
   183   92   93 2    
   184   92   94 am   BACKBONE|DICT|INTERRES
   185   94   95 1    
   186   94  215 1    
   187   95   96 1    
   188   95   97 1    
   189   95  216 1    
   190   96  217 1    
   191   96  218 1    
   192   96  219 1    
   193   97   98 2    
   194   97   99 am   BACKBONE|DICT|INTERRES
   195   99  100 1    
   196   99  220 1    
   197  100  101 1    
   198  100  102 1    
   199  100  221 1    
   200  101  222 1    
   201  101  223 1    
   202  101  224 1    
   203  102  103 2    
   204  102  104 am   BACKBONE|DICT|INTERRES
   205  104  105 1    
   206  104  225 1    
   207  105  106 1    
   208  105  107 1    
   209  105  226 1    
   210  106  227 1    
   211  106  228 1    
   212  106  229 1    
   213  107  108 2    
   214  107  109 am   BACKBONE|DICT|INTERRES
   215  109  110 1    
   216  109  230 1    
   217  110  111 1    
   218  110  112 1    
   219  110  231 1    
   220  111  232 1    
   221  111  233 1    
   222  111  234 1    
   223  112  113 2    
   224  112  114 am   BACKBONE|DICT|INTERRES
   225  114  115 1    
   226  114  235 1    
   227  115  116 1    
   228  115  117 1    
   229  115  236 1    
   230  116  237 1    
   231  116  238 1    
   232  116  239 1    
   233  117  118 2    
   234  117  119 am   BACKBONE|DICT|INTERRES
   235  119  120 1    
   236  119  240 1    
   237  120  121 1    
   238  120  124 1    
   239  120  241 1    
   240  121  122 am   BACKBONE|DICT|INTERRES
   241  121  123 2    
   242  122  242 1    
   243  122  243 1    
   244  124  125 1    
   245  124  244 1    
   246  124  245 1    
   247  125  126 1    
   248  126  246 1    
   249  126  247 1    
@<TRIPOS>SUBSTRUCTURE
     1 UNK         1 GROUP             0       ****    0 ROOT    
