@<TRIPOS>MOLECULE
3R540
247   249    1
SMALL
USER_CHARGES


@<TRIPOS>ATOM
      1 CA          0.9934  -12.1063  -50.2269 C.3       0 UNK        -0.1800 
      2 C           2.0005  -13.0124  -49.5321 C.2       0 UNK         0.5000 
      3 O           1.6489  -14.1301  -49.1652 O.2       0 UNK        -0.5000 
      4 N           3.2368  -12.5236  -49.3630 N.am      1 UNK        -0.5000 
      5 CA          4.3837  -13.1779  -48.7163 C.3       1 UNK         0.1400 
      6 C6          5.0141  -14.3208  -49.5814 C.3       23 UNK        -0.0398 
      7 S7          4.4028  -16.0251  -49.3015 S.3       23 UNK        -0.2404 
      8 C8          3.5431  -16.4051  -50.8565 C.3       23 UNK        -0.0205 
      9 C9          2.4698  -17.4555  -50.6214 C.ar      23 UNK        -0.0193 
     10 C10         1.1219  -17.0878  -50.6205 C.ar      23 UNK        -0.1150 
     11 C11         0.1280  -18.0335  -50.3640 C.ar      23 UNK        -0.0193 
     12 C12         0.4909  -19.3584  -50.1064 C.ar      23 UNK        -0.1150 
     13 C13         1.8359  -19.7419  -50.1049 C.ar      23 UNK        -0.0193 
     14 C14         2.8207  -18.7871  -50.3752 C.ar      23 UNK        -0.1150 
     15 C15         2.2222  -21.1872  -49.8190 C.3       23 UNK        -0.0205 
     16 S16         2.9982  -21.4153  -48.1797 S.3       23 UNK        -0.2404 
     17 C17         1.7113  -20.8352  -47.0190 C.3       23 UNK        -0.0398 
     18 CA          0.7970  -21.9600  -46.4712 C.3       11 UNK         0.1400 
     19 N           0.0666  -21.5380  -45.2719 N.am      11 UNK        -0.5000 
     20 C          -0.7303  -22.3242  -44.5323 C.2       10 UNK         0.5000 
     21 O          -0.8705  -23.5320  -44.7243 O.2       10 UNK        -0.5000 
     22 CA         -1.5597  -21.6345  -43.4323 C.3       10 UNK         0.1400 
     23 CB         -0.7303  -21.4392  -42.1549 C.3       10 UNK        -0.1800 
     24 N          -2.1141  -20.3518  -43.8721 N.am      10 UNK        -0.5000 
     25 C          -3.0164  -20.2202  -44.8558 C.2       9 UNK         0.5000 
     26 O          -3.5271  -21.1755  -45.4395 O.2       9 UNK        -0.5000 
     27 CA         -3.3719  -18.7886  -45.3003 C.3       9 UNK         0.1400 
     28 CB         -4.4449  -18.1797  -44.3865 C.3       9 UNK        -0.1800 
     29 N          -2.2040  -17.9072  -45.3566 N.am      9 UNK        -0.5000 
     30 C          -1.1672  -18.0780  -46.1896 C.2       8 UNK         0.5000 
     31 O          -1.1251  -18.9679  -47.0376 O.2       8 UNK        -0.5000 
     32 CA          0.0483  -17.1478  -46.0014 C.3       8 UNK         0.1400 
     33 CB         -0.1680  -15.7988  -46.7004 C.3       8 UNK        -0.1800 
     34 N           0.3628  -16.9318  -44.5869 N.am      8 UNK        -0.5000 
     35 C           0.7815  -17.8985  -43.7573 C.2       7 UNK         0.5000 
     36 O           1.0324  -19.0458  -44.1243 O.2       7 UNK        -0.5000 
     37 CA          0.8714  -17.5491  -42.2609 C.3       7 UNK         0.1400 
     38 CB          2.2300  -16.9307  -41.8998 C.3       7 UNK        -0.1800 
     39 N          -0.2077  -16.6520  -41.8491 N.am      7 UNK        -0.5000 
     40 C          -1.4819  -17.0373  -41.6920 C.2       6 UNK         0.5000 
     41 O          -1.8630  -18.1981  -41.8390 O.2       6 UNK        -0.5000 
     42 CA         -2.5064  -15.9384  -41.3500 C.3       6 UNK         0.1400 
     43 CB         -2.5605  -15.7059  -39.8329 C.3       6 UNK        -0.1800 
     44 N          -2.2229  -14.6696  -42.0226 N.am      6 UNK        -0.5000 
     45 C          -2.2889  -14.4804  -43.3484 C.2       5 UNK         0.5000 
     46 O          -2.6576  -15.3457  -44.1402 O.2       5 UNK        -0.5000 
     47 CA         -1.8083  -13.1167  -43.8842 C.3       5 UNK         0.1400 
     48 CB         -2.9806  -12.1284  -43.9694 C.3       5 UNK        -0.1800 
     49 N          -0.7300  -12.5246  -43.0854 N.am      5 UNK        -0.5000 
     50 C           0.4660  -13.0929  -42.8852 C.2       4 UNK         0.5000 
     51 O           0.7969  -14.1778  -43.3740 O.2       4 UNK        -0.5000 
     52 CA          1.4150  -12.3673  -41.9218 C.3       4 UNK         0.1400 
     53 CB          0.8918  -12.4734  -40.4742 C.3       4 UNK        -0.1800 
     54 N           2.7300  -12.9867  -42.0274 N.am      4 UNK        -0.5000 
     55 C           3.8777  -12.5256  -41.5194 C.2       3 UNK         0.5000 
     56 O           3.9777  -11.4651  -40.9010 O.2       3 UNK        -0.5000 
     57 CA          5.1279  -13.4024  -41.7279 C.3       3 UNK         0.1400 
     58 CB          5.3603  -14.2965  -40.4997 C.3       3 UNK        -0.1800 
     59 N           5.0425  -14.2511  -42.9191 N.am      3 UNK        -0.5000 
     60 C           5.1818  -13.8090  -44.1757 C.2       2 UNK         0.5000 
     61 O           5.4593  -12.6395  -44.4540 O.2       2 UNK        -0.5000 
     62 CA          5.0360  -14.8723  -45.2862 C.3       2 UNK         0.1400 
     63 CB          3.7953  -15.7728  -45.0944 C.3       2 UNK        -0.1800 
     64 N           5.0518  -14.3193  -46.6436 N.am      2 UNK        -0.5000 
     65 C           4.1508  -13.5049  -47.2151 C.2       1 UNK         0.5000 
     66 O           3.1999  -13.0016  -46.6095 O.2       1 UNK        -0.5000 
     67 C          -0.1668  -22.4880  -47.5523 C.2       11 UNK         0.5000 
     68 O           0.0414  -23.5881  -48.0621 O.2       11 UNK        -0.5000 
     69 N          -1.2252  -21.7201  -47.8496 N.am      12 UNK        -0.5000 
     70 CA         -2.2694  -22.0851  -48.8063 C.3       12 UNK         0.1400 
     71 CB         -3.2526  -20.9232  -48.9848 C.3       12 UNK        -0.1800 
     72 C          -3.0294  -23.3640  -48.4260 C.2       12 UNK         0.5000 
     73 O          -3.3017  -24.1799  -49.3057 O.2       12 UNK        -0.5000 
     74 N          -3.3375  -23.5257  -47.1329 N.am      13 UNK        -0.5000 
     75 CA         -3.9749  -24.7180  -46.5769 C.3       13 UNK         0.1400 
     76 CB         -4.3834  -24.4533  -45.1201 C.3       13 UNK        -0.1800 
     77 C          -3.0806  -25.9666  -46.6806 C.2       13 UNK         0.5000 
     78 O          -3.5719  -27.0302  -47.0587 O.2       13 UNK        -0.5000 
     79 N          -1.7845  -25.8097  -46.3753 N.am      14 UNK        -0.5000 
     80 CA         -0.7733  -26.8631  -46.4788 C.3       14 UNK         0.1400 
     81 CB          0.5181  -26.4031  -45.7850 C.3       14 UNK        -0.1800 
     82 C          -0.4933  -27.2797  -47.9347 C.2       14 UNK         0.5000 
     83 O          -0.3822  -28.4736  -48.2160 O.2       14 UNK        -0.5000 
     84 N          -0.4008  -26.2911  -48.8336 N.am      15 UNK        -0.5000 
     85 CA         -0.1820  -26.4824  -50.2683 C.3       15 UNK         0.1400 
     86 CB          0.2981  -25.1536  -50.8744 C.3       15 UNK        -0.1800 
     87 C          -1.4292  -26.9851  -51.0216 C.2       15 UNK         0.5000 
     88 O          -1.2861  -27.5129  -52.1251 O.2       15 UNK        -0.5000 
     89 N          -2.6173  -26.7847  -50.4307 N.am      16 UNK        -0.5000 
     90 CA         -3.9508  -26.9824  -51.0089 C.3       16 UNK         0.1400 
     91 CB         -4.2214  -28.4730  -51.2990 C.3       16 UNK        -0.1800 
     92 C          -4.1712  -26.0656  -52.2309 C.2       16 UNK         0.5000 
     93 O          -4.6268  -26.5155  -53.2841 O.2       16 UNK        -0.5000 
     94 N          -3.8159  -24.7843  -52.0661 N.am      17 UNK        -0.5000 
     95 CA         -3.7448  -23.7546  -53.1068 C.3       17 UNK         0.1400 
     96 CB         -2.7864  -22.6455  -52.6327 C.3       17 UNK        -0.1800 
     97 C          -5.1194  -23.1943  -53.5351 C.2       17 UNK         0.5000 
     98 O          -5.2725  -21.9770  -53.6437 O.2       17 UNK        -0.5000 
     99 N          -6.0943  -24.0859  -53.7636 N.am      18 UNK        -0.5000 
    100 CA        -7.4438  -23.8308  -54.2863 C.3       18 UNK         0.1400 
    101 CB        -7.3725  -23.5647  -55.8033 C.3       18 UNK        -0.1800 
    102 C         -8.2117  -22.7323  -53.5178 C.2       18 UNK         0.5000 
    103 O         -8.7471  -21.8053  -54.1279 O.2       18 UNK        -0.5000 
    104 N         -8.2219  -22.8578  -52.1820 N.am      19 UNK        -0.5000 
    105 CA        -8.8054  -21.9194  -51.2138 C.3       19 UNK         0.1400 
    106 CB       -10.3385  -21.8298  -51.3729 C.3       19 UNK        -0.1800 
    107 C         -8.1049  -20.5424  -51.2238 C.2       19 UNK         0.5000 
    108 O         -8.7673  -19.5046  -51.1716 O.2       19 UNK        -0.5000 
    109 N         -6.7657  -20.5808  -51.2747 N.am      20 UNK        -0.5000 
    110 CA        -5.8369  -19.4471  -51.2799 C.3       20 UNK         0.1400 
    111 CB        -5.9189  -18.6458  -49.9630 C.3       20 UNK        -0.1800 
    112 C         -5.9602  -18.5719  -52.5410 C.2       20 UNK         0.5000 
    113 O         -5.9947  -17.3427  -52.4531 O.2       20 UNK        -0.5000 
    114 N         -5.9597  -19.2242  -53.7093 N.am      21 UNK        -0.5000 
    115 CA        -5.8558  -18.5998  -55.0287 C.3       21 UNK         0.1400 
    116 CB        -6.5326  -19.5166  -56.0619 C.3       21 UNK        -0.1800 
    117 C         -4.3757  -18.3132  -55.3654 C.2       21 UNK         0.5000 
    118 O         -3.8559  -18.7976  -56.3724 O.2       21 UNK        -0.5000 
    119 N         -3.7100  -17.5654  -54.4784 N.am      22 UNK        -0.5000 
    120 CA        -2.2574  -17.3239  -54.4800 C.3       22 UNK         0.1400 
    121 C         -1.7694  -16.2667  -55.5138 C.2       22 UNK         0.5000 
    122 N         -2.6488  -15.5457  -56.1986 N.am      22 UNK        -0.7600 
    123 O         -0.5676  -16.1019  -55.7043 O.2       22 UNK        -0.5000 
    124 C124       -1.7350  -16.9894  -53.0574 C.3       23 UNK        -0.0398 
    125 S125       -2.2278  -18.2260  -51.8066 S.3       23 UNK        -0.2404 
    126 C126       -1.3349  -17.6203  -50.3423 C.3       23 UNK        -0.0205 
    127 H127        1.4333  -11.1501  -50.5113 H         1 UNK         0.0600 
    128 H128        0.1493  -11.9093  -49.5659 H         1 UNK         0.0600 
    129 H129        0.6158  -12.5886  -51.1286 H         1 UNK         0.0600 
    130 H130        3.4173  -11.5785  -49.6704 H         1 UNK         0.3000 
    131 H131        5.1329  -12.3851  -48.6896 H         1 UNK         0.0600 
    132 H132        4.9318  -14.0742  -50.6407 H         1 UNK         0.0800 
    133 H133        6.0881  -14.3493  -49.3927 H         1 UNK         0.0800 
    134 H134        3.0971  -15.4962  -51.2632 H         1 UNK         0.0800 
    135 H135        4.2616  -16.7611  -51.5958 H         1 UNK         0.0800 
    136 H136        0.8467  -16.0588  -50.8035 H         1 UNK         0.1150 
    137 H137       -0.2789  -20.0877  -49.9025 H         1 UNK         0.1150 
    138 H138        3.8628  -19.0742  -50.3672 H         1 UNK         0.1150 
    139 H139        1.3556  -21.8430  -49.9098 H         1 UNK         0.0800 
    140 H140        2.9255  -21.5211  -50.5830 H         1 UNK         0.0800 
    141 H141        1.1344  -20.0313  -47.4714 H         1 UNK         0.0800 
    142 H142        2.2431  -20.3711  -46.1876 H         1 UNK         0.0800 
    143 H143        1.4337  -22.7933  -46.1665 H         1 UNK         0.0600 
    144 H144        0.1674  -20.5642  -45.0016 H         1 UNK         0.3000 
    145 H145       -2.3980  -22.2909  -43.1899 H         1 UNK         0.0600 
    146 H146       -1.3276  -20.9897  -41.3614 H         1 UNK         0.0600 
    147 H147       -0.3604  -22.3952  -41.7825 H         1 UNK         0.0600 
    148 H148        0.1346  -20.7994  -42.3264 H         1 UNK         0.0600 
    149 H149       -1.7908  -19.5210  -43.3884 H         1 UNK         0.3000 
    150 H150       -3.7869  -18.8487  -46.3082 H         1 UNK         0.0600 
    151 H151       -4.7476  -17.1930  -44.7374 H         1 UNK         0.0600 
    152 H152       -5.3380  -18.8054  -44.3643 H         1 UNK         0.0600 
    153 H153       -4.0918  -18.0763  -43.3610 H         1 UNK         0.0600 
    154 H154       -2.2080  -17.1031  -44.7355 H         1 UNK         0.3000 
    155 H155        0.9114  -17.6291  -46.4665 H         1 UNK         0.0600 
    156 H156       -1.0401  -15.2740  -46.3122 H         1 UNK         0.0600 
    157 H157       -0.3180  -15.9383  -47.7718 H         1 UNK         0.0600 
    158 H158        0.6988  -15.1479  -46.5791 H         1 UNK         0.0600 
    159 H159        0.2241  -15.9982  -44.2171 H         1 UNK         0.3000 
    160 H160        0.7754  -18.4807  -41.6992 H         1 UNK         0.0600 
    161 H161        2.3943  -15.9839  -42.4104 H         1 UNK         0.0600 
    162 H162        3.0461  -17.6007  -42.1730 H         1 UNK         0.0600 
    163 H163        2.3059  -16.7480  -40.8278 H         1 UNK         0.0600 
    164 H164        0.0190  -15.6703  -41.7835 H         1 UNK         0.3000 
    165 H165       -3.4886  -16.2847  -41.6782 H         1 UNK         0.0600 
    166 H166       -3.3360  -14.9856  -39.5718 H         1 UNK         0.0600 
    167 H167       -2.7881  -16.6327  -39.3043 H         1 UNK         0.0600 
    168 H168       -1.6110  -15.3325  -39.4472 H         1 UNK         0.0600 
    169 H169       -1.9186  -13.9025  -41.4422 H         1 UNK         0.3000 
    170 H170       -1.4229  -13.2776  -44.8929 H         1 UNK         0.0600 
    171 H171       -3.7899  -12.5348  -44.5776 H         1 UNK         0.0600 
    172 H172       -3.3910  -11.9036  -42.9842 H         1 UNK         0.0600 
    173 H173       -2.6721  -11.1888  -44.4281 H         1 UNK         0.0600 
    174 H174       -0.9318  -11.6379  -42.6460 H         1 UNK         0.3000 
    175 H175        1.4862  -11.3202  -42.2223 H         1 UNK         0.0600 
    176 H176        0.8255  -13.5121  -40.1474 H         1 UNK         0.0600 
    177 H177        1.5395  -11.9464  -39.7740 H         1 UNK         0.0600 
    178 H178       -0.1012  -12.0335  -40.3764 H         1 UNK         0.0600 
    179 H179        2.7329  -13.8354  -42.5782 H         1 UNK         0.3000 
    180 H180        5.9873  -12.7367  -41.8327 H         1 UNK         0.0600 
    181 H181        4.5358  -14.9941  -40.3468 H         1 UNK         0.0600 
    182 H182        5.4551  -13.6973  -39.5930 H         1 UNK         0.0600 
    183 H183        6.2778  -14.8765  -40.6012 H         1 UNK         0.0600 
    184 H184        4.8596  -15.2308  -42.7610 H         1 UNK         0.3000 
    185 H185        5.9200  -15.5078  -45.2193 H         1 UNK         0.0600 
    186 H186        3.9101  -16.4237  -44.2291 H         1 UNK         0.0600 
    187 H187        2.8854  -15.1874  -44.9564 H         1 UNK         0.0600 
    188 H188        3.6399  -16.4228  -45.9560 H         1 UNK         0.0600 
    189 H189        5.8135  -14.6474  -47.2193 H         1 UNK         0.3000 
    190 H190       -1.3062  -20.8057  -47.4105 H         1 UNK         0.3000 
    191 H191       -1.7819  -22.2701  -49.7651 H         1 UNK         0.0600 
    192 H192       -4.0948  -21.2224  -49.6079 H         1 UNK         0.0600 
    193 H193       -2.7741  -20.0751  -49.4676 H         1 UNK         0.0600 
    194 H194       -3.6593  -20.5837  -48.0334 H         1 UNK         0.0600 
    195 H195       -3.1411  -22.7667  -46.4863 H         1 UNK         0.3000 
    196 H196       -4.8824  -24.9101  -47.1531 H         1 UNK         0.0600 
    197 H197       -4.8873  -25.3207  -44.6920 H         1 UNK         0.0600 
    198 H198       -5.0709  -23.6101  -45.0513 H         1 UNK         0.0600 
    199 H199       -3.5202  -24.2315  -44.4924 H         1 UNK         0.0600 
    200 H200       -1.4668  -24.9072  -46.0339 H         1 UNK         0.3000 
    201 H201       -1.1473  -27.7412  -45.9482 H         1 UNK         0.0600 
    202 H202        0.3422  -26.1854  -44.7314 H         1 UNK         0.0600 
    203 H203        0.9260  -25.5034  -46.2470 H         1 UNK         0.0600 
    204 H204        1.2859  -27.1761  -45.8345 H         1 UNK         0.0600 
    205 H205       -0.4340  -25.3274  -48.5065 H         1 UNK         0.3000 
    206 H206        0.6072  -27.2250  -50.4029 H         1 UNK         0.0600 
    207 H207        1.2223  -24.8165  -50.4045 H         1 UNK         0.0600 
    208 H208        0.4939  -25.2549  -51.9426 H         1 UNK         0.0600 
    209 H209       -0.4460  -24.3663  -50.7489 H         1 UNK         0.0600 
    210 H210       -2.6088  -26.2920  -49.5467 H         1 UNK         0.3000 
    211 H211       -4.6638  -26.6598  -50.2488 H         1 UNK         0.0600 
    212 H212       -3.5834  -28.8580  -52.0948 H         1 UNK         0.0600 
    213 H213       -5.2556  -28.6265  -51.6086 H         1 UNK         0.0600 
    214 H214       -4.0544  -29.0822  -50.4106 H         1 UNK         0.0600 
    215 H215       -3.5170  -24.5045  -51.1347 H         1 UNK         0.3000 
    216 H216       -3.3049  -24.2080  -53.9972 H         1 UNK         0.0600 
    217 H217       -2.6186  -21.9070  -53.4179 H         1 UNK         0.0600 
    218 H218       -1.8122  -23.0513  -52.3611 H         1 UNK         0.0600 
    219 H219       -3.1856  -22.1159  -51.7682 H         1 UNK         0.0600 
    220 H220       -5.8437  -25.0633  -53.6417 H         1 UNK         0.3000 
    221 H221       -8.0102  -24.7520  -54.1427 H         1 UNK         0.0600 
    222 H222       -6.8084  -22.6602  -56.0269 H         1 UNK         0.0600 
    223 H223       -6.8943  -24.3933  -56.3255 H         1 UNK         0.0600 
    224 H224       -8.3691  -23.4457  -56.2303 H         1 UNK         0.0600 
    225 H225       -7.7442  -23.6547  -51.7850 H         1 UNK         0.3000 
    226 H226       -8.6106  -22.3440  -50.2278 H         1 UNK         0.0600 
    227 H227      -10.7960  -22.8187  -51.3495 H         1 UNK         0.0600 
    228 H228      -10.7802  -21.2499  -50.5617 H         1 UNK         0.0600 
    229 H229      -10.6253  -21.3489  -52.3083 H         1 UNK         0.0600 
    230 H230       -6.3361  -21.4867  -51.3928 H         1 UNK         0.3000 
    231 H231       -4.8383  -19.8807  -51.3336 H         1 UNK         0.0600 
    232 H232       -6.8635  -18.1095  -49.8707 H         1 UNK         0.0600 
    233 H233       -5.1175  -17.9078  -49.9092 H         1 UNK         0.0600 
    234 H234       -5.8171  -19.2971  -49.0952 H         1 UNK         0.0600 
    235 H235       -5.8566  -20.2377  -53.6921 H         1 UNK         0.3000 
    236 H236       -6.3882  -17.6467  -55.0253 H         1 UNK         0.0600 
    237 H237       -7.5696  -19.7184  -55.7924 H         1 UNK         0.0600 
    238 H238       -6.5351  -19.0578  -57.0512 H         1 UNK         0.0600 
    239 H239       -6.0160  -20.4731  -56.1426 H         1 UNK         0.0600 
    240 H240       -4.2192  -17.2171  -53.6753 H         1 UNK         0.3000 
    241 H241       -1.7805  -18.2597  -54.7783 H         1 UNK         0.0600 
    242 H242       -2.3226  -14.8675  -56.8694 H         1 UNK         0.3800 
    243 H243       -3.6375  -15.6765  -56.0565 H         1 UNK         0.3800 
    244 H244       -0.6455  -16.9253  -53.0612 H         1 UNK         0.0800 
    245 H245       -2.1019  -16.0125  -52.7381 H         1 UNK         0.0800 
    246 H246       -1.8058  -18.0167  -49.4435 H         1 UNK         0.0800 
    247 H247       -1.4339  -16.5358  -50.2746 H         1 UNK         0.0800 
@<TRIPOS>BOND
     1    1    2 1    
     2    1  127 1    
     3    1  128 1    
     4    1  129 1    
     5    2    3 2    
     6    2    4 am   BACKBONE|DICT|INTERRES
     7    4    5 1    
     8    4  130 1    
     9    5    6 1    
    10    5   65 1    
    11    5  131 1    
    12    6    7 1    
    13    6  132 1    
    14    6  133 1    
    15    7    8 1    
    16    8    9 1    
    17    8  134 1    
    18    8  135 1    
    19    9   10 ar   
    20    9   14 ar   
    21   10   11 ar   
    22   10  136 1    
    23   11   12 ar   
    24   11  126 1    
    25   12   13 ar   
    26   12  137 1    
    27   13   14 ar   
    28   13   15 1    
    29   14  138 1    
    30   15   16 1    
    31   15  139 1    
    32   15  140 1    
    33   16   17 1    
    34   17   18 1    
    35   17  141 1    
    36   17  142 1    
    37   18   19 1    
    38   18   67 1    
    39   18  143 1    
    40   19   20 am   BACKBONE|DICT|INTERRES
    41   19  144 1    
    42   20   21 2    
    43   20   22 1    
    44   22   23 1    
    45   22   24 1    
    46   22  145 1    
    47   23  146 1    
    48   23  147 1    
    49   23  148 1    
    50   24   25 am   BACKBONE|DICT|INTERRES
    51   24  149 1    
    52   25   26 2    
    53   25   27 1    
    54   27   28 1    
    55   27   29 1    
    56   27  150 1    
    57   28  151 1    
    58   28  152 1    
    59   28  153 1    
    60   29   30 am   BACKBONE|DICT|INTERRES
    61   29  154 1    
    62   30   31 2    
    63   30   32 1    
    64   32   33 1    
    65   32   34 1    
    66   32  155 1    
    67   33  156 1    
    68   33  157 1    
    69   33  158 1    
    70   34   35 am   BACKBONE|DICT|INTERRES
    71   34  159 1    
    72   35   36 2    
    73   35   37 1    
    74   37   38 1    
    75   37   39 1    
    76   37  160 1    
    77   38  161 1    
    78   38  162 1    
    79   38  163 1    
    80   39   40 am   BACKBONE|DICT|INTERRES
    81   39  164 1    
    82   40   41 2    
    83   40   42 1    
    84   42   43 1    
    85   42   44 1    
    86   42  165 1    
    87   43  166 1    
    88   43  167 1    
    89   43  168 1    
    90   44   45 am   BACKBONE|DICT|INTERRES
    91   44  169 1    
    92   45   46 2    
    93   45   47 1    
    94   47   48 1    
    95   47   49 1    
    96   47  170 1    
    97   48  171 1    
    98   48  172 1    
    99   48  173 1    
   100   49   50 am   BACKBONE|DICT|INTERRES
   101   49  174 1    
   102   50   51 2    
   103   50   52 1    
   104   52   53 1    
   105   52   54 1    
   106   52  175 1    
   107   53  176 1    
   108   53  177 1    
   109   53  178 1    
   110   54   55 am   BACKBONE|DICT|INTERRES
   111   54  179 1    
   112   55   56 2    
   113   55   57 1    
   114   57   58 1    
   115   57   59 1    
   116   57  180 1    
   117   58  181 1    
   118   58  182 1    
   119   58  183 1    
   120   59   60 am   BACKBONE|DICT|INTERRES
   121   59  184 1    
   122   60   61 2    
   123   60   62 1    
   124   62   63 1    
   125   62   64 1    
   126   62  185 1    
   127   63  186 1    
   128   63  187 1    
   129   63  188 1    
   130   64   65 am   BACKBONE|DICT|INTERRES
   131   64  189 1    
   132   65   66 2    
   133   67   68 2    
   134   67   69 am   BACKBONE|DICT|INTERRES
   135   69   70 1    
   136   69  190 1    
   137   70   71 1    
   138   70   72 1    
   139   70  191 1    
   140   71  192 1    
   141   71  193 1    
   142   71  194 1    
   143   72   73 2    
   144   72   74 am   BACKBONE|DICT|INTERRES
   145   74   75 1    
   146   74  195 1    
   147   75   76 1    
   148   75   77 1    
   149   75  196 1    
   150   76  197 1    
   151   76  198 1    
   152   76  199 1    
   153   77   78 2    
   154   77   79 am   BACKBONE|DICT|INTERRES
   155   79   80 1    
   156   79  200 1    
   157   80   81 1    
   158   80   82 1    
   159   80  201 1    
   160   81  202 1    
   161   81  203 1    
   162   81  204 1    
   163   82   83 2    
   164   82   84 am   BACKBONE|DICT|INTERRES
   165   84   85 1    
   166   84  205 1    
   167   85   86 1    
   168   85   87 1    
   169   85  206 1    
   170   86  207 1    
   171   86  208 1    
   172   86  209 1    
   173   87   88 2    
   174   87   89 am   BACKBONE|DICT|INTERRES
   175   89   90 1    
   176   89  210 1    
   177   90   91 1    
   178   90   92 1    
   179   90  211 1    
   180   91  212 1    
   181   91  213 1    
   182   91  214 1    
   183   92   93 2    
   184   92   94 am   BACKBONE|DICT|INTERRES
   185   94   95 1    
   186   94  215 1    
   187   95   96 1    
   188   95   97 1    
   189   95  216 1    
   190   96  217 1    
   191   96  218 1    
   192   96  219 1    
   193   97   98 2    
   194   97   99 am   BACKBONE|DICT|INTERRES
   195   99  100 1    
   196   99  220 1    
   197  100  101 1    
   198  100  102 1    
   199  100  221 1    
   200  101  222 1    
   201  101  223 1    
   202  101  224 1    
   203  102  103 2    
   204  102  104 am   BACKBONE|DICT|INTERRES
   205  104  105 1    
   206  104  225 1    
   207  105  106 1    
   208  105  107 1    
   209  105  226 1    
   210  106  227 1    
   211  106  228 1    
   212  106  229 1    
   213  107  108 2    
   214  107  109 am   BACKBONE|DICT|INTERRES
   215  109  110 1    
   216  109  230 1    
   217  110  111 1    
   218  110  112 1    
   219  110  231 1    
   220  111  232 1    
   221  111  233 1    
   222  111  234 1    
   223  112  113 2    
   224  112  114 am   BACKBONE|DICT|INTERRES
   225  114  115 1    
   226  114  235 1    
   227  115  116 1    
   228  115  117 1    
   229  115  236 1    
   230  116  237 1    
   231  116  238 1    
   232  116  239 1    
   233  117  118 2    
   234  117  119 am   BACKBONE|DICT|INTERRES
   235  119  120 1    
   236  119  240 1    
   237  120  121 1    
   238  120  124 1    
   239  120  241 1    
   240  121  122 am   BACKBONE|DICT|INTERRES
   241  121  123 2    
   242  122  242 1    
   243  122  243 1    
   244  124  125 1    
   245  124  244 1    
   246  124  245 1    
   247  125  126 1    
   248  126  246 1    
   249  126  247 1    
@<TRIPOS>SUBSTRUCTURE
     1 UNK         1 GROUP             0       ****    0 ROOT    
