@<TRIPOS>MOLECULE
3R540
247   249    1
SMALL
USER_CHARGES


@<TRIPOS>ATOM
      1 CA          5.9160  -14.3821  -47.1614 C.3       0 UNK        -0.1800 
      2 C           4.4836  -13.8719  -47.2100 C.2       0 UNK         0.5000 
      3 O           3.8719  -13.6673  -46.1624 O.2       0 UNK        -0.5000 
      4 N           3.9554  -13.6433  -48.4207 N.am      1 UNK        -0.5000 
      5 CA          2.5708  -13.2286  -48.7027 C.3       1 UNK         0.1400 
      6 C6          2.2643  -13.2251  -50.2217 C.3       23 UNK        -0.0398 
      7 S7          2.5300  -14.8507  -51.0096 S.3       23 UNK        -0.2404 
      8 C8          0.8575  -15.5531  -50.8834 C.3       23 UNK        -0.0205 
      9 C9          0.7918  -16.9689  -51.4366 C.ar      23 UNK        -0.0193 
     10 C10         0.1863  -17.2258  -52.6700 C.ar      23 UNK        -0.1150 
     11 C11         0.0896  -18.5342  -53.1554 C.ar      23 UNK        -0.0193 
     12 C12         0.6050  -19.5903  -52.3982 C.ar      23 UNK        -0.1150 
     13 C13         1.2212  -19.3466  -51.1677 C.ar      23 UNK        -0.0193 
     14 C14         1.3149  -18.0317  -50.6972 C.ar      23 UNK        -0.1150 
     15 C15         1.8282  -20.4984  -50.3774 C.3       23 UNK        -0.0205 
     16 S16         1.3968  -20.4497  -48.6098 S.3       23 UNK        -0.2404 
     17 C17        -0.2172  -21.3064  -48.5396 C.3       23 UNK        -0.0398 
     18 CA         -0.1467  -22.4728  -47.5270 C.3       11 UNK         0.1400 
     19 N           0.1240  -22.0165  -46.1640 N.am      11 UNK        -0.5000 
     20 C           0.6210  -22.7912  -45.1944 C.2       10 UNK         0.5000 
     21 O           0.8603  -23.9898  -45.3385 O.2       10 UNK        -0.5000 
     22 CA          0.8671  -22.1215  -43.8322 C.3       10 UNK         0.1400 
     23 CB          2.1410  -21.2639  -43.8711 C.3       10 UNK        -0.1800 
     24 N          -0.2609  -21.3019  -43.3896 N.am      10 UNK        -0.5000 
     25 C          -1.4778  -21.7812  -43.0971 C.2       9 UNK         0.5000 
     26 O          -1.7827  -22.9723  -43.1799 O.2       9 UNK        -0.5000 
     27 CA         -2.5415  -20.7517  -42.6706 C.3       9 UNK         0.1400 
     28 CB         -2.3020  -20.2731  -41.2306 C.3       9 UNK        -0.1800 
     29 N          -2.6011  -19.5960  -43.5652 N.am      9 UNK        -0.5000 
     30 C          -2.9444  -19.6639  -44.8590 C.2       8 UNK         0.5000 
     31 O          -3.2677  -20.7024  -45.4320 O.2       8 UNK        -0.5000 
     32 CA         -2.8559  -18.3642  -45.6708 C.3       8 UNK         0.1400 
     33 CB         -4.0746  -17.4674  -45.4110 C.3       8 UNK        -0.1800 
     34 N          -1.6188  -17.6191  -45.4366 N.am      8 UNK        -0.5000 
     35 C          -0.3899  -18.1155  -45.6397 C.2       7 UNK         0.5000 
     36 O          -0.1759  -19.2540  -46.0429 O.2       7 UNK        -0.5000 
     37 CA          0.8039  -17.2246  -45.2686 C.3       7 UNK         0.1400 
     38 CB          1.0194  -16.1255  -46.3199 C.3       7 UNK        -0.1800 
     39 N           0.6521  -16.6324  -43.9422 N.am      7 UNK        -0.5000 
     40 C           0.5259  -17.3246  -42.8003 C.2       6 UNK         0.5000 
     41 O           0.5757  -18.5528  -42.7262 O.2       6 UNK        -0.5000 
     42 CA          0.2417  -16.5022  -41.5342 C.3       6 UNK         0.1400 
     43 CB          1.5341  -15.8916  -40.9711 C.3       6 UNK        -0.1800 
     44 N          -0.7335  -15.4439  -41.7930 N.am      6 UNK        -0.5000 
     45 C          -2.0373  -15.6582  -42.0169 C.2       5 UNK         0.5000 
     46 O          -2.5643  -16.7717  -41.9885 O.2       5 UNK        -0.5000 
     47 CA         -2.8851  -14.4188  -42.3594 C.3       5 UNK         0.1400 
     48 CB         -3.2860  -13.6644  -41.0828 C.3       5 UNK        -0.1800 
     49 N          -2.2041  -13.4992  -43.2749 N.am      5 UNK        -0.5000 
     50 C          -1.9351  -13.7847  -44.5560 C.2       4 UNK         0.5000 
     51 O          -2.2310  -14.8504  -45.0926 O.2       4 UNK        -0.5000 
     52 CA         -1.1844  -12.7202  -45.3750 C.3       4 UNK         0.1400 
     53 CB         -2.1654  -11.6774  -45.9305 C.3       4 UNK        -0.1800 
     54 N          -0.0982  -12.0331  -44.6716 N.am      4 UNK        -0.5000 
     55 C           0.9248  -12.6162  -44.0320 C.2       3 UNK         0.5000 
     56 O           0.9855  -13.8213  -43.7883 O.2       3 UNK        -0.5000 
     57 CA          2.0989  -11.6912  -43.6696 C.3       3 UNK         0.1400 
     58 CB          3.1829  -12.4020  -42.8396 C.3       3 UNK        -0.1800 
     59 N           2.6941  -11.2080  -44.9134 N.am      3 UNK        -0.5000 
     60 C           2.3969  -10.0460  -45.5118 C.2       2 UNK         0.5000 
     61 O           1.6639   -9.1923  -45.0117 O.2       2 UNK        -0.5000 
     62 CA          2.9731   -9.8143  -46.9244 C.3       2 UNK         0.1400 
     63 CB          4.3151   -9.0715  -46.8436 C.3       2 UNK        -0.1800 
     64 N           3.1575  -11.0546  -47.6811 N.am      2 UNK        -0.5000 
     65 C           2.1700  -11.8728  -48.0751 C.2       1 UNK         0.5000 
     66 O           0.9757  -11.6040  -47.9438 O.2       1 UNK        -0.5000 
     67 C          -1.3751  -23.3997  -47.5848 C.2       11 UNK         0.5000 
     68 O          -1.3673  -24.3287  -48.3896 O.2       11 UNK        -0.5000 
     69 N          -2.3633  -23.2066  -46.6957 N.am      12 UNK        -0.5000 
     70 CA         -3.4720  -24.1451  -46.4998 C.3       12 UNK         0.1400 
     71 CB         -4.5523  -23.5307  -45.5982 C.3       12 UNK        -0.1800 
     72 C          -3.0027  -25.4985  -45.9402 C.2       12 UNK         0.5000 
     73 O          -3.4335  -26.5377  -46.4399 O.2       12 UNK        -0.5000 
     74 N          -2.0968  -25.4696  -44.9512 N.am      13 UNK        -0.5000 
     75 CA         -1.4733  -26.6630  -44.3710 C.3       13 UNK         0.1400 
     76 CB         -0.6774  -26.2723  -43.1165 C.3       13 UNK        -0.1800 
     77 C          -0.5863  -27.4250  -45.3765 C.2       13 UNK         0.5000 
     78 O          -0.5761  -28.6563  -45.3677 O.2       13 UNK        -0.5000 
     79 N           0.1077  -26.6820  -46.2492 N.am      14 UNK        -0.5000 
     80 CA          0.9107  -27.2104  -47.3552 C.3       14 UNK         0.1400 
     81 CB          1.8974  -26.1232  -47.8096 C.3       14 UNK        -0.1800 
     82 C           0.0728  -27.7010  -48.5564 C.2       14 UNK         0.5000 
     83 O           0.6307  -28.3425  -49.4475 O.2       14 UNK        -0.5000 
     84 N          -1.2293  -27.3772  -48.5736 N.am      15 UNK        -0.5000 
     85 CA         -2.2049  -27.6259  -49.6414 C.3       15 UNK         0.1400 
     86 CB         -2.4319  -29.1377  -49.8494 C.3       15 UNK        -0.1800 
     87 C          -1.8820  -26.8722  -50.9513 C.2       15 UNK         0.5000 
     88 O          -2.2124  -27.3451  -52.0403 O.2       15 UNK        -0.5000 
     89 N          -1.2714  -25.6897  -50.8202 N.am      16 UNK        -0.5000 
     90 CA         -0.9705  -24.7458  -51.8919 C.3       16 UNK         0.1400 
     91 CB          0.4182  -24.1367  -51.6285 C.3       16 UNK        -0.1800 
     92 C          -2.0899  -23.6908  -51.9311 C.2       16 UNK         0.5000 
     93 O          -1.8590  -22.5215  -51.6138 O.2       16 UNK        -0.5000 
     94 N          -3.3062  -24.1585  -52.2528 N.am      17 UNK        -0.5000 
     95 CA         -4.5831  -23.4509  -52.1184 C.3       17 UNK         0.1400 
     96 CB         -4.6888  -22.3035  -53.1434 C.3       17 UNK        -0.1800 
     97 C          -4.7951  -23.0320  -50.6491 C.2       17 UNK         0.5000 
     98 O          -4.8099  -23.9112  -49.7874 O.2       17 UNK        -0.5000 
     99 N          -4.9131  -21.7290  -50.3781 N.am      18 UNK        -0.5000 
    100 CA        -4.8837  -21.1552  -49.0346 C.3       18 UNK         0.1400 
    101 CB        -6.2856  -21.2187  -48.3975 C.3       18 UNK        -0.1800 
    102 C         -4.3134  -19.7299  -49.1067 C.2       18 UNK         0.5000 
    103 O         -4.8695  -18.8170  -48.4959 O.2       18 UNK        -0.5000 
    104 N         -3.2633  -19.5439  -49.9245 N.am      19 UNK        -0.5000 
    105 CA        -2.6335  -18.2777  -50.3458 C.3       19 UNK         0.1400 
    106 CB        -2.0686  -17.4809  -49.1559 C.3       19 UNK        -0.1800 
    107 C         -3.5336  -17.3919  -51.2352 C.2       19 UNK         0.5000 
    108 O         -3.0527  -16.8017  -52.2016 O.2       19 UNK        -0.5000 
    109 N         -4.8311  -17.3477  -50.9251 N.am      20 UNK        -0.5000 
    110 CA        -5.9001  -16.9998  -51.8503 C.3       20 UNK         0.1400 
    111 CB        -7.0951  -16.4768  -51.0383 C.3       20 UNK        -0.1800 
    112 C         -6.3010  -18.2503  -52.6565 C.2       20 UNK         0.5000 
    113 O         -6.0446  -19.3756  -52.2167 O.2       20 UNK        -0.5000 
    114 N         -6.9540  -18.0205  -53.8039 N.am      21 UNK        -0.5000 
    115 CA        -7.5234  -19.0252  -54.7137 C.3       21 UNK         0.1400 
    116 CB        -8.6389  -19.8316  -54.0134 C.3       21 UNK        -0.1800 
    117 C         -6.4790  -19.9301  -55.4056 C.2       21 UNK         0.5000 
    118 O         -6.8100  -21.0470  -55.8085 O.2       21 UNK        -0.5000 
    119 N         -5.2445  -19.4321  -55.5502 N.am      22 UNK        -0.5000 
    120 CA        -4.1518  -20.0887  -56.2851 C.3       22 UNK         0.1400 
    121 C         -4.4436  -20.2093  -57.8079 C.2       22 UNK         0.5000 
    122 N         -4.0283  -21.2976  -58.4417 N.am      22 UNK        -0.7600 
    123 O         -5.0028  -19.3067  -58.4277 O.2       22 UNK        -0.5000 
    124 C124       -2.7994  -19.3697  -56.0599 C.3       23 UNK        -0.0398 
    125 S125       -2.2798  -19.3684  -54.3134 S.3       23 UNK        -0.2404 
    126 C126       -0.5613  -18.8067  -54.5017 C.3       23 UNK        -0.0205 
    127 H127        6.3371  -14.5053  -48.1594 H         1 UNK         0.0600 
    128 H128        5.9516  -15.3467  -46.6552 H         1 UNK         0.0600 
    129 H129        6.5443  -13.6829  -46.6098 H         1 UNK         0.0600 
    130 H130        4.5160  -13.8332  -49.2397 H         1 UNK         0.3000 
    131 H131        1.9234  -13.9738  -48.2364 H         1 UNK         0.0600 
    132 H132        2.8971  -12.4969  -50.7320 H         1 UNK         0.0800 
    133 H133        1.2359  -12.9105  -50.4102 H         1 UNK         0.0800 
    134 H134        0.5551  -15.5602  -49.8355 H         1 UNK         0.0800 
    135 H135        0.1499  -14.9082  -51.4070 H         1 UNK         0.0800 
    136 H136       -0.2254  -16.4093  -53.2464 H         1 UNK         0.1150 
    137 H137        0.5281  -20.6017  -52.7729 H         1 UNK         0.1150 
    138 H138        1.7950  -17.8319  -49.7496 H         1 UNK         0.1150 
    139 H139        1.5433  -21.4624  -50.7990 H         1 UNK         0.0800 
    140 H140        2.9131  -20.4345  -50.4674 H         1 UNK         0.0800 
    141 H141       -0.4798  -21.6672  -49.5340 H         1 UNK         0.0800 
    142 H142       -0.9902  -20.5907  -48.2561 H         1 UNK         0.0800 
    143 H143        0.7019  -23.0901  -47.8278 H         1 UNK         0.0600 
    144 H144       -0.0175  -21.0212  -45.9907 H         1 UNK         0.3000 
    145 H145        1.0135  -22.9140  -43.0955 H         1 UNK         0.0600 
    146 H146        2.3711  -20.8561  -42.8867 H         1 UNK         0.0600 
    147 H147        3.0011  -21.8543  -44.1893 H         1 UNK         0.0600 
    148 H148        2.0412  -20.4269  -44.5635 H         1 UNK         0.0600 
    149 H149       -0.0861  -20.3054  -43.2900 H         1 UNK         0.3000 
    150 H150       -3.5134  -21.2484  -42.7045 H         1 UNK         0.0600 
    151 H151       -3.1005  -19.6088  -40.8992 H         1 UNK         0.0600 
    152 H152       -1.3596  -19.7329  -41.1350 H         1 UNK         0.0600 
    153 H153       -2.2705  -21.1158  -40.5389 H         1 UNK         0.0600 
    154 H154       -2.3449  -18.6977  -43.1736 H         1 UNK         0.3000 
    155 H155       -2.8642  -18.6544  -46.7200 H         1 UNK         0.0600 
    156 H156       -5.0036  -18.0174  -45.5664 H         1 UNK         0.0600 
    157 H157       -4.0826  -17.0817  -44.3911 H         1 UNK         0.0600 
    158 H158       -4.0870  -16.6175  -46.0933 H         1 UNK         0.0600 
    159 H159       -1.7233  -16.6536  -45.1347 H         1 UNK         0.3000 
    160 H160        1.6967  -17.8529  -45.2475 H         1 UNK         0.0600 
    161 H161        1.8845  -15.5111  -46.0725 H         1 UNK         0.0600 
    162 H162        0.1549  -15.4677  -46.4006 H         1 UNK         0.0600 
    163 H163        1.1960  -16.5585  -47.3055 H         1 UNK         0.0600 
    164 H164        0.6398  -15.6153  -43.8959 H         1 UNK         0.3000 
    165 H165       -0.1724  -17.1760  -40.7809 H         1 UNK         0.0600 
    166 H166        1.3411  -15.3372  -40.0527 H         1 UNK         0.0600 
    167 H167        2.2599  -16.6706  -40.7347 H         1 UNK         0.0600 
    168 H168        2.0048  -15.2115  -41.6814 H         1 UNK         0.0600 
    169 H169       -0.3670  -14.5110  -41.9174 H         1 UNK         0.3000 
    170 H170       -3.7979  -14.7682  -42.8469 H         1 UNK         0.0600 
    171 H171       -2.4170  -13.2617  -40.5611 H         1 UNK         0.0600 
    172 H172       -3.9561  -12.8349  -41.3094 H         1 UNK         0.0600 
    173 H173       -3.8095  -14.3235  -40.3889 H         1 UNK         0.0600 
    174 H174       -1.9171  -12.6045  -42.9060 H         1 UNK         0.3000 
    175 H175       -0.7299  -13.2322  -46.2250 H         1 UNK         0.0600 
    176 H176       -1.6662  -10.9977  -46.6218 H         1 UNK         0.0600 
    177 H177       -2.6123  -11.0804  -45.1347 H         1 UNK         0.0600 
    178 H178       -2.9775  -12.1566  -46.4791 H         1 UNK         0.0600 
    179 H179       -0.0374  -11.0366  -44.8291 H         1 UNK         0.3000 
    180 H180        1.7081  -10.8618  -43.0769 H         1 UNK         0.0600 
    181 H181        3.6048  -13.2563  -43.3710 H         1 UNK         0.0600 
    182 H182        2.7745  -12.7685  -41.8973 H         1 UNK         0.0600 
    183 H183        4.0005  -11.7230  -42.5978 H         1 UNK         0.0600 
    184 H184        3.2376  -11.8963  -45.4259 H         1 UNK         0.3000 
    185 H185        2.2656   -9.1877  -47.4715 H         1 UNK         0.0600 
    186 H186        5.0712   -9.6617  -46.3240 H         1 UNK         0.0600 
    187 H187        4.6964   -8.8355  -47.8373 H         1 UNK         0.0600 
    188 H188        4.2076   -8.1286  -46.3057 H         1 UNK         0.0600 
    189 H189        4.1089  -11.3578  -47.8293 H         1 UNK         0.3000 
    190 H190       -2.3383  -22.4006  -46.0794 H         1 UNK         0.3000 
    191 H191       -3.9230  -24.3397  -47.4720 H         1 UNK         0.0600 
    192 H192       -4.9873  -22.6428  -46.0554 H         1 UNK         0.0600 
    193 H193       -5.3670  -24.2356  -45.4280 H         1 UNK         0.0600 
    194 H194       -4.1533  -23.2474  -44.6239 H         1 UNK         0.0600 
    195 H195       -1.8141  -24.5744  -44.5667 H         1 UNK         0.3000 
    196 H196       -2.2742  -27.3383  -44.0629 H         1 UNK         0.0600 
    197 H197       -0.2371  -27.1515  -42.6447 H         1 UNK         0.0600 
    198 H198       -1.3190  -25.7927  -42.3770 H         1 UNK         0.0600 
    199 H199        0.1348  -25.5839  -43.3489 H         1 UNK         0.0600 
    200 H200        0.1111  -25.6743  -46.1253 H         1 UNK         0.3000 
    201 H201        1.4871  -28.0614  -46.9868 H         1 UNK         0.0600 
    202 H202        2.4973  -25.7564  -46.9764 H         1 UNK         0.0600 
    203 H203        1.3784  -25.2734  -48.2520 H         1 UNK         0.0600 
    204 H204        2.5867  -26.5102  -48.5610 H         1 UNK         0.0600 
    205 H205       -1.5813  -26.8343  -47.7956 H         1 UNK         0.3000 
    206 H206       -3.1448  -27.2029  -49.2837 H         1 UNK         0.0600 
    207 H207       -2.6616  -29.6344  -48.9068 H         1 UNK         0.0600 
    208 H208       -3.2711  -29.3173  -50.5222 H         1 UNK         0.0600 
    209 H209       -1.5581  -29.6248  -50.2825 H         1 UNK         0.0600 
    210 H210       -1.1533  -25.3237  -49.8764 H         1 UNK         0.3000 
    211 H211       -0.9448  -25.2517  -52.8591 H         1 UNK         0.0600 
    212 H212        0.4679  -23.6583  -50.6501 H         1 UNK         0.0600 
    213 H213        0.6672  -23.3868  -52.3802 H         1 UNK         0.0600 
    214 H214        1.1933  -24.9024  -51.6613 H         1 UNK         0.0600 
    215 H215       -3.3809  -25.1466  -52.4537 H         1 UNK         0.3000 
    216 H216       -5.3668  -24.1737  -52.3493 H         1 UNK         0.0600 
    217 H217       -5.6822  -21.8556  -53.1212 H         1 UNK         0.0600 
    218 H218       -4.5317  -22.6751  -54.1553 H         1 UNK         0.0600 
    219 H219       -3.9608  -21.5122  -52.9644 H         1 UNK         0.0600 
    220 H220       -4.9574  -21.0620  -51.1418 H         1 UNK         0.3000 
    221 H221       -4.1937  -21.7278  -48.4116 H         1 UNK         0.0600 
    222 H222       -7.0142  -20.6552  -48.9815 H         1 UNK         0.0600 
    223 H223       -6.6394  -22.2467  -48.3195 H         1 UNK         0.0600 
    224 H224       -6.2763  -20.8044  -47.3886 H         1 UNK         0.0600 
    225 H225       -2.9108  -20.3605  -50.4081 H         1 UNK         0.3000 
    226 H226       -1.7892  -18.5761  -50.9662 H         1 UNK         0.0600 
    227 H227       -1.3571  -18.0764  -48.5844 H         1 UNK         0.0600 
    228 H228       -1.5416  -16.5941  -49.5046 H         1 UNK         0.0600 
    229 H229       -2.8523  -17.1343  -48.4831 H         1 UNK         0.0600 
    230 H230       -5.1128  -17.8566  -50.0924 H         1 UNK         0.3000 
    231 H231       -5.5624  -16.2200  -52.5361 H         1 UNK         0.0600 
    232 H232       -7.4750  -17.2332  -50.3499 H         1 UNK         0.0600 
    233 H233       -7.9176  -16.1842  -51.6921 H         1 UNK         0.0600 
    234 H234       -6.8188  -15.6002  -50.4521 H         1 UNK         0.0600 
    235 H235       -7.1100  -17.0602  -54.0779 H         1 UNK         0.3000 
    236 H236       -7.9946  -18.4597  -55.5188 H         1 UNK         0.0600 
    237 H237       -8.2392  -20.4967  -53.2474 H         1 UNK         0.0600 
    238 H238       -9.3654  -19.1717  -53.5395 H         1 UNK         0.0600 
    239 H239       -9.1835  -20.4497  -54.7280 H         1 UNK         0.0600 
    240 H240       -5.0490  -18.5119  -55.1869 H         1 UNK         0.3000 
    241 H241       -4.0613  -21.1008  -55.8878 H         1 UNK         0.0600 
    242 H242       -4.1978  -21.3814  -59.4324 H         1 UNK         0.3800 
    243 H243       -3.5616  -22.0488  -57.9570 H         1 UNK         0.3800 
    244 H244       -2.0136  -19.8549  -56.6420 H         1 UNK         0.0800 
    245 H245       -2.8497  -18.3372  -56.4103 H         1 UNK         0.0800 
    246 H246       -0.5409  -17.9056  -55.1167 H         1 UNK         0.0800 
    247 H247        0.0108  -19.5630  -55.0411 H         1 UNK         0.0800 
@<TRIPOS>BOND
     1    1    2 1    
     2    1  127 1    
     3    1  128 1    
     4    1  129 1    
     5    2    3 2    
     6    2    4 am   BACKBONE|DICT|INTERRES
     7    4    5 1    
     8    4  130 1    
     9    5    6 1    
    10    5   65 1    
    11    5  131 1    
    12    6    7 1    
    13    6  132 1    
    14    6  133 1    
    15    7    8 1    
    16    8    9 1    
    17    8  134 1    
    18    8  135 1    
    19    9   10 ar   
    20    9   14 ar   
    21   10   11 ar   
    22   10  136 1    
    23   11   12 ar   
    24   11  126 1    
    25   12   13 ar   
    26   12  137 1    
    27   13   14 ar   
    28   13   15 1    
    29   14  138 1    
    30   15   16 1    
    31   15  139 1    
    32   15  140 1    
    33   16   17 1    
    34   17   18 1    
    35   17  141 1    
    36   17  142 1    
    37   18   19 1    
    38   18   67 1    
    39   18  143 1    
    40   19   20 am   BACKBONE|DICT|INTERRES
    41   19  144 1    
    42   20   21 2    
    43   20   22 1    
    44   22   23 1    
    45   22   24 1    
    46   22  145 1    
    47   23  146 1    
    48   23  147 1    
    49   23  148 1    
    50   24   25 am   BACKBONE|DICT|INTERRES
    51   24  149 1    
    52   25   26 2    
    53   25   27 1    
    54   27   28 1    
    55   27   29 1    
    56   27  150 1    
    57   28  151 1    
    58   28  152 1    
    59   28  153 1    
    60   29   30 am   BACKBONE|DICT|INTERRES
    61   29  154 1    
    62   30   31 2    
    63   30   32 1    
    64   32   33 1    
    65   32   34 1    
    66   32  155 1    
    67   33  156 1    
    68   33  157 1    
    69   33  158 1    
    70   34   35 am   BACKBONE|DICT|INTERRES
    71   34  159 1    
    72   35   36 2    
    73   35   37 1    
    74   37   38 1    
    75   37   39 1    
    76   37  160 1    
    77   38  161 1    
    78   38  162 1    
    79   38  163 1    
    80   39   40 am   BACKBONE|DICT|INTERRES
    81   39  164 1    
    82   40   41 2    
    83   40   42 1    
    84   42   43 1    
    85   42   44 1    
    86   42  165 1    
    87   43  166 1    
    88   43  167 1    
    89   43  168 1    
    90   44   45 am   BACKBONE|DICT|INTERRES
    91   44  169 1    
    92   45   46 2    
    93   45   47 1    
    94   47   48 1    
    95   47   49 1    
    96   47  170 1    
    97   48  171 1    
    98   48  172 1    
    99   48  173 1    
   100   49   50 am   BACKBONE|DICT|INTERRES
   101   49  174 1    
   102   50   51 2    
   103   50   52 1    
   104   52   53 1    
   105   52   54 1    
   106   52  175 1    
   107   53  176 1    
   108   53  177 1    
   109   53  178 1    
   110   54   55 am   BACKBONE|DICT|INTERRES
   111   54  179 1    
   112   55   56 2    
   113   55   57 1    
   114   57   58 1    
   115   57   59 1    
   116   57  180 1    
   117   58  181 1    
   118   58  182 1    
   119   58  183 1    
   120   59   60 am   BACKBONE|DICT|INTERRES
   121   59  184 1    
   122   60   61 2    
   123   60   62 1    
   124   62   63 1    
   125   62   64 1    
   126   62  185 1    
   127   63  186 1    
   128   63  187 1    
   129   63  188 1    
   130   64   65 am   BACKBONE|DICT|INTERRES
   131   64  189 1    
   132   65   66 2    
   133   67   68 2    
   134   67   69 am   BACKBONE|DICT|INTERRES
   135   69   70 1    
   136   69  190 1    
   137   70   71 1    
   138   70   72 1    
   139   70  191 1    
   140   71  192 1    
   141   71  193 1    
   142   71  194 1    
   143   72   73 2    
   144   72   74 am   BACKBONE|DICT|INTERRES
   145   74   75 1    
   146   74  195 1    
   147   75   76 1    
   148   75   77 1    
   149   75  196 1    
   150   76  197 1    
   151   76  198 1    
   152   76  199 1    
   153   77   78 2    
   154   77   79 am   BACKBONE|DICT|INTERRES
   155   79   80 1    
   156   79  200 1    
   157   80   81 1    
   158   80   82 1    
   159   80  201 1    
   160   81  202 1    
   161   81  203 1    
   162   81  204 1    
   163   82   83 2    
   164   82   84 am   BACKBONE|DICT|INTERRES
   165   84   85 1    
   166   84  205 1    
   167   85   86 1    
   168   85   87 1    
   169   85  206 1    
   170   86  207 1    
   171   86  208 1    
   172   86  209 1    
   173   87   88 2    
   174   87   89 am   BACKBONE|DICT|INTERRES
   175   89   90 1    
   176   89  210 1    
   177   90   91 1    
   178   90   92 1    
   179   90  211 1    
   180   91  212 1    
   181   91  213 1    
   182   91  214 1    
   183   92   93 2    
   184   92   94 am   BACKBONE|DICT|INTERRES
   185   94   95 1    
   186   94  215 1    
   187   95   96 1    
   188   95   97 1    
   189   95  216 1    
   190   96  217 1    
   191   96  218 1    
   192   96  219 1    
   193   97   98 2    
   194   97   99 am   BACKBONE|DICT|INTERRES
   195   99  100 1    
   196   99  220 1    
   197  100  101 1    
   198  100  102 1    
   199  100  221 1    
   200  101  222 1    
   201  101  223 1    
   202  101  224 1    
   203  102  103 2    
   204  102  104 am   BACKBONE|DICT|INTERRES
   205  104  105 1    
   206  104  225 1    
   207  105  106 1    
   208  105  107 1    
   209  105  226 1    
   210  106  227 1    
   211  106  228 1    
   212  106  229 1    
   213  107  108 2    
   214  107  109 am   BACKBONE|DICT|INTERRES
   215  109  110 1    
   216  109  230 1    
   217  110  111 1    
   218  110  112 1    
   219  110  231 1    
   220  111  232 1    
   221  111  233 1    
   222  111  234 1    
   223  112  113 2    
   224  112  114 am   BACKBONE|DICT|INTERRES
   225  114  115 1    
   226  114  235 1    
   227  115  116 1    
   228  115  117 1    
   229  115  236 1    
   230  116  237 1    
   231  116  238 1    
   232  116  239 1    
   233  117  118 2    
   234  117  119 am   BACKBONE|DICT|INTERRES
   235  119  120 1    
   236  119  240 1    
   237  120  121 1    
   238  120  124 1    
   239  120  241 1    
   240  121  122 am   BACKBONE|DICT|INTERRES
   241  121  123 2    
   242  122  242 1    
   243  122  243 1    
   244  124  125 1    
   245  124  244 1    
   246  124  245 1    
   247  125  126 1    
   248  126  246 1    
   249  126  247 1    
@<TRIPOS>SUBSTRUCTURE
     1 UNK         1 GROUP             0       ****    0 ROOT    
