@<TRIPOS>MOLECULE
3R540
247   249    1
SMALL
USER_CHARGES


@<TRIPOS>ATOM
      1 CA         -5.9189  -16.4943  -48.6635 C.3       0 UNK        -0.1800 
      2 C          -4.5234  -15.9011  -48.5335 C.2       0 UNK         0.5000 
      3 O          -3.9157  -15.5399  -49.5396 O.2       0 UNK        -0.5000 
      4 N          -4.0175  -15.8007  -47.3016 N.am      1 UNK        -0.5000 
      5 CA         -2.6987  -15.2769  -46.9590 C.3       1 UNK         0.1400 
      6 C6         -1.6021  -16.3603  -47.1056 C.3       23 UNK        -0.0398 
      7 S7          0.1009  -15.7018  -47.0716 S.3       23 UNK        -0.2404 
      8 C8          0.4428  -15.3133  -48.8196 C.3       23 UNK        -0.0205 
      9 C9          0.2469  -16.5109  -49.7369 C.ar      23 UNK        -0.0193 
     10 C10        -0.8443  -16.5464  -50.6090 C.ar      23 UNK        -0.1150 
     11 C11        -1.0713  -17.6593  -51.4202 C.ar      23 UNK        -0.0193 
     12 C12        -0.1875  -18.7392  -51.3657 C.ar      23 UNK        -0.1150 
     13 C13         0.9128  -18.7140  -50.5026 C.ar      23 UNK        -0.0193 
     14 C14         1.1318  -17.5925  -49.6965 C.ar      23 UNK        -0.1150 
     15 C15         1.8341  -19.9226  -50.4136 C.3       23 UNK        -0.0205 
     16 S16         1.6324  -20.8588  -48.8569 S.3       23 UNK        -0.2404 
     17 C17        -0.1672  -20.7962  -48.5614 C.3       23 UNK        -0.0398 
     18 CA         -0.7089  -22.0336  -47.8108 C.3       11 UNK         0.1400 
     19 N          -0.1523  -22.1788  -46.4695 N.am      11 UNK        -0.5000 
     20 C           0.2131  -23.3483  -45.9288 C.2       10 UNK         0.5000 
     21 O           0.2814  -24.4030  -46.5594 O.2       10 UNK        -0.5000 
     22 CA          0.5125  -23.3577  -44.4153 C.3       10 UNK         0.1400 
     23 CB          2.0253  -23.3264  -44.1566 C.3       10 UNK        -0.1800 
     24 N          -0.1423  -22.2639  -43.6906 N.am      10 UNK        -0.5000 
     25 C          -1.4736  -22.1366  -43.5715 C.2       9 UNK         0.5000 
     26 O          -2.2762  -22.9533  -44.0261 O.2       9 UNK        -0.5000 
     27 CA         -2.0182  -20.8670  -42.8908 C.3       9 UNK         0.1400 
     28 CB         -2.3479  -21.1504  -41.4187 C.3       9 UNK        -0.1800 
     29 N          -1.1264  -19.7091  -42.9680 N.am      9 UNK        -0.5000 
     30 C          -0.6821  -19.1245  -44.0895 C.2       8 UNK         0.5000 
     31 O          -0.9814  -19.5093  -45.2232 O.2       8 UNK        -0.5000 
     32 CA          0.2986  -17.9442  -43.9198 C.3       8 UNK         0.1400 
     33 CB          0.4039  -17.4162  -42.4720 C.3       8 UNK        -0.1800 
     34 N           1.6316  -18.2712  -44.4303 N.am      8 UNK        -0.5000 
     35 C           2.4038  -19.3090  -44.0812 C.2       7 UNK         0.5000 
     36 O           2.0636  -20.1703  -43.2682 O.2       7 UNK        -0.5000 
     37 CA          3.8051  -19.3969  -44.7191 C.3       7 UNK         0.1400 
     38 CB          3.7402  -19.9471  -46.1555 C.3       7 UNK        -0.1800 
     39 N           4.5808  -18.1500  -44.6503 N.am      7 UNK        -0.5000 
     40 C           4.3596  -16.9912  -45.2856 C.2       6 UNK         0.5000 
     41 O           3.4424  -16.8040  -46.0882 O.2       6 UNK        -0.5000 
     42 CA          5.3443  -15.8485  -44.9742 C.3       6 UNK         0.1400 
     43 CB          6.4722  -15.8105  -46.0167 C.3       6 UNK        -0.1800 
     44 N           4.6709  -14.5503  -44.9529 N.am      6 UNK        -0.5000 
     45 C           3.7613  -14.1847  -44.0413 C.2       5 UNK         0.5000 
     46 O           3.4637  -14.8726  -43.0610 O.2       5 UNK        -0.5000 
     47 CA          3.0772  -12.8266  -44.2834 C.3       5 UNK         0.1400 
     48 CB          2.1094  -12.8998  -45.4758 C.3       5 UNK        -0.1800 
     49 N           2.3362  -12.3896  -43.1016 N.am      5 UNK        -0.5000 
     50 C           2.8733  -11.7131  -42.0770 C.2       4 UNK         0.5000 
     51 O           4.0469  -11.3386  -42.0526 O.2       4 UNK        -0.5000 
     52 CA          1.9555  -11.3680  -40.8859 C.3       4 UNK         0.1400 
     53 CB          1.5915   -9.8747  -40.9074 C.3       4 UNK        -0.1800 
     54 N           0.7171  -12.1462  -40.8662 N.am      4 UNK        -0.5000 
     55 C           0.6008  -13.3965  -40.3988 C.2       3 UNK         0.5000 
     56 O           1.5208  -14.0172  -39.8663 O.2       3 UNK        -0.5000 
     57 CA         -0.7799  -14.0671  -40.5580 C.3       3 UNK         0.1400 
     58 CB         -1.5900  -13.9466  -39.2583 C.3       3 UNK        -0.1800 
     59 N          -1.5722  -13.5228  -41.6675 N.am      3 UNK        -0.5000 
     60 C          -1.2461  -13.6448  -42.9604 C.2       2 UNK         0.5000 
     61 O          -0.2406  -14.2350  -43.3550 O.2       2 UNK        -0.5000 
     62 CA         -2.1496  -12.9153  -43.9685 C.3       2 UNK         0.1400 
     63 CB         -1.6637  -11.4695  -44.1594 C.3       2 UNK        -0.1800 
     64 N          -2.1613  -13.5820  -45.2700 N.am      2 UNK        -0.5000 
     65 C          -2.8040  -14.7267  -45.5265 C.2       1 UNK         0.5000 
     66 O          -3.4846  -15.3337  -44.6943 O.2       1 UNK        -0.5000 
     67 C          -2.2411  -21.9492  -47.7074 C.2       11 UNK         0.5000 
     68 O          -2.9396  -22.7352  -48.3464 O.2       11 UNK        -0.5000 
     69 N          -2.7383  -20.9747  -46.9325 N.am      12 UNK        -0.5000 
     70 CA         -4.1333  -20.5330  -46.9525 C.3       12 UNK         0.1400 
     71 CB         -4.2558  -19.2169  -46.1734 C.3       12 UNK        -0.1800 
     72 C          -5.1551  -21.5580  -46.4358 C.2       12 UNK         0.5000 
     73 O          -6.2732  -21.5902  -46.9496 O.2       12 UNK        -0.5000 
     74 N          -4.7689  -22.3606  -45.4377 N.am      13 UNK        -0.5000 
     75 CA         -5.6386  -23.3497  -44.8054 C.3       13 UNK         0.1400 
     76 CB         -5.6098  -23.1666  -43.2784 C.3       13 UNK        -0.1800 
     77 C          -5.2127  -24.7668  -45.2030 C.2       13 UNK         0.5000 
     78 O          -6.0399  -25.5287  -45.7032 O.2       13 UNK        -0.5000 
     79 N          -3.9289  -25.0917  -44.9965 N.am      14 UNK        -0.5000 
     80 CA         -3.3807  -26.4373  -45.1858 C.3       14 UNK         0.1400 
     81 CB         -1.9935  -26.5162  -44.5354 C.3       14 UNK        -0.1800 
     82 C          -3.3207  -26.8899  -46.6570 C.2       14 UNK         0.5000 
     83 O          -3.4156  -28.0902  -46.9169 O.2       14 UNK        -0.5000 
     84 N          -3.1861  -25.9333  -47.5843 N.am      15 UNK        -0.5000 
     85 CA         -3.1892  -26.1636  -49.0307 C.3       15 UNK         0.1400 
     86 CB         -1.8235  -25.7555  -49.6075 C.3       15 UNK        -0.1800 
     87 C          -4.3445  -25.4170  -49.7240 C.2       15 UNK         0.5000 
     88 O          -4.3437  -25.3192  -50.9507 O.2       15 UNK        -0.5000 
     89 N          -5.2978  -24.8850  -48.9412 N.am      16 UNK        -0.5000 
     90 CA         -6.5107  -24.1729  -49.3693 C.3       16 UNK         0.1400 
     91 CB         -7.5195  -25.1775  -49.9628 C.3       16 UNK        -0.1800 
     92 C          -6.2550  -22.9708  -50.3108 C.2       16 UNK         0.5000 
     93 O          -7.1005  -22.6619  -51.1520 O.2       16 UNK        -0.5000 
     94 N          -5.0817  -22.3353  -50.1690 N.am      17 UNK        -0.5000 
     95 CA         -4.5428  -21.2461  -50.9906 C.3       17 UNK         0.1400 
     96 CB         -5.4439  -19.9949  -50.9288 C.3       17 UNK        -0.1800 
     97 C          -4.1975  -21.6575  -52.4399 C.2       17 UNK         0.5000 
     98 O          -3.9808  -20.7808  -53.2752 O.2       17 UNK        -0.5000 
     99 N          -4.1049  -22.9669  -52.7177 N.am      18 UNK        -0.5000 
    100 CA        -3.7208  -23.5154  -54.0232 C.3       18 UNK         0.1400 
    101 CB        -4.4393  -24.8583  -54.2328 C.3       18 UNK        -0.1800 
    102 C         -2.1940  -23.6811  -54.1735 C.2       18 UNK         0.5000 
    103 O         -1.7310  -24.0800  -55.2426 O.2       18 UNK        -0.5000 
    104 N         -1.4358  -23.3797  -53.1088 N.am      19 UNK        -0.5000 
    105 CA         0.0271  -23.4557  -53.0441 C.3       19 UNK         0.1400 
    106 CB         0.4608  -23.3083  -51.5777 C.3       19 UNK        -0.1800 
    107 C          0.7638  -22.4327  -53.9357 C.2       19 UNK         0.5000 
    108 O          1.9569  -22.6059  -54.1876 O.2       19 UNK        -0.5000 
    109 N          0.0541  -21.4009  -54.4027 N.am      20 UNK        -0.5000 
    110 CA         0.5123  -20.4299  -55.3889 C.3       20 UNK         0.1400 
    111 CB         1.0867  -19.1938  -54.6769 C.3       20 UNK        -0.1800 
    112 C         -0.6771  -20.0622  -56.2879 C.2       20 UNK         0.5000 
    113 O         -1.8229  -20.3839  -55.9584 O.2       20 UNK        -0.5000 
    114 N         -0.3936  -19.3813  -57.4043 N.am      21 UNK        -0.5000 
    115 CA        -1.3682  -18.9407  -58.4075 C.3       21 UNK         0.1400 
    116 CB        -0.6301  -18.7069  -59.7385 C.3       21 UNK        -0.1800 
    117 C         -2.1822  -17.7075  -57.9518 C.2       21 UNK         0.5000 
    118 O         -2.2139  -16.6900  -58.6470 O.2       21 UNK        -0.5000 
    119 N         -2.8171  -17.8181  -56.7810 N.am      22 UNK        -0.5000 
    120 CA        -3.6488  -16.7770  -56.1559 C.3       22 UNK         0.1400 
    121 C         -5.0916  -16.6741  -56.7337 C.2       22 UNK         0.5000 
    122 N         -5.5378  -17.5851  -57.5904 N.am      22 UNK        -0.7600 
    123 O         -5.8191  -15.7405  -56.4064 O.2       22 UNK        -0.5000 
    124 C124       -3.6811  -16.9272  -54.6138 C.3       23 UNK        -0.0398 
    125 S125       -2.0259  -16.7781  -53.8609 S.3       23 UNK        -0.2404 
    126 C126       -2.2928  -17.7049  -52.3220 C.3       23 UNK        -0.0205 
    127 H127       -6.3020  -16.8451  -47.7049 H         1 UNK         0.0600 
    128 H128       -5.9040  -17.3383  -49.3524 H         1 UNK         0.0600 
    129 H129       -6.6090  -15.7469  -49.0546 H         1 UNK         0.0600 
    130 H130       -4.5697  -16.0607  -46.4935 H         1 UNK         0.3000 
    131 H131       -2.4747  -14.4458  -47.6317 H         1 UNK         0.0600 
    132 H132       -1.6934  -17.1012  -46.3117 H         1 UNK         0.0800 
    133 H133       -1.7490  -16.9219  -48.0269 H         1 UNK         0.0800 
    134 H134       -0.1923  -14.4817  -49.1285 H         1 UNK         0.0800 
    135 H135        1.4716  -14.9610  -48.9052 H         1 UNK         0.0800 
    136 H136       -1.5348  -15.7155  -50.6425 H         1 UNK         0.1150 
    137 H137       -0.3677  -19.6087  -51.9818 H         1 UNK         0.1150 
    138 H138        1.9681  -17.5765  -49.0108 H         1 UNK         0.1150 
    139 H139        1.6680  -20.5918  -51.2582 H         1 UNK         0.0800 
    140 H140        2.8705  -19.5920  -50.4928 H         1 UNK         0.0800 
    141 H141       -0.6752  -20.7124  -49.5224 H         1 UNK         0.0800 
    142 H142       -0.3827  -19.8749  -48.0160 H         1 UNK         0.0800 
    143 H143       -0.4685  -22.9103  -48.4151 H         1 UNK         0.0600 
    144 H144       -0.1909  -21.3582  -45.8771 H         1 UNK         0.3000 
    145 H145        0.1272  -24.2943  -44.0090 H         1 UNK         0.0600 
    146 H146        2.2459  -23.3390  -43.0891 H         1 UNK         0.0600 
    147 H147        2.5128  -24.1951  -44.6007 H         1 UNK         0.0600 
    148 H148        2.4892  -22.4400  -44.5854 H         1 UNK         0.0600 
    149 H149        0.4613  -21.5331  -43.3279 H         1 UNK         0.3000 
    150 H150       -2.9461  -20.6023  -43.3999 H         1 UNK         0.0600 
    151 H151       -3.0325  -21.9946  -41.3254 H         1 UNK         0.0600 
    152 H152       -2.8288  -20.2920  -40.9494 H         1 UNK         0.0600 
    153 H153       -1.4516  -21.3899  -40.8451 H         1 UNK         0.0600 
    154 H154       -0.7923  -19.3469  -42.0870 H         1 UNK         0.3000 
    155 H155       -0.0846  -17.1297  -44.5324 H         1 UNK         0.0600 
    156 H156        1.0428  -16.5332  -42.4309 H         1 UNK         0.0600 
    157 H157        0.8238  -18.1535  -41.7871 H         1 UNK         0.0600 
    158 H158       -0.5743  -17.1190  -42.0927 H         1 UNK         0.0600 
    159 H159        2.0113  -17.6316  -45.1240 H         1 UNK         0.3000 
    160 H160        4.3668  -20.1205  -44.1261 H         1 UNK         0.0600 
    161 H161        3.1813  -19.2887  -46.8204 H         1 UNK         0.0600 
    162 H162        3.2489  -20.9194  -46.1819 H         1 UNK         0.0600 
    163 H163        4.7377  -20.0766  -46.5748 H         1 UNK         0.0600 
    164 H164        5.3529  -18.1794  -43.9989 H         1 UNK         0.3000 
    165 H165        5.7857  -16.0179  -43.9897 H         1 UNK         0.0600 
    166 H166        6.0859  -15.6289  -47.0206 H         1 UNK         0.0600 
    167 H167        7.1963  -15.0283  -45.7879 H         1 UNK         0.0600 
    168 H168        7.0140  -16.7569  -46.0406 H         1 UNK         0.0600 
    169 H169        4.8363  -13.9498  -45.7469 H         1 UNK         0.3000 
    170 H170        3.8507  -12.0921  -44.5178 H         1 UNK         0.0600 
    171 H171        2.6313  -13.1669  -46.3953 H         1 UNK         0.0600 
    172 H172        1.3345  -13.6481  -45.3168 H         1 UNK         0.0600 
    173 H173        1.6205  -11.9412  -45.6485 H         1 UNK         0.0600 
    174 H174        1.4024  -12.7664  -43.0045 H         1 UNK         0.3000 
    175 H175        2.5159  -11.5686  -39.9703 H         1 UNK         0.0600 
    176 H176        1.0282   -9.6104  -41.8033 H         1 UNK         0.0600 
    177 H177        0.9907   -9.6024  -40.0394 H         1 UNK         0.0600 
    178 H178        2.4875   -9.2528  -40.8879 H         1 UNK         0.0600 
    179 H179       -0.0977  -11.7098  -41.2705 H         1 UNK         0.3000 
    180 H180       -0.6061  -15.1265  -40.7527 H         1 UNK         0.0600 
    181 H181       -1.8133  -12.9064  -39.0178 H         1 UNK         0.0600 
    182 H182       -1.0408  -14.3677  -38.4151 H         1 UNK         0.0600 
    183 H183       -2.5346  -14.4861  -39.3303 H         1 UNK         0.0600 
    184 H184       -2.4074  -13.0139  -41.4152 H         1 UNK         0.3000 
    185 H185       -3.1693  -12.8939  -43.5780 H         1 UNK         0.0600 
    186 H186       -2.3020  -10.9279  -44.8578 H         1 UNK         0.0600 
    187 H187       -1.6799  -10.9209  -43.2168 H         1 UNK         0.0600 
    188 H188       -0.6427  -11.4338  -44.5417 H         1 UNK         0.0600 
    189 H189       -1.5832  -13.1709  -45.9881 H         1 UNK         0.3000 
    190 H190       -2.0973  -20.3950  -46.3953 H         1 UNK         0.3000 
    191 H191       -4.3893  -20.3240  -47.9922 H         1 UNK         0.0600 
    192 H192       -3.9840  -19.3378  -45.1251 H         1 UNK         0.0600 
    193 H193       -5.2759  -18.8324  -46.2078 H         1 UNK         0.0600 
    194 H194       -3.6071  -18.4556  -46.6005 H         1 UNK         0.0600 
    195 H195       -3.8125  -22.3205  -45.1041 H         1 UNK         0.3000 
    196 H196       -6.6740  -23.2171  -45.1264 H         1 UNK         0.0600 
    197 H197       -6.2805  -23.8748  -42.7905 H         1 UNK         0.0600 
    198 H198       -5.9360  -22.1650  -42.9980 H         1 UNK         0.0600 
    199 H199       -4.6152  -23.3209  -42.8611 H         1 UNK         0.0600 
    200 H200       -3.3036  -24.3953  -44.5975 H         1 UNK         0.3000 
    201 H201       -4.0349  -27.1354  -44.6589 H         1 UNK         0.0600 
    202 H202       -2.0254  -26.2129  -43.4888 H         1 UNK         0.0600 
    203 H203       -1.2795  -25.8774  -45.0507 H         1 UNK         0.0600 
    204 H204       -1.6039  -27.5344  -44.5695 H         1 UNK         0.0600 
    205 H205       -3.0981  -24.9705  -47.2876 H         1 UNK         0.3000 
    206 H206       -3.3407  -27.2217  -49.2514 H         1 UNK         0.0600 
    207 H207       -1.0109  -26.2861  -49.1110 H         1 UNK         0.0600 
    208 H208       -1.7592  -25.9855  -50.6717 H         1 UNK         0.0600 
    209 H209       -1.6442  -24.6885  -49.4915 H         1 UNK         0.0600 
    210 H210       -5.2150  -25.0351  -47.9455 H         1 UNK         0.3000 
    211 H211       -6.9546  -23.7577  -48.4639 H         1 UNK         0.0600 
    212 H212       -7.1614  -25.5987  -50.9029 H         1 UNK         0.0600 
    213 H213       -8.4807  -24.7017  -50.1607 H         1 UNK         0.0600 
    214 H214       -7.7051  -26.0022  -49.2746 H         1 UNK         0.0600 
    215 H215       -4.4429  -22.6812  -49.4562 H         1 UNK         0.3000 
    216 H216       -3.5915  -20.9782  -50.5292 H         1 UNK         0.0600 
    217 H217       -5.7148  -19.7499  -49.9025 H         1 UNK         0.0600 
    218 H218       -6.3665  -20.1321  -51.4930 H         1 UNK         0.0600 
    219 H219       -4.9360  -19.1256  -51.3472 H         1 UNK         0.0600 
    220 H220       -4.2937  -23.6492  -51.9880 H         1 UNK         0.3000 
    221 H221       -4.0509  -22.8351  -54.8112 H         1 UNK         0.0600 
    222 H222       -4.0755  -25.6229  -53.5461 H         1 UNK         0.0600 
    223 H223       -5.5151  -24.7592  -54.0868 H         1 UNK         0.0600 
    224 H224       -4.2816  -25.2304  -55.2458 H         1 UNK         0.0600 
    225 H225       -1.9110  -23.0793  -52.2719 H         1 UNK         0.3000 
    226 H226        0.3273  -24.4473  -53.3887 H         1 UNK         0.0600 
    227 H227        0.1294  -24.1578  -50.9833 H         1 UNK         0.0600 
    228 H228        1.5468  -23.2613  -51.4849 H         1 UNK         0.0600 
    229 H229        0.0520  -22.4035  -51.1300 H         1 UNK         0.0600 
    230 H230       -0.9423  -21.3686  -54.2257 H         1 UNK         0.3000 
    231 H231        1.2827  -20.8794  -56.0191 H         1 UNK         0.0600 
    232 H232        1.5323  -18.5011  -55.3911 H         1 UNK         0.0600 
    233 H233        1.8641  -19.4697  -53.9641 H         1 UNK         0.0600 
    234 H234        0.3140  -18.6487  -54.1366 H         1 UNK         0.0600 
    235 H235        0.5662  -19.1228  -57.5823 H         1 UNK         0.3000 
    236 H236       -2.0850  -19.7485  -58.5696 H         1 UNK         0.0600 
    237 H237       -0.1147  -19.6094  -60.0675 H         1 UNK         0.0600 
    238 H238       -1.3269  -18.4284  -60.5302 H         1 UNK         0.0600 
    239 H239        0.1093  -17.9095  -59.6545 H         1 UNK         0.0600 
    240 H240       -2.7161  -18.6894  -56.2687 H         1 UNK         0.3000 
    241 H241       -3.1847  -15.8128  -56.3725 H         1 UNK         0.0600 
    242 H242       -4.9536  -18.3575  -57.8671 H         1 UNK         0.3800 
    243 H243       -6.4715  -17.5033  -57.9617 H         1 UNK         0.3800 
    244 H244       -4.3149  -16.1624  -54.1614 H         1 UNK         0.0800 
    245 H245       -4.1175  -17.8904  -54.3416 H         1 UNK         0.0800 
    246 H246       -2.5416  -18.7375  -52.5650 H         1 UNK         0.0800 
    247 H247       -3.1528  -17.2917  -51.7922 H         1 UNK         0.0800 
@<TRIPOS>BOND
     1    1    2 1    
     2    1  127 1    
     3    1  128 1    
     4    1  129 1    
     5    2    3 2    
     6    2    4 am   BACKBONE|DICT|INTERRES
     7    4    5 1    
     8    4  130 1    
     9    5    6 1    
    10    5   65 1    
    11    5  131 1    
    12    6    7 1    
    13    6  132 1    
    14    6  133 1    
    15    7    8 1    
    16    8    9 1    
    17    8  134 1    
    18    8  135 1    
    19    9   10 ar   
    20    9   14 ar   
    21   10   11 ar   
    22   10  136 1    
    23   11   12 ar   
    24   11  126 1    
    25   12   13 ar   
    26   12  137 1    
    27   13   14 ar   
    28   13   15 1    
    29   14  138 1    
    30   15   16 1    
    31   15  139 1    
    32   15  140 1    
    33   16   17 1    
    34   17   18 1    
    35   17  141 1    
    36   17  142 1    
    37   18   19 1    
    38   18   67 1    
    39   18  143 1    
    40   19   20 am   BACKBONE|DICT|INTERRES
    41   19  144 1    
    42   20   21 2    
    43   20   22 1    
    44   22   23 1    
    45   22   24 1    
    46   22  145 1    
    47   23  146 1    
    48   23  147 1    
    49   23  148 1    
    50   24   25 am   BACKBONE|DICT|INTERRES
    51   24  149 1    
    52   25   26 2    
    53   25   27 1    
    54   27   28 1    
    55   27   29 1    
    56   27  150 1    
    57   28  151 1    
    58   28  152 1    
    59   28  153 1    
    60   29   30 am   BACKBONE|DICT|INTERRES
    61   29  154 1    
    62   30   31 2    
    63   30   32 1    
    64   32   33 1    
    65   32   34 1    
    66   32  155 1    
    67   33  156 1    
    68   33  157 1    
    69   33  158 1    
    70   34   35 am   BACKBONE|DICT|INTERRES
    71   34  159 1    
    72   35   36 2    
    73   35   37 1    
    74   37   38 1    
    75   37   39 1    
    76   37  160 1    
    77   38  161 1    
    78   38  162 1    
    79   38  163 1    
    80   39   40 am   BACKBONE|DICT|INTERRES
    81   39  164 1    
    82   40   41 2    
    83   40   42 1    
    84   42   43 1    
    85   42   44 1    
    86   42  165 1    
    87   43  166 1    
    88   43  167 1    
    89   43  168 1    
    90   44   45 am   BACKBONE|DICT|INTERRES
    91   44  169 1    
    92   45   46 2    
    93   45   47 1    
    94   47   48 1    
    95   47   49 1    
    96   47  170 1    
    97   48  171 1    
    98   48  172 1    
    99   48  173 1    
   100   49   50 am   BACKBONE|DICT|INTERRES
   101   49  174 1    
   102   50   51 2    
   103   50   52 1    
   104   52   53 1    
   105   52   54 1    
   106   52  175 1    
   107   53  176 1    
   108   53  177 1    
   109   53  178 1    
   110   54   55 am   BACKBONE|DICT|INTERRES
   111   54  179 1    
   112   55   56 2    
   113   55   57 1    
   114   57   58 1    
   115   57   59 1    
   116   57  180 1    
   117   58  181 1    
   118   58  182 1    
   119   58  183 1    
   120   59   60 am   BACKBONE|DICT|INTERRES
   121   59  184 1    
   122   60   61 2    
   123   60   62 1    
   124   62   63 1    
   125   62   64 1    
   126   62  185 1    
   127   63  186 1    
   128   63  187 1    
   129   63  188 1    
   130   64   65 am   BACKBONE|DICT|INTERRES
   131   64  189 1    
   132   65   66 2    
   133   67   68 2    
   134   67   69 am   BACKBONE|DICT|INTERRES
   135   69   70 1    
   136   69  190 1    
   137   70   71 1    
   138   70   72 1    
   139   70  191 1    
   140   71  192 1    
   141   71  193 1    
   142   71  194 1    
   143   72   73 2    
   144   72   74 am   BACKBONE|DICT|INTERRES
   145   74   75 1    
   146   74  195 1    
   147   75   76 1    
   148   75   77 1    
   149   75  196 1    
   150   76  197 1    
   151   76  198 1    
   152   76  199 1    
   153   77   78 2    
   154   77   79 am   BACKBONE|DICT|INTERRES
   155   79   80 1    
   156   79  200 1    
   157   80   81 1    
   158   80   82 1    
   159   80  201 1    
   160   81  202 1    
   161   81  203 1    
   162   81  204 1    
   163   82   83 2    
   164   82   84 am   BACKBONE|DICT|INTERRES
   165   84   85 1    
   166   84  205 1    
   167   85   86 1    
   168   85   87 1    
   169   85  206 1    
   170   86  207 1    
   171   86  208 1    
   172   86  209 1    
   173   87   88 2    
   174   87   89 am   BACKBONE|DICT|INTERRES
   175   89   90 1    
   176   89  210 1    
   177   90   91 1    
   178   90   92 1    
   179   90  211 1    
   180   91  212 1    
   181   91  213 1    
   182   91  214 1    
   183   92   93 2    
   184   92   94 am   BACKBONE|DICT|INTERRES
   185   94   95 1    
   186   94  215 1    
   187   95   96 1    
   188   95   97 1    
   189   95  216 1    
   190   96  217 1    
   191   96  218 1    
   192   96  219 1    
   193   97   98 2    
   194   97   99 am   BACKBONE|DICT|INTERRES
   195   99  100 1    
   196   99  220 1    
   197  100  101 1    
   198  100  102 1    
   199  100  221 1    
   200  101  222 1    
   201  101  223 1    
   202  101  224 1    
   203  102  103 2    
   204  102  104 am   BACKBONE|DICT|INTERRES
   205  104  105 1    
   206  104  225 1    
   207  105  106 1    
   208  105  107 1    
   209  105  226 1    
   210  106  227 1    
   211  106  228 1    
   212  106  229 1    
   213  107  108 2    
   214  107  109 am   BACKBONE|DICT|INTERRES
   215  109  110 1    
   216  109  230 1    
   217  110  111 1    
   218  110  112 1    
   219  110  231 1    
   220  111  232 1    
   221  111  233 1    
   222  111  234 1    
   223  112  113 2    
   224  112  114 am   BACKBONE|DICT|INTERRES
   225  114  115 1    
   226  114  235 1    
   227  115  116 1    
   228  115  117 1    
   229  115  236 1    
   230  116  237 1    
   231  116  238 1    
   232  116  239 1    
   233  117  118 2    
   234  117  119 am   BACKBONE|DICT|INTERRES
   235  119  120 1    
   236  119  240 1    
   237  120  121 1    
   238  120  124 1    
   239  120  241 1    
   240  121  122 am   BACKBONE|DICT|INTERRES
   241  121  123 2    
   242  122  242 1    
   243  122  243 1    
   244  124  125 1    
   245  124  244 1    
   246  124  245 1    
   247  125  126 1    
   248  126  246 1    
   249  126  247 1    
@<TRIPOS>SUBSTRUCTURE
     1 UNK         1 GROUP             0       ****    0 ROOT    
