@<TRIPOS>MOLECULE
3R540
247   249    1
SMALL
USER_CHARGES


@<TRIPOS>ATOM
      1 CA         -0.5695  -15.4254  -49.0958 C.3       0 UNK        -0.1800 
      2 C          -1.2485  -15.6164  -47.7489 C.2       0 UNK         0.5000 
      3 O          -0.6044  -15.4506  -46.7138 O.2       0 UNK        -0.5000 
      4 N          -2.5543  -15.9188  -47.7514 N.am      1 UNK        -0.5000 
      5 CA         -3.4335  -15.9761  -46.5740 C.3       1 UNK         0.1400 
      6 C6         -4.7644  -16.7188  -46.8843 C.3       23 UNK        -0.0398 
      7 S7         -4.5784  -18.5207  -47.1029 S.3       23 UNK        -0.2404 
      8 C8         -5.0388  -18.7677  -48.8521 C.3       23 UNK        -0.0205 
      9 C9         -3.8719  -18.4637  -49.7752 C.ar      23 UNK        -0.0193 
     10 C10        -3.9162  -17.4031  -50.6827 C.ar      23 UNK        -0.1150 
     11 C11        -2.7982  -17.0984  -51.4684 C.ar      23 UNK        -0.0193 
     12 C12        -1.6203  -17.8384  -51.3089 C.ar      23 UNK        -0.1150 
     13 C13        -1.5737  -18.9076  -50.4095 C.ar      23 UNK        -0.0193 
     14 C14        -2.7200  -19.2424  -49.6903 C.ar      23 UNK        -0.1150 
     15 C15        -0.2992  -19.7141  -50.2079 C.3       23 UNK        -0.0205 
     16 S16         0.7355  -19.0704  -48.8455 S.3       23 UNK        -0.2404 
     17 C17        -0.3134  -19.3252  -47.3706 C.3       23 UNK        -0.0398 
     18 CA         -0.3075  -20.8023  -46.8957 C.3       11 UNK         0.1400 
     19 N           0.6635  -21.0382  -45.8271 N.am      11 UNK        -0.5000 
     20 C           1.0149  -22.2441  -45.3632 C.2       10 UNK         0.5000 
     21 O           0.5866  -23.3039  -45.8214 O.2       10 UNK        -0.5000 
     22 CA          1.9634  -22.2633  -44.1504 C.3       10 UNK         0.1400 
     23 CB          3.4204  -22.0384  -44.5814 C.3       10 UNK        -0.1800 
     24 N           1.5896  -21.2716  -43.1400 N.am      10 UNK        -0.5000 
     25 C           0.4579  -21.3198  -42.4222 C.2       9 UNK         0.5000 
     26 O          -0.3685  -22.2280  -42.5098 O.2       9 UNK        -0.5000 
     27 CA          0.1806  -20.1330  -41.4819 C.3       9 UNK         0.1400 
     28 CB          0.9968  -20.2620  -40.1874 C.3       9 UNK        -0.1800 
     29 N           0.4512  -18.8393  -42.1107 N.am      9 UNK        -0.5000 
     30 C          -0.1993  -18.3704  -43.1852 C.2       8 UNK         0.5000 
     31 O          -1.1329  -18.9558  -43.7269 O.2       8 UNK        -0.5000 
     32 CA          0.3033  -17.0582  -43.8015 C.3       8 UNK         0.1400 
     33 CB         -0.2948  -15.8419  -43.0817 C.3       8 UNK        -0.1800 
     34 N           1.7592  -16.9584  -43.8194 N.am      8 UNK        -0.5000 
     35 C           2.5839  -17.7819  -44.4792 C.2       7 UNK         0.5000 
     36 O           2.2071  -18.7402  -45.1511 O.2       7 UNK        -0.5000 
     37 CA          4.0879  -17.5176  -44.3138 C.3       7 UNK         0.1400 
     38 CB          4.5434  -16.3473  -45.1995 C.3       7 UNK        -0.1800 
     39 N           4.4300  -17.2450  -42.9191 N.am      7 UNK        -0.5000 
     40 C           4.4215  -18.1666  -41.9462 C.2       6 UNK         0.5000 
     41 O           4.1709  -19.3584  -42.1320 O.2       6 UNK        -0.5000 
     42 CA          4.7108  -17.6590  -40.5213 C.3       6 UNK         0.1400 
     43 CB          6.2237  -17.5407  -40.2835 C.3       6 UNK        -0.1800 
     44 N           4.0719  -16.3713  -40.2367 N.am      6 UNK        -0.5000 
     45 C           2.7469  -16.1979  -40.1376 C.2       5 UNK         0.5000 
     46 O           1.9274  -17.1049  -40.2769 O.2       5 UNK        -0.5000 
     47 CA          2.2473  -14.7641  -39.8770 C.3       5 UNK         0.1400 
     48 CB          2.3203  -14.4334  -38.3787 C.3       5 UNK        -0.1800 
     49 N           2.9383  -13.7171  -40.6395 N.am      5 UNK        -0.5000 
     50 C           3.0717  -13.6906  -41.9717 C.2       4 UNK         0.5000 
     51 O           2.7517  -14.6207  -42.7099 O.2       4 UNK        -0.5000 
     52 CA          3.6484  -12.4035  -42.5857 C.3       4 UNK         0.1400 
     53 CB          5.1784  -12.3976  -42.4454 C.3       4 UNK        -0.1800 
     54 N           3.3159  -12.2683  -44.0097 N.am      4 UNK        -0.5000 
     55 C           2.1196  -12.0535  -44.5812 C.2       3 UNK         0.5000 
     56 O           1.9971  -12.0461  -45.8080 O.2       3 UNK        -0.5000 
     57 CA          0.8743  -11.7571  -43.7183 C.3       3 UNK         0.1400 
     58 CB          0.8397  -10.2789  -43.2832 C.3       3 UNK        -0.1800 
     59 N          -0.3205  -12.0485  -44.5069 N.am      3 UNK        -0.5000 
     60 C          -1.5353  -12.3200  -44.0179 C.2       2 UNK         0.5000 
     61 O          -1.7817  -12.4216  -42.8157 O.2       2 UNK        -0.5000 
     62 CA         -2.6660  -12.5130  -45.0382 C.3       2 UNK         0.1400 
     63 CB         -2.6056  -11.5072  -46.2064 C.3       2 UNK        -0.1800 
     64 N          -2.6401  -13.8795  -45.5473 N.am      2 UNK        -0.5000 
     65 C          -3.6970  -14.5516  -46.0171 C.2       1 UNK         0.5000 
     66 O          -4.8337  -14.0754  -46.0493 O.2       1 UNK        -0.5000 
     67 C          -1.7188  -21.2943  -46.5140 C.2       11 UNK         0.5000 
     68 O          -2.3581  -21.9546  -47.3299 O.2       11 UNK        -0.5000 
     69 N          -2.1686  -21.0194  -45.2829 N.am      12 UNK        -0.5000 
     70 CA         -3.4515  -21.4838  -44.7513 C.3       12 UNK         0.1400 
     71 CB         -3.7452  -20.7811  -43.4180 C.3       12 UNK        -0.1800 
     72 C          -3.5207  -23.0132  -44.5874 C.2       12 UNK         0.5000 
     73 O          -4.5830  -23.5928  -44.8146 O.2       12 UNK        -0.5000 
     74 N          -2.3926  -23.6406  -44.2227 N.am      13 UNK        -0.5000 
     75 CA         -2.2479  -25.0947  -44.1369 C.3       13 UNK         0.1400 
     76 CB         -0.9410  -25.4467  -43.4100 C.3       13 UNK        -0.1800 
     77 C          -2.3162  -25.7789  -45.5158 C.2       13 UNK         0.5000 
     78 O          -2.9225  -26.8451  -45.6293 O.2       13 UNK        -0.5000 
     79 N          -1.7191  -25.1492  -46.5386 N.am      14 UNK        -0.5000 
     80 CA         -1.8225  -25.5683  -47.9390 C.3       14 UNK         0.1400 
     81 CB         -0.7623  -24.8316  -48.7736 C.3       14 UNK        -0.1800 
     82 C          -3.2340  -25.3332  -48.5132 C.2       14 UNK         0.5000 
     83 O          -3.7577  -26.2023  -49.2102 O.2       14 UNK        -0.5000 
     84 N          -3.8134  -24.1753  -48.1689 N.am      15 UNK        -0.5000 
     85 CA         -5.1042  -23.6180  -48.5728 C.3       15 UNK         0.1400 
     86 CB         -6.2603  -24.6169  -48.3619 C.3       15 UNK        -0.1800 
     87 C          -5.0907  -23.0465  -50.0021 C.2       15 UNK         0.5000 
     88 O          -4.2120  -23.3564  -50.8123 O.2       15 UNK        -0.5000 
     89 N          -6.0994  -22.2117  -50.2895 N.am      16 UNK        -0.5000 
     90 CA         -6.2710  -21.4939  -51.5560 C.3       16 UNK         0.1400 
     91 CB         -7.4785  -20.5518  -51.4438 C.3       16 UNK        -0.1800 
     92 C          -6.4200  -22.4156  -52.7813 C.2       16 UNK         0.5000 
     93 O          -6.0049  -22.0389  -53.8766 O.2       16 UNK        -0.5000 
     94 N          -6.9741  -23.6171  -52.5673 N.am      17 UNK        -0.5000 
     95 CA         -7.1277  -24.6619  -53.5799 C.3       17 UNK         0.1400 
     96 CB         -7.9926  -25.7940  -53.0051 C.3       17 UNK        -0.1800 
     97 C          -5.7845  -25.2155  -54.0940 C.2       17 UNK         0.5000 
     98 O          -5.6904  -25.5658  -55.2709 O.2       17 UNK        -0.5000 
     99 N          -4.7721  -25.2723  -53.2168 N.am      18 UNK        -0.5000 
    100 CA        -3.4092  -25.6662  -53.5719 C.3       18 UNK         0.1400 
    101 CB        -2.7033  -26.2508  -52.3409 C.3       18 UNK        -0.1800 
    102 C         -2.6112  -24.4771  -54.1291 C.2       18 UNK         0.5000 
    103 O         -1.8115  -24.6636  -55.0469 O.2       18 UNK        -0.5000 
    104 N         -2.8389  -23.2822  -53.5638 N.am      19 UNK        -0.5000 
    105 CA        -2.1782  -22.0389  -53.9598 C.3       19 UNK         0.1400 
    106 CB        -2.5006  -20.9437  -52.9380 C.3       19 UNK        -0.1800 
    107 C         -2.5590  -21.5751  -55.3761 C.2       19 UNK         0.5000 
    108 O         -1.6834  -21.1191  -56.1124 O.2       19 UNK        -0.5000 
    109 N         -3.8478  -21.7054  -55.7260 N.am      20 UNK        -0.5000 
    110 CA        -4.4677  -21.3664  -57.0088 C.3       20 UNK         0.1400 
    111 CB        -4.0237  -22.3660  -58.0993 C.3       20 UNK        -0.1800 
    112 C         -4.2434  -19.8883  -57.3900 C.2       20 UNK         0.5000 
    113 O         -4.9621  -19.0195  -56.8955 O.2       20 UNK        -0.5000 
    114 N         -3.2439  -19.6303  -58.2434 N.am      21 UNK        -0.5000 
    115 CA        -2.8088  -18.2978  -58.6668 C.3       21 UNK         0.1400 
    116 CB        -2.0384  -18.4381  -59.9900 C.3       21 UNK        -0.1800 
    117 C         -1.9532  -17.5575  -57.6145 C.2       21 UNK         0.5000 
    118 O         -1.6444  -16.3834  -57.8224 O.2       21 UNK        -0.5000 
    119 N         -1.5733  -18.2467  -56.5286 N.am      22 UNK        -0.5000 
    120 CA        -0.7259  -17.7674  -55.4195 C.3       22 UNK         0.1400 
    121 C          0.7926  -17.6941  -55.7673 C.2       22 UNK         0.5000 
    122 N          1.2520  -18.2839  -56.8645 N.am      22 UNK        -0.7600 
    123 O          1.5784  -17.1197  -55.0184 O.2       22 UNK        -0.5000 
    124 C124       -1.2360  -16.4642  -54.7354 C.3       23 UNK        -0.0398 
    125 S125       -2.9770  -16.5429  -54.1808 S.3       23 UNK        -0.2404 
    126 C126       -2.8600  -15.9484  -52.4621 C.3       23 UNK        -0.0205 
    127 H127       -1.2962  -15.2404  -49.8853 H         1 UNK         0.0600 
    128 H128        0.0145  -16.3054  -49.3579 H         1 UNK         0.0600 
    129 H129        0.1048  -14.5700  -49.0575 H         1 UNK         0.0600 
    130 H130       -3.0148  -16.0680  -48.6376 H         1 UNK         0.3000 
    131 H131       -2.9162  -16.5306  -45.7876 H         1 UNK         0.0600 
    132 H132       -5.2527  -16.2825  -47.7571 H         1 UNK         0.0800 
    133 H133       -5.4683  -16.5974  -46.0589 H         1 UNK         0.0800 
    134 H134       -5.3292  -19.8092  -48.9880 H         1 UNK         0.0800 
    135 H135       -5.9148  -18.1673  -49.1015 H         1 UNK         0.0800 
    136 H136       -4.8167  -16.8118  -50.7729 H         1 UNK         0.1150 
    137 H137       -0.7419  -17.5852  -51.8845 H         1 UNK         0.1150 
    138 H138       -2.7021  -20.0812  -49.0121 H         1 UNK         0.1150 
    139 H139        0.2885  -19.7056  -51.1269 H         1 UNK         0.0800 
    140 H140       -0.5447  -20.7602  -50.0184 H         1 UNK         0.0800 
    141 H141       -1.3133  -18.9438  -47.5662 H         1 UNK         0.0800 
    142 H142        0.0551  -18.6683  -46.5841 H         1 UNK         0.0800 
    143 H143        0.0000  -21.4356  -47.7305 H         1 UNK         0.0600 
    144 H144        1.1127  -20.2147  -45.4326 H         1 UNK         0.3000 
    145 H145        1.8955  -23.2521  -43.6920 H         1 UNK         0.0600 
    146 H146        3.7308  -22.7880  -45.3104 H         1 UNK         0.0600 
    147 H147        4.0980  -22.1108  -43.7304 H         1 UNK         0.0600 
    148 H148        3.5630  -21.0586  -45.0374 H         1 UNK         0.0600 
    149 H149        2.2154  -20.4862  -43.0155 H         1 UNK         0.3000 
    150 H150       -0.8789  -20.1603  -41.2190 H         1 UNK         0.0600 
    151 H151        0.8214  -21.2258  -39.7078 H         1 UNK         0.0600 
    152 H152        0.7213  -19.4884  -39.4706 H         1 UNK         0.0600 
    153 H153        2.0677  -20.1768  -40.3756 H         1 UNK         0.0600 
    154 H154        1.1701  -18.2651  -41.6808 H         1 UNK         0.3000 
    155 H155       -0.0358  -17.0406  -44.8363 H         1 UNK         0.0600 
    156 H156        0.0088  -15.8040  -42.0356 H         1 UNK         0.0600 
    157 H157       -1.3848  -15.8663  -43.1101 H         1 UNK         0.0600 
    158 H158        0.0229  -14.9140  -43.5565 H         1 UNK         0.0600 
    159 H159        2.1632  -16.1687  -43.3180 H         1 UNK         0.3000 
    160 H160        4.6243  -18.4141  -44.6326 H         1 UNK         0.0600 
    161 H161        4.0465  -15.4146  -44.9308 H         1 UNK         0.0600 
    162 H162        4.3199  -16.5455  -46.2485 H         1 UNK         0.0600 
    163 H163        5.6189  -16.1887  -45.1204 H         1 UNK         0.0600 
    164 H164        4.5732  -16.2777  -42.6684 H         1 UNK         0.3000 
    165 H165        4.3134  -18.3968  -39.8208 H         1 UNK         0.0600 
    166 H166        6.4399  -17.2615  -39.2521 H         1 UNK         0.0600 
    167 H167        6.7236  -18.4915  -40.4733 H         1 UNK         0.0600 
    168 H168        6.6785  -16.7945  -40.9362 H         1 UNK         0.0600 
    169 H169        4.6761  -15.5715  -40.1183 H         1 UNK         0.3000 
    170 H170        1.1972  -14.7327  -40.1739 H         1 UNK         0.0600 
    171 H171        1.8519  -13.4729  -38.1628 H         1 UNK         0.0600 
    172 H172        3.3511  -14.3921  -38.0247 H         1 UNK         0.0600 
    173 H173        1.7993  -15.1867  -37.7859 H         1 UNK         0.0600 
    174 H174        3.2504  -12.9187  -40.1054 H         1 UNK         0.3000 
    175 H175        3.2477  -11.5483  -42.0412 H         1 UNK         0.0600 
    176 H176        5.4808  -12.4605  -41.3993 H         1 UNK         0.0600 
    177 H177        5.6343  -13.2389  -42.9697 H         1 UNK         0.0600 
    178 H178        5.6075  -11.4800  -42.8487 H         1 UNK         0.0600 
    179 H179        4.0861  -12.4548  -44.6330 H         1 UNK         0.3000 
    180 H180        0.8676  -12.3992  -42.8388 H         1 UNK         0.0600 
    181 H181       -0.0195  -10.0747  -42.6441 H         1 UNK         0.0600 
    182 H182        0.7791   -9.6125  -44.1445 H         1 UNK         0.0600 
    183 H183        1.7300  -10.0002  -42.7209 H         1 UNK         0.0600 
    184 H184       -0.1631  -12.0407  -45.5073 H         1 UNK         0.3000 
    185 H185       -3.6019  -12.3499  -44.4991 H         1 UNK         0.0600 
    186 H186       -3.5114  -11.5565  -46.8110 H         1 UNK         0.0600 
    187 H187       -2.5190  -10.4838  -45.8393 H         1 UNK         0.0600 
    188 H188       -1.7593  -11.6974  -46.8673 H         1 UNK         0.0600 
    189 H189       -1.7292  -14.3284  -45.6047 H         1 UNK         0.3000 
    190 H190       -1.6233  -20.4114  -44.6745 H         1 UNK         0.3000 
    191 H191       -4.2290  -21.1961  -45.4619 H         1 UNK         0.0600 
    192 H192       -3.8057  -19.7006  -43.5495 H         1 UNK         0.0600 
    193 H193       -4.6977  -21.1114  -43.0020 H         1 UNK         0.0600 
    194 H194       -2.9718  -20.9867  -42.6770 H         1 UNK         0.0600 
    195 H195       -1.5778  -23.0852  -43.9859 H         1 UNK         0.3000 
    196 H196       -3.0766  -25.4776  -43.5376 H         1 UNK         0.0600 
    197 H197       -0.8304  -26.5270  -43.3087 H         1 UNK         0.0600 
    198 H198       -0.9225  -25.0224  -42.4060 H         1 UNK         0.0600 
    199 H199       -0.0667  -25.0768  -43.9449 H         1 UNK         0.0600 
    200 H200       -1.1886  -24.3062  -46.3482 H         1 UNK         0.3000 
    201 H201       -1.6115  -26.6384  -47.9922 H         1 UNK         0.0600 
    202 H202       -0.7873  -25.1606  -49.8130 H         1 UNK         0.0600 
    203 H203        0.2414  -25.0240  -48.3943 H         1 UNK         0.0600 
    204 H204       -0.9194  -23.7527  -48.7684 H         1 UNK         0.0600 
    205 H205       -3.2292  -23.5094  -47.6675 H         1 UNK         0.3000 
    206 H206       -5.2660  -22.7758  -47.8980 H         1 UNK         0.0600 
    207 H207       -6.2226  -25.0564  -47.3649 H         1 UNK         0.0600 
    208 H208       -7.2277  -24.1236  -48.4596 H         1 UNK         0.0600 
    209 H209       -6.2386  -25.4287  -49.0894 H         1 UNK         0.0600 
    210 H210       -6.7911  -22.0244  -49.5783 H         1 UNK         0.3000 
    211 H211       -5.3810  -20.8818  -51.7057 H         1 UNK         0.0600 
    212 H212       -8.4024  -21.1015  -51.2596 H         1 UNK         0.0600 
    213 H213       -7.6138  -19.9807  -52.3633 H         1 UNK         0.0600 
    214 H214       -7.3479  -19.8329  -50.6352 H         1 UNK         0.0600 
    215 H215       -7.2850  -23.8394  -51.6335 H         1 UNK         0.3000 
    216 H216       -7.6540  -24.2277  -54.4326 H         1 UNK         0.0600 
    217 H217       -7.5289  -26.2502  -52.1294 H         1 UNK         0.0600 
    218 H218       -8.1454  -26.5820  -53.7438 H         1 UNK         0.0600 
    219 H219       -8.9774  -25.4291  -52.7129 H         1 UNK         0.0600 
    220 H220       -4.9118  -24.9277  -52.2756 H         1 UNK         0.3000 
    221 H221       -3.4439  -26.4431  -54.3387 H         1 UNK         0.0600 
    222 H222       -2.5880  -25.5040  -51.5554 H         1 UNK         0.0600 
    223 H223       -3.2595  -27.0918  -51.9266 H         1 UNK         0.0600 
    224 H224       -1.7067  -26.6121  -52.5972 H         1 UNK         0.0600 
    225 H225       -3.4721  -23.2332  -52.7738 H         1 UNK         0.3000 
    226 H226       -1.1007  -22.2155  -53.9400 H         1 UNK         0.0600 
    227 H227       -2.3113  -21.2830  -51.9198 H         1 UNK         0.0600 
    228 H228       -1.8840  -20.0629  -53.1138 H         1 UNK         0.0600 
    229 H229       -3.5401  -20.6248  -52.9996 H         1 UNK         0.0600 
    230 H230       -4.5036  -22.0110  -55.0107 H         1 UNK         0.3000 
    231 H231       -5.5431  -21.4888  -56.8711 H         1 UNK         0.0600 
    232 H232       -2.9423  -22.3805  -58.2379 H         1 UNK         0.0600 
    233 H233       -4.4801  -22.1267  -59.0606 H         1 UNK         0.0600 
    234 H234       -4.3319  -23.3793  -57.8404 H         1 UNK         0.0600 
    235 H235       -2.6843  -20.4076  -58.5636 H         1 UNK         0.3000 
    236 H236       -3.6938  -17.6854  -58.8515 H         1 UNK         0.0600 
    237 H237       -1.1387  -19.0427  -59.8696 H         1 UNK         0.0600 
    238 H238       -2.6559  -18.9036  -60.7585 H         1 UNK         0.0600 
    239 H239       -1.7304  -17.4635  -60.3710 H         1 UNK         0.0600 
    240 H240       -1.8252  -19.2292  -56.4771 H         1 UNK         0.3000 
    241 H241       -0.7861  -18.5547  -54.6683 H         1 UNK         0.0600 
    242 H242        2.2364  -18.2410  -57.0768 H         1 UNK         0.3800 
    243 H243        0.6265  -18.7808  -57.4779 H         1 UNK         0.3800 
    244 H244       -1.1321  -15.6110  -55.4062 H         1 UNK         0.0800 
    245 H245       -0.6053  -16.2332  -53.8766 H         1 UNK         0.0800 
    246 H246       -1.9975  -15.2934  -52.3344 H         1 UNK         0.0800 
    247 H247       -3.7333  -15.3267  -52.2598 H         1 UNK         0.0800 
@<TRIPOS>BOND
     1    1    2 1    
     2    1  127 1    
     3    1  128 1    
     4    1  129 1    
     5    2    3 2    
     6    2    4 am   BACKBONE|DICT|INTERRES
     7    4    5 1    
     8    4  130 1    
     9    5    6 1    
    10    5   65 1    
    11    5  131 1    
    12    6    7 1    
    13    6  132 1    
    14    6  133 1    
    15    7    8 1    
    16    8    9 1    
    17    8  134 1    
    18    8  135 1    
    19    9   10 ar   
    20    9   14 ar   
    21   10   11 ar   
    22   10  136 1    
    23   11   12 ar   
    24   11  126 1    
    25   12   13 ar   
    26   12  137 1    
    27   13   14 ar   
    28   13   15 1    
    29   14  138 1    
    30   15   16 1    
    31   15  139 1    
    32   15  140 1    
    33   16   17 1    
    34   17   18 1    
    35   17  141 1    
    36   17  142 1    
    37   18   19 1    
    38   18   67 1    
    39   18  143 1    
    40   19   20 am   BACKBONE|DICT|INTERRES
    41   19  144 1    
    42   20   21 2    
    43   20   22 1    
    44   22   23 1    
    45   22   24 1    
    46   22  145 1    
    47   23  146 1    
    48   23  147 1    
    49   23  148 1    
    50   24   25 am   BACKBONE|DICT|INTERRES
    51   24  149 1    
    52   25   26 2    
    53   25   27 1    
    54   27   28 1    
    55   27   29 1    
    56   27  150 1    
    57   28  151 1    
    58   28  152 1    
    59   28  153 1    
    60   29   30 am   BACKBONE|DICT|INTERRES
    61   29  154 1    
    62   30   31 2    
    63   30   32 1    
    64   32   33 1    
    65   32   34 1    
    66   32  155 1    
    67   33  156 1    
    68   33  157 1    
    69   33  158 1    
    70   34   35 am   BACKBONE|DICT|INTERRES
    71   34  159 1    
    72   35   36 2    
    73   35   37 1    
    74   37   38 1    
    75   37   39 1    
    76   37  160 1    
    77   38  161 1    
    78   38  162 1    
    79   38  163 1    
    80   39   40 am   BACKBONE|DICT|INTERRES
    81   39  164 1    
    82   40   41 2    
    83   40   42 1    
    84   42   43 1    
    85   42   44 1    
    86   42  165 1    
    87   43  166 1    
    88   43  167 1    
    89   43  168 1    
    90   44   45 am   BACKBONE|DICT|INTERRES
    91   44  169 1    
    92   45   46 2    
    93   45   47 1    
    94   47   48 1    
    95   47   49 1    
    96   47  170 1    
    97   48  171 1    
    98   48  172 1    
    99   48  173 1    
   100   49   50 am   BACKBONE|DICT|INTERRES
   101   49  174 1    
   102   50   51 2    
   103   50   52 1    
   104   52   53 1    
   105   52   54 1    
   106   52  175 1    
   107   53  176 1    
   108   53  177 1    
   109   53  178 1    
   110   54   55 am   BACKBONE|DICT|INTERRES
   111   54  179 1    
   112   55   56 2    
   113   55   57 1    
   114   57   58 1    
   115   57   59 1    
   116   57  180 1    
   117   58  181 1    
   118   58  182 1    
   119   58  183 1    
   120   59   60 am   BACKBONE|DICT|INTERRES
   121   59  184 1    
   122   60   61 2    
   123   60   62 1    
   124   62   63 1    
   125   62   64 1    
   126   62  185 1    
   127   63  186 1    
   128   63  187 1    
   129   63  188 1    
   130   64   65 am   BACKBONE|DICT|INTERRES
   131   64  189 1    
   132   65   66 2    
   133   67   68 2    
   134   67   69 am   BACKBONE|DICT|INTERRES
   135   69   70 1    
   136   69  190 1    
   137   70   71 1    
   138   70   72 1    
   139   70  191 1    
   140   71  192 1    
   141   71  193 1    
   142   71  194 1    
   143   72   73 2    
   144   72   74 am   BACKBONE|DICT|INTERRES
   145   74   75 1    
   146   74  195 1    
   147   75   76 1    
   148   75   77 1    
   149   75  196 1    
   150   76  197 1    
   151   76  198 1    
   152   76  199 1    
   153   77   78 2    
   154   77   79 am   BACKBONE|DICT|INTERRES
   155   79   80 1    
   156   79  200 1    
   157   80   81 1    
   158   80   82 1    
   159   80  201 1    
   160   81  202 1    
   161   81  203 1    
   162   81  204 1    
   163   82   83 2    
   164   82   84 am   BACKBONE|DICT|INTERRES
   165   84   85 1    
   166   84  205 1    
   167   85   86 1    
   168   85   87 1    
   169   85  206 1    
   170   86  207 1    
   171   86  208 1    
   172   86  209 1    
   173   87   88 2    
   174   87   89 am   BACKBONE|DICT|INTERRES
   175   89   90 1    
   176   89  210 1    
   177   90   91 1    
   178   90   92 1    
   179   90  211 1    
   180   91  212 1    
   181   91  213 1    
   182   91  214 1    
   183   92   93 2    
   184   92   94 am   BACKBONE|DICT|INTERRES
   185   94   95 1    
   186   94  215 1    
   187   95   96 1    
   188   95   97 1    
   189   95  216 1    
   190   96  217 1    
   191   96  218 1    
   192   96  219 1    
   193   97   98 2    
   194   97   99 am   BACKBONE|DICT|INTERRES
   195   99  100 1    
   196   99  220 1    
   197  100  101 1    
   198  100  102 1    
   199  100  221 1    
   200  101  222 1    
   201  101  223 1    
   202  101  224 1    
   203  102  103 2    
   204  102  104 am   BACKBONE|DICT|INTERRES
   205  104  105 1    
   206  104  225 1    
   207  105  106 1    
   208  105  107 1    
   209  105  226 1    
   210  106  227 1    
   211  106  228 1    
   212  106  229 1    
   213  107  108 2    
   214  107  109 am   BACKBONE|DICT|INTERRES
   215  109  110 1    
   216  109  230 1    
   217  110  111 1    
   218  110  112 1    
   219  110  231 1    
   220  111  232 1    
   221  111  233 1    
   222  111  234 1    
   223  112  113 2    
   224  112  114 am   BACKBONE|DICT|INTERRES
   225  114  115 1    
   226  114  235 1    
   227  115  116 1    
   228  115  117 1    
   229  115  236 1    
   230  116  237 1    
   231  116  238 1    
   232  116  239 1    
   233  117  118 2    
   234  117  119 am   BACKBONE|DICT|INTERRES
   235  119  120 1    
   236  119  240 1    
   237  120  121 1    
   238  120  124 1    
   239  120  241 1    
   240  121  122 am   BACKBONE|DICT|INTERRES
   241  121  123 2    
   242  122  242 1    
   243  122  243 1    
   244  124  125 1    
   245  124  244 1    
   246  124  245 1    
   247  125  126 1    
   248  126  246 1    
   249  126  247 1    
@<TRIPOS>SUBSTRUCTURE
     1 UNK         1 GROUP             0       ****    0 ROOT    
