@<TRIPOS>MOLECULE
3R540
247   249    1
SMALL
USER_CHARGES


@<TRIPOS>ATOM
      1 CA         -1.3496  -13.9411  -45.6994 C.3       0 UNK        -0.1800 
      2 C          -0.6102  -12.8185  -46.4144 C.2       0 UNK         0.5000 
      3 O          -1.1759  -11.7473  -46.6299 O.2       0 UNK        -0.5000 
      4 N           0.6504  -13.0606  -46.7810 N.am      1 UNK        -0.5000 
      5 CA          1.5488  -12.1182  -47.4429 C.3       1 UNK         0.1400 
      6 C6          1.3448  -12.0696  -48.9818 C.3       23 UNK        -0.0398 
      7 S7          1.5765  -13.6647  -49.8482 S.3       23 UNK        -0.2404 
      8 C8         -0.1428  -14.2674  -49.9244 C.3       23 UNK        -0.0205 
      9 C9         -0.2645  -15.6646  -50.5188 C.ar      23 UNK        -0.0193 
     10 C10        -1.2287  -15.9223  -51.4988 C.ar      23 UNK        -0.1150 
     11 C11        -1.3897  -17.2109  -52.0135 C.ar      23 UNK        -0.0193 
     12 C12        -0.5702  -18.2441  -51.5516 C.ar      23 UNK        -0.1150 
     13 C13         0.3932  -18.0054  -50.5702 C.ar      23 UNK        -0.0193 
     14 C14         0.5388  -16.7136  -50.0555 C.ar      23 UNK        -0.1150 
     15 C15         1.2833  -19.1396  -50.0803 C.3       23 UNK        -0.0205 
     16 S16         1.0440  -19.4973  -48.3117 S.3       23 UNK        -0.2404 
     17 C17        -0.6131  -20.2712  -48.2696 C.3       23 UNK        -0.0398 
     18 CA         -0.5873  -21.6562  -47.5769 C.3       11 UNK         0.1400 
     19 N          -0.0445  -21.6038  -46.2149 N.am      11 UNK        -0.5000 
     20 C           0.3844  -22.6807  -45.5438 C.2       10 UNK         0.5000 
     21 O           0.3266  -23.8265  -45.9896 O.2       10 UNK        -0.5000 
     22 CA          0.9448  -22.4522  -44.1315 C.3       10 UNK         0.1400 
     23 CB          2.3765  -21.9006  -44.2001 C.3       10 UNK        -0.1800 
     24 N           0.1213  -21.5751  -43.2994 N.am      10 UNK        -0.5000 
     25 C          -1.1352  -21.8373  -42.9141 C.2       9 UNK         0.5000 
     26 O          -1.7892  -22.7959  -43.3227 O.2       9 UNK        -0.5000 
     27 CA         -1.7665  -20.8663  -41.9044 C.3       9 UNK         0.1400 
     28 CB         -1.1350  -21.0311  -40.5129 C.3       9 UNK        -0.1800 
     29 N          -1.6123  -19.4849  -42.3478 N.am      9 UNK        -0.5000 
     30 C          -2.4983  -18.8371  -43.1155 C.2       8 UNK         0.5000 
     31 O          -3.5862  -19.3058  -43.4506 O.2       8 UNK        -0.5000 
     32 CA         -2.0993  -17.4330  -43.6133 C.3       8 UNK         0.1400 
     33 CB         -2.6427  -16.3563  -42.6623 C.3       8 UNK        -0.1800 
     34 N          -0.6551  -17.2481  -43.7823 N.am      8 UNK        -0.5000 
     35 C           0.1109  -17.9763  -44.6081 C.2       7 UNK         0.5000 
     36 O          -0.3229  -18.8844  -45.3151 O.2       7 UNK        -0.5000 
     37 CA          1.6219  -17.6915  -44.5995 C.3       7 UNK         0.1400 
     38 CB          1.9561  -16.5159  -45.5268 C.3       7 UNK        -0.1800 
     39 N           2.1688  -17.4364  -43.2649 N.am      7 UNK        -0.5000 
     40 C           2.1105  -18.2819  -42.2250 C.2       6 UNK         0.5000 
     41 O           1.5153  -19.3589  -42.2473 O.2       6 UNK        -0.5000 
     42 CA          2.8100  -17.8345  -40.9338 C.3       6 UNK         0.1400 
     43 CB          4.3371  -17.9488  -41.0650 C.3       6 UNK        -0.1800 
     44 N           2.4433  -16.4606  -40.6039 N.am      6 UNK        -0.5000 
     45 C           1.3501  -16.1218  -39.9072 C.2       5 UNK         0.5000 
     46 O           0.5870  -16.9383  -39.3900 O.2       5 UNK        -0.5000 
     47 CA          1.0453  -14.6167  -39.7745 C.3       5 UNK         0.1400 
     48 CB          1.6706  -14.0517  -38.4903 C.3       5 UNK        -0.1800 
     49 N           1.5015  -13.8239  -40.9179 N.am      5 UNK        -0.5000 
     50 C           1.0207  -13.9390  -42.1627 C.2       4 UNK         0.5000 
     51 O           0.1412  -14.7343  -42.4914 O.2       4 UNK        -0.5000 
     52 CA          1.6659  -13.0480  -43.2354 C.3       4 UNK         0.1400 
     53 CB          1.0025  -11.6639  -43.2680 C.3       4 UNK        -0.1800 
     54 N           3.1169  -12.8875  -43.1216 N.am      4 UNK        -0.5000 
     55 C           4.0217  -13.8749  -43.0740 C.2       3 UNK         0.5000 
     56 O           3.7304  -15.0641  -42.9342 O.2       3 UNK        -0.5000 
     57 CA          5.4917  -13.4520  -43.2787 C.3       3 UNK         0.1400 
     58 CB          6.4776  -14.6047  -43.0178 C.3       3 UNK        -0.1800 
     59 N           5.6815  -12.9664  -44.6469 N.am      3 UNK        -0.5000 
     60 C           5.3001  -11.7639  -45.0968 C.2       2 UNK         0.5000 
     61 O           4.8930  -10.8636  -44.3593 O.2       2 UNK        -0.5000 
     62 CA          5.2859  -11.5407  -46.6232 C.3       2 UNK         0.1400 
     63 CB          6.1320  -12.5556  -47.4256 C.3       2 UNK        -0.1800 
     64 N           3.9023  -11.4944  -47.1155 N.am      2 UNK        -0.5000 
     65 C           2.9869  -12.4720  -47.0217 C.2       1 UNK         0.5000 
     66 O           3.2286  -13.6053  -46.5961 O.2       1 UNK        -0.5000 
     67 C          -1.9777  -22.3215  -47.5940 C.2       11 UNK         0.5000 
     68 O          -2.3013  -23.0200  -48.5544 O.2       11 UNK        -0.5000 
     69 N          -2.7554  -22.1383  -46.5168 N.am      12 UNK        -0.5000 
     70 CA         -4.0401  -22.8032  -46.3038 C.3       12 UNK         0.1400 
     71 CB         -4.7973  -22.1193  -45.1563 C.3       12 UNK        -0.1800 
     72 C          -3.8711  -24.3101  -46.0456 C.2       12 UNK         0.5000 
     73 O          -4.5712  -25.1085  -46.6676 O.2       12 UNK        -0.5000 
     74 N          -2.9150  -24.6753  -45.1789 N.am      13 UNK        -0.5000 
     75 CA         -2.5563  -26.0603  -44.8597 C.3       13 UNK         0.1400 
     76 CB         -1.5490  -26.0743  -43.7001 C.3       13 UNK        -0.1800 
     77 C          -2.0024  -26.8357  -46.0701 C.2       13 UNK         0.5000 
     78 O          -2.3163  -28.0152  -46.2334 O.2       13 UNK        -0.5000 
     79 N          -1.2213  -26.1493  -46.9147 N.am      14 UNK        -0.5000 
     80 CA         -0.6982  -26.6655  -48.1809 C.3       14 UNK         0.1400 
     81 CB          0.4602  -25.7634  -48.6367 C.3       14 UNK        -0.1800 
     82 C          -1.7588  -26.7640  -49.2975 C.2       14 UNK         0.5000 
     83 O          -1.4848  -27.3904  -50.3218 O.2       14 UNK        -0.5000 
     84 N          -2.9230  -26.1234  -49.1009 N.am      15 UNK        -0.5000 
     85 CA         -4.0131  -25.9340  -50.0660 C.3       15 UNK         0.1400 
     86 CB         -4.6834  -27.2767  -50.4219 C.3       15 UNK        -0.1800 
     87 C          -3.5720  -25.1255  -51.3061 C.2       15 UNK         0.5000 
     88 O          -4.0709  -25.3526  -52.4076 O.2       15 UNK        -0.5000 
     89 N          -2.6424  -24.1887  -51.0877 N.am      16 UNK        -0.5000 
     90 CA         -2.0458  -23.3046  -52.0868 C.3       16 UNK         0.1400 
     91 CB         -0.5291  -23.2589  -51.8337 C.3       16 UNK        -0.1800 
     92 C          -2.6418  -21.8862  -52.0266 C.2       16 UNK         0.5000 
     93 O          -2.2163  -21.0265  -52.7935 O.2       16 UNK        -0.5000 
     94 N          -3.5822  -21.6577  -51.1001 N.am      17 UNK        -0.5000 
     95 CA         -4.2526  -20.3888  -50.8230 C.3       17 UNK         0.1400 
     96 CB         -5.1359  -20.5822  -49.5792 C.3       17 UNK        -0.1800 
     97 C          -5.0764  -19.8261  -52.0006 C.2       17 UNK         0.5000 
     98 O          -5.2764  -20.4951  -53.0202 O.2       17 UNK        -0.5000 
     99 N          -5.5374  -18.5794  -51.8272 N.am      18 UNK        -0.5000 
    100 CA        -6.3734  -17.8383  -52.7711 C.3       18 UNK         0.1400 
    101 CB        -6.6829  -16.4498  -52.1918 C.3       18 UNK        -0.1800 
    102 C         -7.6675  -18.6006  -53.1057 C.2       18 UNK         0.5000 
    103 O         -8.4068  -18.9757  -52.1939 O.2       18 UNK        -0.5000 
    104 N         -7.8713  -18.8490  -54.4056 N.am      19 UNK        -0.5000 
    105 CA        -8.9356  -19.6574  -55.0127 C.3       19 UNK         0.1400 
    106 CB       -10.3344  -19.1057  -54.6649 C.3       19 UNK        -0.1800 
    107 C         -8.8262  -21.1773  -54.7499 C.2       19 UNK         0.5000 
    108 O         -9.6843  -21.9187  -55.2319 O.2       19 UNK        -0.5000 
    109 N         -7.7813  -21.6322  -54.0408 N.am      20 UNK        -0.5000 
    110 CA        -7.4670  -23.0477  -53.8586 C.3       20 UNK         0.1400 
    111 CB        -6.9002  -23.3049  -52.4504 C.3       20 UNK        -0.1800 
    112 C         -6.5030  -23.4982  -54.9660 C.2       20 UNK         0.5000 
    113 O         -6.8841  -24.3402  -55.7804 O.2       20 UNK        -0.5000 
    114 N         -5.3007  -22.9033  -55.0109 N.am      21 UNK        -0.5000 
    115 CA        -4.2612  -23.2061  -55.9999 C.3       21 UNK         0.1400 
    116 CB        -3.7374  -24.6544  -55.8494 C.3       21 UNK        -0.1800 
    117 C         -3.1239  -22.1697  -55.9436 C.2       21 UNK         0.5000 
    118 O         -1.9539  -22.5495  -55.8626 O.2       21 UNK        -0.5000 
    119 N         -3.4749  -20.8765  -55.9909 N.am      22 UNK        -0.5000 
    120 CA        -2.4941  -19.7717  -56.0363 C.3       22 UNK         0.1400 
    121 C         -1.7382  -19.6350  -57.3950 C.2       22 UNK         0.5000 
    122 N         -2.2266  -20.2127  -58.4868 N.am      22 UNK        -0.7600 
    123 O         -0.6853  -19.0073  -57.4621 O.2       22 UNK        -0.5000 
    124 C124       -3.1213  -18.4202  -55.5964 C.3       23 UNK        -0.0398 
    125 S125       -1.9214  -17.3325  -54.7422 S.3       23 UNK        -0.2404 
    126 C126       -2.4827  -17.5079  -53.0253 C.3       23 UNK        -0.0205 
    127 H127       -0.7753  -14.8673  -45.6920 H         1 UNK         0.0600 
    128 H128       -2.3016  -14.1394  -46.1916 H         1 UNK         0.0600 
    129 H129       -1.5504  -13.6575  -44.6664 H         1 UNK         0.0600 
    130 H130        1.1014  -13.9406  -46.5642 H         1 UNK         0.3000 
    131 H131        1.3470  -11.1226  -47.0416 H         1 UNK         0.0600 
    132 H132        0.3472  -11.6881  -49.2029 H         1 UNK         0.0800 
    133 H133        2.0310  -11.3465  -49.4251 H         1 UNK         0.0800 
    134 H134       -0.5694  -14.2931  -48.9230 H         1 UNK         0.0800 
    135 H135       -0.7364  -13.5537  -50.4977 H         1 UNK         0.0800 
    136 H136       -1.8695  -15.1252  -51.8492 H         1 UNK         0.1150 
    137 H137       -0.6869  -19.2393  -51.9534 H         1 UNK         0.1150 
    138 H138        1.2766  -16.5275  -49.2875 H         1 UNK         0.1150 
    139 H139        1.1183  -20.0504  -50.6583 H         1 UNK         0.0800 
    140 H140        2.3251  -18.8598  -50.2417 H         1 UNK         0.0800 
    141 H141       -0.9933  -20.3656  -49.2884 H         1 UNK         0.0800 
    142 H142       -1.2928  -19.5918  -47.7525 H         1 UNK         0.0800 
    143 H143        0.0717  -22.2970  -48.1668 H         1 UNK         0.0600 
    144 H144       -0.0000  -20.6822  -45.7857 H         1 UNK         0.3000 
    145 H145        0.9843  -23.4245  -43.6361 H         1 UNK         0.0600 
    146 H146        2.8149  -21.8158  -43.2056 H         1 UNK         0.0600 
    147 H147        3.0213  -22.5574  -44.7854 H         1 UNK         0.0600 
    148 H148        2.4053  -20.9144  -44.6631 H         1 UNK         0.0600 
    149 H149        0.5881  -20.7541  -42.9190 H         1 UNK         0.3000 
    150 H150       -2.8269  -21.1134  -41.8183 H         1 UNK         0.0600 
    151 H151       -1.2361  -22.0577  -40.1586 H         1 UNK         0.0600 
    152 H152       -1.6230  -20.3855  -39.7826 H         1 UNK         0.0600 
    153 H153       -0.0722  -20.7872  -40.5141 H         1 UNK         0.0600 
    154 H154       -0.7193  -19.0465  -42.1635 H         1 UNK         0.3000 
    155 H155       -2.5646  -17.2910  -44.5908 H         1 UNK         0.0600 
    156 H156       -2.1580  -16.4027  -41.6861 H         1 UNK         0.0600 
    157 H157       -2.4851  -15.3569  -43.0670 H         1 UNK         0.0600 
    158 H158       -3.7155  -16.4751  -42.5048 H         1 UNK         0.0600 
    159 H159       -0.2294  -16.4992  -43.2426 H         1 UNK         0.3000 
    160 H160        2.1227  -18.5777  -44.9922 H         1 UNK         0.0600 
    161 H161        3.0331  -16.3641  -45.6015 H         1 UNK         0.0600 
    162 H162        1.5150  -15.5892  -45.1659 H         1 UNK         0.0600 
    163 H163        1.5808  -16.6911  -46.5361 H         1 UNK         0.0600 
    164 H164        2.6885  -16.5690  -43.1508 H         1 UNK         0.3000 
    165 H165        2.4943  -18.5022  -40.1291 H         1 UNK         0.0600 
    166 H166        4.8328  -17.6676  -40.1358 H         1 UNK         0.0600 
    167 H167        4.6311  -18.9740  -41.2932 H         1 UNK         0.0600 
    168 H168        4.7298  -17.3121  -41.8582 H         1 UNK         0.0600 
    169 H169        2.9773  -15.7310  -41.0597 H         1 UNK         0.3000 
    170 H170       -0.0391  -14.5076  -39.7039 H         1 UNK         0.0600 
    171 H171        2.7596  -14.1100  -38.5136 H         1 UNK         0.0600 
    172 H172        1.3923  -13.0082  -38.3414 H         1 UNK         0.0600 
    173 H173        1.3308  -14.6055  -37.6140 H         1 UNK         0.0600 
    174 H174        2.2387  -13.1557  -40.7473 H         1 UNK         0.3000 
    175 H175        1.4820  -13.5277  -44.1950 H         1 UNK         0.0600 
    176 H176        1.3577  -11.0775  -44.1158 H         1 UNK         0.0600 
    177 H177        1.2068  -11.0983  -42.3582 H         1 UNK         0.0600 
    178 H178       -0.0806  -11.7498  -43.3662 H         1 UNK         0.0600 
    179 H179        3.4749  -11.9519  -43.2775 H         1 UNK         0.3000 
    180 H180        5.7139  -12.6502  -42.5714 H         1 UNK         0.0600 
    181 H181        6.3181  -15.4371  -43.7045 H         1 UNK         0.0600 
    182 H182        6.3675  -14.9903  -42.0034 H         1 UNK         0.0600 
    183 H183        7.5099  -14.2724  -43.1285 H         1 UNK         0.0600 
    184 H184        5.9308  -13.6646  -45.3325 H         1 UNK         0.3000 
    185 H185        5.7134  -10.5512  -46.7921 H         1 UNK         0.0600 
    186 H186        5.7550  -13.5755  -47.3472 H         1 UNK         0.0600 
    187 H187        6.1463  -12.2944  -48.4837 H         1 UNK         0.0600 
    188 H188        7.1674  -12.5581  -47.0825 H         1 UNK         0.0600 
    189 H189        3.6038  -10.5898  -47.4528 H         1 UNK         0.3000 
    190 H190       -2.3977  -21.5832  -45.7528 H         1 UNK         0.3000 
    191 H191       -4.6374  -22.6926  -47.2107 H         1 UNK         0.0600 
    192 H192       -4.9793  -21.0675  -45.3778 H         1 UNK         0.0600 
    193 H193       -5.7677  -22.5901  -44.9943 H         1 UNK         0.0600 
    194 H194       -4.2473  -22.1703  -44.2165 H         1 UNK         0.0600 
    195 H195       -2.4107  -23.9525  -44.6706 H         1 UNK         0.3000 
    196 H196       -3.4634  -26.5698  -44.5285 H         1 UNK         0.0600 
    197 H197       -1.2743  -27.0952  -43.4318 H         1 UNK         0.0600 
    198 H198       -1.9675  -25.6053  -42.8095 H         1 UNK         0.0600 
    199 H199       -0.6322  -25.5429  -43.9576 H         1 UNK         0.0600 
    200 H200       -0.9412  -25.2067  -46.6603 H         1 UNK         0.3000 
    201 H201       -0.3051  -27.6698  -48.0106 H         1 UNK         0.0600 
    202 H202        1.2509  -25.7270  -47.8871 H         1 UNK         0.0600 
    203 H203        0.1240  -24.7423  -48.8194 H         1 UNK         0.0600 
    204 H204        0.9068  -26.1319  -49.5611 H         1 UNK         0.0600 
    205 H205       -3.0537  -25.6537  -48.2139 H         1 UNK         0.3000 
    206 H206       -4.7593  -25.3208  -49.5590 H         1 UNK         0.0600 
    207 H207       -4.9807  -27.8181  -49.5237 H         1 UNK         0.0600 
    208 H208       -5.5834  -27.1172  -51.0168 H         1 UNK         0.0600 
    209 H209       -4.0213  -27.9216  -51.0001 H         1 UNK         0.0600 
    210 H210       -2.3519  -24.0199  -50.1272 H         1 UNK         0.3000 
    211 H211       -2.2186  -23.6937  -53.0911 H         1 UNK         0.0600 
    212 H212       -0.2972  -22.8341  -50.8561 H         1 UNK         0.0600 
    213 H213       -0.0240  -22.6513  -52.5857 H         1 UNK         0.0600 
    214 H214       -0.0930  -24.2571  -51.8771 H         1 UNK         0.0600 
    215 H215       -3.8356  -22.4329  -50.5067 H         1 UNK         0.3000 
    216 H216       -3.4771  -19.6567  -50.5886 H         1 UNK         0.0600 
    217 H217       -5.6587  -19.6651  -49.3061 H         1 UNK         0.0600 
    218 H218       -4.5355  -20.8696  -48.7171 H         1 UNK         0.0600 
    219 H219       -5.8903  -21.3538  -49.7390 H         1 UNK         0.0600 
    220 H220       -5.3555  -18.1160  -50.9495 H         1 UNK         0.3000 
    221 H221       -5.7944  -17.6997  -53.6855 H         1 UNK         0.0600 
    222 H222       -7.2292  -16.5189  -51.2502 H         1 UNK         0.0600 
    223 H223       -5.7689  -15.8842  -52.0096 H         1 UNK         0.0600 
    224 H224       -7.2929  -15.8664  -52.8828 H         1 UNK         0.0600 
    225 H225       -7.1878  -18.4994  -55.0625 H         1 UNK         0.3000 
    226 H226       -8.8057  -19.5406  -56.0896 H         1 UNK         0.0600 
    227 H227      -10.3979  -18.0356  -54.8622 H         1 UNK         0.0600 
    228 H228      -11.1048  -19.5905  -55.2654 H         1 UNK         0.0600 
    229 H229      -10.5908  -19.2716  -53.6185 H         1 UNK         0.0600 
    230 H230       -7.0894  -20.9756  -53.6961 H         1 UNK         0.3000 
    231 H231       -8.3799  -23.6412  -53.9444 H         1 UNK         0.0600 
    232 H232       -5.9169  -22.8621  -52.3049 H         1 UNK         0.0600 
    233 H233       -6.7955  -24.3755  -52.2716 H         1 UNK         0.0600 
    234 H234       -7.5624  -22.9097  -51.6801 H         1 UNK         0.0600 
    235 H235       -5.0763  -22.1898  -54.3239 H         1 UNK         0.3000 
    236 H236       -4.7076  -23.1138  -56.9920 H         1 UNK         0.0600 
    237 H237       -4.5248  -25.3951  -55.9808 H         1 UNK         0.0600 
    238 H238       -2.9762  -24.8750  -56.5986 H         1 UNK         0.0600 
    239 H239       -3.2885  -24.8184  -54.8712 H         1 UNK         0.0600 
    240 H240       -4.4504  -20.6279  -56.0584 H         1 UNK         0.3000 
    241 H241       -1.7280  -20.0247  -55.3002 H         1 UNK         0.0600 
    242 H242       -3.0882  -20.7330  -58.4554 H         1 UNK         0.3800 
    243 H243       -1.7273  -20.1249  -59.3582 H         1 UNK         0.3800 
    244 H244       -3.5466  -17.8840  -56.4466 H         1 UNK         0.0800 
    245 H245       -3.9593  -18.6013  -54.9234 H         1 UNK         0.0800 
    246 H246       -3.3470  -16.8644  -52.8565 H         1 UNK         0.0800 
    247 H247       -2.8188  -18.5302  -52.8765 H         1 UNK         0.0800 
@<TRIPOS>BOND
     1    1    2 1    
     2    1  127 1    
     3    1  128 1    
     4    1  129 1    
     5    2    3 2    
     6    2    4 am   BACKBONE|DICT|INTERRES
     7    4    5 1    
     8    4  130 1    
     9    5    6 1    
    10    5   65 1    
    11    5  131 1    
    12    6    7 1    
    13    6  132 1    
    14    6  133 1    
    15    7    8 1    
    16    8    9 1    
    17    8  134 1    
    18    8  135 1    
    19    9   10 ar   
    20    9   14 ar   
    21   10   11 ar   
    22   10  136 1    
    23   11   12 ar   
    24   11  126 1    
    25   12   13 ar   
    26   12  137 1    
    27   13   14 ar   
    28   13   15 1    
    29   14  138 1    
    30   15   16 1    
    31   15  139 1    
    32   15  140 1    
    33   16   17 1    
    34   17   18 1    
    35   17  141 1    
    36   17  142 1    
    37   18   19 1    
    38   18   67 1    
    39   18  143 1    
    40   19   20 am   BACKBONE|DICT|INTERRES
    41   19  144 1    
    42   20   21 2    
    43   20   22 1    
    44   22   23 1    
    45   22   24 1    
    46   22  145 1    
    47   23  146 1    
    48   23  147 1    
    49   23  148 1    
    50   24   25 am   BACKBONE|DICT|INTERRES
    51   24  149 1    
    52   25   26 2    
    53   25   27 1    
    54   27   28 1    
    55   27   29 1    
    56   27  150 1    
    57   28  151 1    
    58   28  152 1    
    59   28  153 1    
    60   29   30 am   BACKBONE|DICT|INTERRES
    61   29  154 1    
    62   30   31 2    
    63   30   32 1    
    64   32   33 1    
    65   32   34 1    
    66   32  155 1    
    67   33  156 1    
    68   33  157 1    
    69   33  158 1    
    70   34   35 am   BACKBONE|DICT|INTERRES
    71   34  159 1    
    72   35   36 2    
    73   35   37 1    
    74   37   38 1    
    75   37   39 1    
    76   37  160 1    
    77   38  161 1    
    78   38  162 1    
    79   38  163 1    
    80   39   40 am   BACKBONE|DICT|INTERRES
    81   39  164 1    
    82   40   41 2    
    83   40   42 1    
    84   42   43 1    
    85   42   44 1    
    86   42  165 1    
    87   43  166 1    
    88   43  167 1    
    89   43  168 1    
    90   44   45 am   BACKBONE|DICT|INTERRES
    91   44  169 1    
    92   45   46 2    
    93   45   47 1    
    94   47   48 1    
    95   47   49 1    
    96   47  170 1    
    97   48  171 1    
    98   48  172 1    
    99   48  173 1    
   100   49   50 am   BACKBONE|DICT|INTERRES
   101   49  174 1    
   102   50   51 2    
   103   50   52 1    
   104   52   53 1    
   105   52   54 1    
   106   52  175 1    
   107   53  176 1    
   108   53  177 1    
   109   53  178 1    
   110   54   55 am   BACKBONE|DICT|INTERRES
   111   54  179 1    
   112   55   56 2    
   113   55   57 1    
   114   57   58 1    
   115   57   59 1    
   116   57  180 1    
   117   58  181 1    
   118   58  182 1    
   119   58  183 1    
   120   59   60 am   BACKBONE|DICT|INTERRES
   121   59  184 1    
   122   60   61 2    
   123   60   62 1    
   124   62   63 1    
   125   62   64 1    
   126   62  185 1    
   127   63  186 1    
   128   63  187 1    
   129   63  188 1    
   130   64   65 am   BACKBONE|DICT|INTERRES
   131   64  189 1    
   132   65   66 2    
   133   67   68 2    
   134   67   69 am   BACKBONE|DICT|INTERRES
   135   69   70 1    
   136   69  190 1    
   137   70   71 1    
   138   70   72 1    
   139   70  191 1    
   140   71  192 1    
   141   71  193 1    
   142   71  194 1    
   143   72   73 2    
   144   72   74 am   BACKBONE|DICT|INTERRES
   145   74   75 1    
   146   74  195 1    
   147   75   76 1    
   148   75   77 1    
   149   75  196 1    
   150   76  197 1    
   151   76  198 1    
   152   76  199 1    
   153   77   78 2    
   154   77   79 am   BACKBONE|DICT|INTERRES
   155   79   80 1    
   156   79  200 1    
   157   80   81 1    
   158   80   82 1    
   159   80  201 1    
   160   81  202 1    
   161   81  203 1    
   162   81  204 1    
   163   82   83 2    
   164   82   84 am   BACKBONE|DICT|INTERRES
   165   84   85 1    
   166   84  205 1    
   167   85   86 1    
   168   85   87 1    
   169   85  206 1    
   170   86  207 1    
   171   86  208 1    
   172   86  209 1    
   173   87   88 2    
   174   87   89 am   BACKBONE|DICT|INTERRES
   175   89   90 1    
   176   89  210 1    
   177   90   91 1    
   178   90   92 1    
   179   90  211 1    
   180   91  212 1    
   181   91  213 1    
   182   91  214 1    
   183   92   93 2    
   184   92   94 am   BACKBONE|DICT|INTERRES
   185   94   95 1    
   186   94  215 1    
   187   95   96 1    
   188   95   97 1    
   189   95  216 1    
   190   96  217 1    
   191   96  218 1    
   192   96  219 1    
   193   97   98 2    
   194   97   99 am   BACKBONE|DICT|INTERRES
   195   99  100 1    
   196   99  220 1    
   197  100  101 1    
   198  100  102 1    
   199  100  221 1    
   200  101  222 1    
   201  101  223 1    
   202  101  224 1    
   203  102  103 2    
   204  102  104 am   BACKBONE|DICT|INTERRES
   205  104  105 1    
   206  104  225 1    
   207  105  106 1    
   208  105  107 1    
   209  105  226 1    
   210  106  227 1    
   211  106  228 1    
   212  106  229 1    
   213  107  108 2    
   214  107  109 am   BACKBONE|DICT|INTERRES
   215  109  110 1    
   216  109  230 1    
   217  110  111 1    
   218  110  112 1    
   219  110  231 1    
   220  111  232 1    
   221  111  233 1    
   222  111  234 1    
   223  112  113 2    
   224  112  114 am   BACKBONE|DICT|INTERRES
   225  114  115 1    
   226  114  235 1    
   227  115  116 1    
   228  115  117 1    
   229  115  236 1    
   230  116  237 1    
   231  116  238 1    
   232  116  239 1    
   233  117  118 2    
   234  117  119 am   BACKBONE|DICT|INTERRES
   235  119  120 1    
   236  119  240 1    
   237  120  121 1    
   238  120  124 1    
   239  120  241 1    
   240  121  122 am   BACKBONE|DICT|INTERRES
   241  121  123 2    
   242  122  242 1    
   243  122  243 1    
   244  124  125 1    
   245  124  244 1    
   246  124  245 1    
   247  125  126 1    
   248  126  246 1    
   249  126  247 1    
@<TRIPOS>SUBSTRUCTURE
     1 UNK         1 GROUP             0       ****    0 ROOT    
