@<TRIPOS>MOLECULE
3R540
247   249    1
SMALL
USER_CHARGES


@<TRIPOS>ATOM
      1 CA          6.1868  -17.7486  -50.6017 C.3       0 UNK        -0.1800 
      2 C           4.9688  -17.1970  -49.8765 C.2       0 UNK         0.5000 
      3 O           3.9988  -17.9241  -49.6736 O.2       0 UNK        -0.5000 
      4 N           5.0077  -15.9170  -49.4887 N.am      1 UNK        -0.5000 
      5 CA          3.9175  -15.2414  -48.7766 C.3       1 UNK         0.1400 
      6 C6          3.9309  -13.7189  -49.0724 C.3       23 UNK        -0.0398 
      7 S7          2.4199  -12.8221  -48.5692 S.3       23 UNK        -0.2404 
      8 C8          1.3320  -13.0390  -50.0195 C.3       23 UNK        -0.0205 
      9 C9          0.8302  -14.4705  -50.1608 C.ar      23 UNK        -0.0193 
     10 C10         1.0679  -15.1968  -51.3323 C.ar      23 UNK        -0.1150 
     11 C11         0.6196  -16.5160  -51.4474 C.ar      23 UNK        -0.0193 
     12 C12        -0.0542  -17.1112  -50.3793 C.ar      23 UNK        -0.1150 
     13 C13        -0.2795  -16.4066  -49.1944 C.ar      23 UNK        -0.0193 
     14 C14         0.1404  -15.0774  -49.1067 C.ar      23 UNK        -0.1150 
     15 C15        -0.9667  -17.0700  -48.0050 C.3       23 UNK        -0.0205 
     16 S16        -0.3264  -18.7367  -47.6264 S.3       23 UNK        -0.2404 
     17 C17         1.4370  -18.4087  -47.2686 C.3       23 UNK        -0.0398 
     18 CA          2.3945  -19.6357  -47.2851 C.3       11 UNK         0.1400 
     19 N           2.4353  -20.3237  -45.9927 N.am      11 UNK        -0.5000 
     20 C           3.3916  -21.1918  -45.6288 C.2       10 UNK         0.5000 
     21 O           4.3875  -21.4353  -46.3121 O.2       10 UNK        -0.5000 
     22 CA          3.2264  -21.9072  -44.2780 C.3       10 UNK         0.1400 
     23 CB          3.9829  -21.1439  -43.1799 C.3       10 UNK        -0.1800 
     24 N           1.8215  -22.0443  -43.8936 N.am      10 UNK        -0.5000 
     25 C           1.0513  -23.1022  -44.1875 C.2       9 UNK         0.5000 
     26 O           1.4533  -24.0888  -44.8047 O.2       9 UNK        -0.5000 
     27 CA         -0.4121  -23.0724  -43.6986 C.3       9 UNK         0.1400 
     28 CB         -0.5589  -23.8633  -42.3902 C.3       9 UNK        -0.1800 
     29 N          -0.9231  -21.7178  -43.4917 N.am      9 UNK        -0.5000 
     30 C          -1.2371  -20.8750  -44.4838 C.2       8 UNK         0.5000 
     31 O          -1.1963  -21.1858  -45.6714 O.2       8 UNK        -0.5000 
     32 CA         -1.6339  -19.4404  -44.0825 C.3       8 UNK         0.1400 
     33 CB         -3.1593  -19.3229  -43.9508 C.3       8 UNK        -0.1800 
     34 N          -1.0024  -18.9654  -42.8466 N.am      8 UNK        -0.5000 
     35 C           0.3204  -18.8559  -42.6559 C.2       7 UNK         0.5000 
     36 O           1.1587  -19.2187  -43.4822 O.2       7 UNK        -0.5000 
     37 CA          0.7630  -18.2348  -41.3238 C.3       7 UNK         0.1400 
     38 CB          2.2850  -18.0237  -41.2241 C.3       7 UNK        -0.1800 
     39 N           0.0640  -16.9676  -41.1330 N.am      7 UNK        -0.5000 
     40 C          -0.3420  -16.4880  -39.9497 C.2       6 UNK         0.5000 
     41 O          -0.1249  -17.0555  -38.8783 O.2       6 UNK        -0.5000 
     42 CA         -1.1293  -15.1610  -39.9426 C.3       6 UNK         0.1400 
     43 CB         -0.2651  -14.0204  -39.3836 C.3       6 UNK        -0.1800 
     44 N          -1.6418  -14.7769  -41.2595 N.am      6 UNK        -0.5000 
     45 C          -2.6721  -15.3744  -41.8766 C.2       5 UNK         0.5000 
     46 O          -3.3237  -16.2915  -41.3761 O.2       5 UNK        -0.5000 
     47 CA         -3.0230  -14.8933  -43.3001 C.3       5 UNK         0.1400 
     48 CB         -4.2156  -13.9260  -43.2605 C.3       5 UNK        -0.1800 
     49 N          -1.9161  -14.2527  -44.0166 N.am      5 UNK        -0.5000 
     50 C          -0.7542  -14.8417  -44.3281 C.2       4 UNK         0.5000 
     51 O          -0.4769  -15.9986  -44.0105 O.2       4 UNK        -0.5000 
     52 CA          0.2861  -14.0107  -45.1032 C.3       4 UNK         0.1400 
     53 CB         -0.1177  -12.5431  -45.3675 C.3       4 UNK        -0.1800 
     54 N           1.6012  -14.0893  -44.4707 N.am      4 UNK        -0.5000 
     55 C           1.9275  -13.7102  -43.2264 C.2       3 UNK         0.5000 
     56 O           1.1384  -13.1551  -42.4601 O.2       3 UNK        -0.5000 
     57 CA          3.3613  -14.0237  -42.7494 C.3       3 UNK         0.1400 
     58 CB          3.3946  -14.3996  -41.2572 C.3       3 UNK        -0.1800 
     59 N           3.9527  -15.1128  -43.5326 N.am      3 UNK        -0.5000 
     60 C           4.9474  -14.9773  -44.4181 C.2       2 UNK         0.5000 
     61 O           5.5583  -13.9238  -44.6062 O.2       2 UNK        -0.5000 
     62 CA          5.3078  -16.2097  -45.2789 C.3       2 UNK         0.1400 
     63 CB          4.6010  -17.5189  -44.8511 C.3       2 UNK        -0.1800 
     64 N           5.0782  -15.9366  -46.7036 N.am      2 UNK        -0.5000 
     65 C           3.9159  -15.5646  -47.2650 C.2       1 UNK         0.5000 
     66 O           2.8603  -15.4931  -46.6371 O.2       1 UNK        -0.5000 
     67 C           2.1224  -20.6312  -48.4388 C.2       11 UNK         0.5000 
     68 O           1.5851  -21.7175  -48.2116 O.2       11 UNK        -0.5000 
     69 N           2.4652  -20.2335  -49.6681 N.am      12 UNK        -0.5000 
     70 CA          2.3702  -21.0435  -50.8864 C.3       12 UNK         0.1400 
     71 CB          3.1938  -20.3683  -51.9964 C.3       12 UNK        -0.1800 
     72 C           0.9381  -21.3952  -51.3539 C.2       12 UNK         0.5000 
     73 O           0.7969  -22.1205  -52.3396 O.2       12 UNK        -0.5000 
     74 N          -0.0980  -20.9062  -50.6584 N.am      13 UNK        -0.5000 
     75 CA         -1.4776  -21.3808  -50.8072 C.3       13 UNK         0.1400 
     76 CB         -2.4512  -20.2364  -50.4840 C.3       13 UNK        -0.1800 
     77 C          -1.7719  -22.6056  -49.9159 C.2       13 UNK         0.5000 
     78 O          -2.7197  -23.3385  -50.1967 O.2       13 UNK        -0.5000 
     79 N          -0.9771  -22.8007  -48.8502 N.am      14 UNK        -0.5000 
     80 CA         -1.0355  -23.8925  -47.8690 C.3       14 UNK         0.1400 
     81 CB         -0.5803  -25.2127  -48.5229 C.3       14 UNK        -0.1800 
     82 C          -2.3920  -24.0359  -47.1422 C.2       14 UNK         0.5000 
     83 O          -2.7133  -25.1234  -46.6592 O.2       14 UNK        -0.5000 
     84 N          -3.1693  -22.9439  -47.0944 N.am      15 UNK        -0.5000 
     85 CA         -4.5270  -22.7721  -46.5630 C.3       15 UNK         0.1400 
     86 CB         -4.5716  -23.0409  -45.0468 C.3       15 UNK        -0.1800 
     87 C          -5.6128  -23.5803  -47.3041 C.2       15 UNK         0.5000 
     88 O          -6.6553  -23.0216  -47.6469 O.2       15 UNK        -0.5000 
     89 N          -5.3491  -24.8696  -47.5459 N.am      16 UNK        -0.5000 
     90 CA         -6.2555  -25.8639  -48.1215 C.3       16 UNK         0.1400 
     91 CB         -5.5707  -27.2382  -48.0683 C.3       16 UNK        -0.1800 
     92 C          -6.7366  -25.5604  -49.5529 C.2       16 UNK         0.5000 
     93 O          -7.8012  -26.0458  -49.9381 O.2       16 UNK        -0.5000 
     94 N          -5.9671  -24.7683  -50.3139 N.am      17 UNK        -0.5000 
     95 CA         -6.3337  -24.3188  -51.6593 C.3       17 UNK         0.1400 
     96 CB         -5.1065  -23.6953  -52.3342 C.3       17 UNK        -0.1800 
     97 C          -7.5086  -23.3215  -51.6660 C.2       17 UNK         0.5000 
     98 O          -8.2345  -23.2558  -52.6594 O.2       17 UNK        -0.5000 
     99 N          -7.6783  -22.5758  -50.5618 N.am      18 UNK        -0.5000 
    100 CA        -8.7308  -21.5889  -50.3115 C.3       18 UNK         0.1400 
    101 CB       -10.0541  -22.3146  -49.9812 C.3       18 UNK        -0.1800 
    102 C         -8.8426  -20.5553  -51.4538 C.2       18 UNK         0.5000 
    103 O         -7.8911  -19.8071  -51.6854 O.2       18 UNK        -0.5000 
    104 N         -9.9766  -20.5567  -52.1672 N.am      19 UNK        -0.5000 
    105 CA       -10.2890  -19.6714  -53.2906 C.3       19 UNK         0.1400 
    106 CB       -11.7578  -19.8825  -53.6898 C.3       19 UNK        -0.1800 
    107 C         -9.3693  -19.8330  -54.5187 C.2       19 UNK         0.5000 
    108 O         -9.2915  -18.9053  -55.3254 O.2       19 UNK        -0.5000 
    109 N         -8.6815  -20.9789  -54.6467 N.am      20 UNK        -0.5000 
    110 CA        -7.6910  -21.2187  -55.7013 C.3       20 UNK         0.1400 
    111 CB        -7.4574  -22.7291  -55.8572 C.3       20 UNK        -0.1800 
    112 C         -6.3599  -20.4746  -55.4614 C.2       20 UNK         0.5000 
    113 O         -5.5932  -20.3078  -56.4107 O.2       20 UNK        -0.5000 
    114 N         -6.1265  -20.0222  -54.2190 N.am      21 UNK        -0.5000 
    115 CA        -4.9743  -19.2456  -53.7582 C.3       21 UNK         0.1400 
    116 CB        -5.0115  -17.8218  -54.3595 C.3       21 UNK        -0.1800 
    117 C         -3.6314  -19.9857  -53.9502 C.2       21 UNK         0.5000 
    118 O         -3.5596  -21.1828  -53.6740 O.2       21 UNK        -0.5000 
    119 N         -2.5886  -19.2503  -54.3519 N.am      22 UNK        -0.5000 
    120 CA        -1.1929  -19.6931  -54.4889 C.3       22 UNK         0.1400 
    121 C         -1.0104  -20.9241  -55.4201 C.2       22 UNK         0.5000 
    122 N         -0.2980  -21.9524  -54.9791 N.am      22 UNK        -0.7600 
    123 O         -1.4671  -20.9292  -56.5609 O.2       22 UNK        -0.5000 
    124 C124       -0.2853  -18.5268  -54.9623 C.3       23 UNK        -0.0398 
    125 S125       -0.4540  -17.0306  -53.9283 S.3       23 UNK        -0.2404 
    126 C126        0.8647  -17.3132  -52.7153 C.3       23 UNK        -0.0205 
    127 H127        6.5990  -18.5936  -50.0502 H         1 UNK         0.0600 
    128 H128        6.9692  -16.9975  -50.7114 H         1 UNK         0.0600 
    129 H129        5.9039  -18.0948  -51.5957 H         1 UNK         0.0600 
    130 H130        5.8256  -15.3594  -49.6912 H         1 UNK         0.3000 
    131 H131        2.9836  -15.6447  -49.1662 H         1 UNK         0.0600 
    132 H132        4.0722  -13.5525  -50.1413 H         1 UNK         0.0800 
    133 H133        4.7851  -13.2463  -48.5848 H         1 UNK         0.0800 
    134 H134        1.8576  -12.7147  -50.9189 H         1 UNK         0.0800 
    135 H135        0.4707  -12.3784  -49.9121 H         1 UNK         0.0800 
    136 H136        1.5979  -14.7387  -52.1555 H         1 UNK         0.1150 
    137 H137       -0.3933  -18.1315  -50.4667 H         1 UNK         0.1150 
    138 H138       -0.0447  -14.5118  -48.2072 H         1 UNK         0.1150 
    139 H139       -0.8679  -16.4556  -47.1092 H         1 UNK         0.0800 
    140 H140       -2.0342  -17.1441  -48.2151 H         1 UNK         0.0800 
    141 H141        1.5013  -17.8878  -46.3120 H         1 UNK         0.0800 
    142 H142        1.7935  -17.6932  -48.0093 H         1 UNK         0.0800 
    143 H143        3.4008  -19.2421  -47.4428 H         1 UNK         0.0600 
    144 H144        1.6621  -20.1546  -45.3623 H         1 UNK         0.3000 
    145 H145        3.6778  -22.8978  -44.3662 H         1 UNK         0.0600 
    146 H146        3.8429  -21.6068  -42.2030 H         1 UNK         0.0600 
    147 H147        3.6561  -20.1067  -43.1145 H         1 UNK         0.0600 
    148 H148        5.0540  -21.1317  -43.3852 H         1 UNK         0.0600 
    149 H149        1.4034  -21.2352  -43.4504 H         1 UNK         0.3000 
    150 H150       -1.0250  -23.5613  -44.4584 H         1 UNK         0.0600 
    151 H151       -0.2141  -24.8907  -42.5143 H         1 UNK         0.0600 
    152 H152       -1.6006  -23.9082  -42.0717 H         1 UNK         0.0600 
    153 H153        0.0222  -23.4171  -41.5822 H         1 UNK         0.0600 
    154 H154       -0.9908  -21.3911  -42.5392 H         1 UNK         0.3000 
    155 H155       -1.3106  -18.7735  -44.8830 H         1 UNK         0.0600 
    156 H156       -3.6552  -19.6352  -44.8710 H         1 UNK         0.0600 
    157 H157       -3.4603  -18.2941  -43.7535 H         1 UNK         0.0600 
    158 H158       -3.5427  -19.9465  -43.1424 H         1 UNK         0.0600 
    159 H159       -1.6228  -18.6280  -42.1246 H         1 UNK         0.3000 
    160 H160        0.4648  -18.9387  -40.5441 H         1 UNK         0.0600 
    161 H161        2.5585  -17.5422  -40.2853 H         1 UNK         0.0600 
    162 H162        2.8106  -18.9776  -41.2566 H         1 UNK         0.0600 
    163 H163        2.6601  -17.4104  -42.0430 H         1 UNK         0.0600 
    164 H164       -0.1773  -16.4698  -41.9850 H         1 UNK         0.3000 
    165 H165       -1.9813  -15.2941  -39.2726 H         1 UNK         0.0600 
    166 H166       -0.8176  -13.0812  -39.3547 H         1 UNK         0.0600 
    167 H167        0.0568  -14.2390  -38.3647 H         1 UNK         0.0600 
    168 H168        0.6326  -13.8649  -39.9808 H         1 UNK         0.0600 
    169 H169       -1.1340  -14.0517  -41.7488 H         1 UNK         0.3000 
    170 H170       -3.3172  -15.7743  -43.8739 H         1 UNK         0.0600 
    171 H171       -3.9709  -13.0085  -42.7238 H         1 UNK         0.0600 
    172 H172       -4.5369  -13.6530  -44.2659 H         1 UNK         0.0600 
    173 H173       -5.0719  -14.3805  -42.7603 H         1 UNK         0.0600 
    174 H174       -2.0563  -13.2917  -44.2927 H         1 UNK         0.3000 
    175 H175        0.3973  -14.5037  -46.0664 H         1 UNK         0.0600 
    176 H176       -0.2783  -11.9852  -44.4445 H         1 UNK         0.0600 
    177 H177        0.6578  -12.0263  -45.9330 H         1 UNK         0.0600 
    178 H178       -1.0317  -12.4851  -45.9597 H         1 UNK         0.0600 
    179 H179        2.2969  -14.5702  -45.0340 H         1 UNK         0.3000 
    180 H180        3.9395  -13.1065  -42.8749 H         1 UNK         0.0600 
    181 H181        4.3916  -14.7135  -40.9478 H         1 UNK         0.0600 
    182 H182        2.6992  -15.2061  -41.0285 H         1 UNK         0.0600 
    183 H183        3.1172  -13.5474  -40.6358 H         1 UNK         0.0600 
    184 H184        3.4824  -16.0047  -43.4780 H         1 UNK         0.3000 
    185 H185        6.3814  -16.3619  -45.1595 H         1 UNK         0.0600 
    186 H186        4.9326  -18.3554  -45.4661 H         1 UNK         0.0600 
    187 H187        4.8359  -17.7735  -43.8170 H         1 UNK         0.0600 
    188 H188        3.5159  -17.4605  -44.9394 H         1 UNK         0.0600 
    189 H189        5.8980  -15.9647  -47.2922 H         1 UNK         0.3000 
    190 H190        2.9292  -19.3297  -49.7660 H         1 UNK         0.3000 
    191 H191        2.8464  -22.0021  -50.6711 H         1 UNK         0.0600 
    192 H192        4.2541  -20.3683  -51.7428 H         1 UNK         0.0600 
    193 H193        2.8998  -19.3321  -52.1506 H         1 UNK         0.0600 
    194 H194        3.0927  -20.8894  -52.9493 H         1 UNK         0.0600 
    195 H195        0.0986  -20.3196  -49.8600 H         1 UNK         0.3000 
    196 H196       -1.6522  -21.6858  -51.8405 H         1 UNK         0.0600 
    197 H197       -2.2894  -19.3825  -51.1415 H         1 UNK         0.0600 
    198 H198       -2.3514  -19.8956  -49.4537 H         1 UNK         0.0600 
    199 H199       -3.4845  -20.5571  -50.6232 H         1 UNK         0.0600 
    200 H200       -0.1965  -22.1669  -48.7019 H         1 UNK         0.3000 
    201 H201       -0.3085  -23.6374  -47.0969 H         1 UNK         0.0600 
    202 H202        0.3879  -25.0959  -49.0099 H         1 UNK         0.0600 
    203 H203       -1.2940  -25.5584  -49.2714 H         1 UNK         0.0600 
    204 H204       -0.4733  -26.0038  -47.7799 H         1 UNK         0.0600 
    205 H205       -2.7635  -22.1078  -47.4910 H         1 UNK         0.3000 
    206 H206       -4.7665  -21.7182  -46.7129 H         1 UNK         0.0600 
    207 H207       -4.3499  -24.0813  -44.8081 H         1 UNK         0.0600 
    208 H208       -3.8549  -22.4170  -44.5140 H         1 UNK         0.0600 
    209 H209       -5.5595  -22.8180  -44.6421 H         1 UNK         0.0600 
    210 H210       -4.4412  -25.2095  -47.2357 H         1 UNK         0.3000 
    211 H211       -7.1427  -25.8994  -47.4862 H         1 UNK         0.0600 
    212 H212       -4.6516  -27.2499  -48.6557 H         1 UNK         0.0600 
    213 H213       -6.2234  -28.0188  -48.4614 H         1 UNK         0.0600 
    214 H214       -5.3171  -27.5134  -47.0443 H         1 UNK         0.0600 
    215 H215       -5.0949  -24.4215  -49.9368 H         1 UNK         0.3000 
    216 H216       -6.6358  -25.1919  -52.2413 H         1 UNK         0.0600 
    217 H217       -5.3216  -23.4136  -53.3647 H         1 UNK         0.0600 
    218 H218       -4.2674  -24.3906  -52.3578 H         1 UNK         0.0600 
    219 H219       -4.7816  -22.7934  -51.8143 H         1 UNK         0.0600 
    220 H220       -7.0411  -22.7247  -49.7888 H         1 UNK         0.3000 
    221 H221       -8.4284  -21.0313  -49.4239 H         1 UNK         0.0600 
    222 H222      -10.4011  -22.9370  -50.8070 H         1 UNK         0.0600 
    223 H223       -9.9298  -22.9644  -49.1145 H         1 UNK         0.0600 
    224 H224      -10.8455  -21.6052  -49.7359 H         1 UNK         0.0600 
    225 H225      -10.6840  -21.2354  -51.9262 H         1 UNK         0.3000 
    226 H226      -10.1756  -18.6438  -52.9394 H         1 UNK         0.0600 
    227 H227      -12.4280  -19.6777  -52.8547 H         1 UNK         0.0600 
    228 H228      -12.0430  -19.2143  -54.5035 H         1 UNK         0.0600 
    229 H229      -11.9395  -20.9043  -54.0253 H         1 UNK         0.0600 
    230 H230       -8.7757  -21.6999  -53.9383 H         1 UNK         0.3000 
    231 H231       -8.1006  -20.8513  -56.6447 H         1 UNK         0.0600 
    232 H232       -6.7962  -22.9347  -56.6999 H         1 UNK         0.0600 
    233 H233       -8.3927  -23.2578  -56.0409 H         1 UNK         0.0600 
    234 H234       -6.9958  -23.1609  -54.9710 H         1 UNK         0.0600 
    235 H235       -6.8226  -20.2106  -53.5074 H         1 UNK         0.3000 
    236 H236       -5.1019  -19.1449  -52.6794 H         1 UNK         0.0600 
    237 H237       -4.8206  -17.8270  -55.4333 H         1 UNK         0.0600 
    238 H238       -5.9858  -17.3588  -54.2008 H         1 UNK         0.0600 
    239 H239       -4.2732  -17.1708  -53.8898 H         1 UNK         0.0600 
    240 H240       -2.7467  -18.2751  -54.5576 H         1 UNK         0.3000 
    241 H241       -0.8671  -19.9791  -53.4880 H         1 UNK         0.0600 
    242 H242        0.0876  -21.9808  -54.0370 H         1 UNK         0.3800 
    243 H243       -0.1626  -22.7456  -55.5854 H         1 UNK         0.3800 
    244 H244       -0.5326  -18.2480  -55.9882 H         1 UNK         0.0800 
    245 H245        0.7616  -18.8357  -54.9785 H         1 UNK         0.0800 
    246 H246        0.8962  -18.3748  -52.4723 H         1 UNK         0.0800 
    247 H247        1.8323  -17.0575  -53.1498 H         1 UNK         0.0800 
@<TRIPOS>BOND
     1    1    2 1    
     2    1  127 1    
     3    1  128 1    
     4    1  129 1    
     5    2    3 2    
     6    2    4 am   BACKBONE|DICT|INTERRES
     7    4    5 1    
     8    4  130 1    
     9    5    6 1    
    10    5   65 1    
    11    5  131 1    
    12    6    7 1    
    13    6  132 1    
    14    6  133 1    
    15    7    8 1    
    16    8    9 1    
    17    8  134 1    
    18    8  135 1    
    19    9   10 ar   
    20    9   14 ar   
    21   10   11 ar   
    22   10  136 1    
    23   11   12 ar   
    24   11  126 1    
    25   12   13 ar   
    26   12  137 1    
    27   13   14 ar   
    28   13   15 1    
    29   14  138 1    
    30   15   16 1    
    31   15  139 1    
    32   15  140 1    
    33   16   17 1    
    34   17   18 1    
    35   17  141 1    
    36   17  142 1    
    37   18   19 1    
    38   18   67 1    
    39   18  143 1    
    40   19   20 am   BACKBONE|DICT|INTERRES
    41   19  144 1    
    42   20   21 2    
    43   20   22 1    
    44   22   23 1    
    45   22   24 1    
    46   22  145 1    
    47   23  146 1    
    48   23  147 1    
    49   23  148 1    
    50   24   25 am   BACKBONE|DICT|INTERRES
    51   24  149 1    
    52   25   26 2    
    53   25   27 1    
    54   27   28 1    
    55   27   29 1    
    56   27  150 1    
    57   28  151 1    
    58   28  152 1    
    59   28  153 1    
    60   29   30 am   BACKBONE|DICT|INTERRES
    61   29  154 1    
    62   30   31 2    
    63   30   32 1    
    64   32   33 1    
    65   32   34 1    
    66   32  155 1    
    67   33  156 1    
    68   33  157 1    
    69   33  158 1    
    70   34   35 am   BACKBONE|DICT|INTERRES
    71   34  159 1    
    72   35   36 2    
    73   35   37 1    
    74   37   38 1    
    75   37   39 1    
    76   37  160 1    
    77   38  161 1    
    78   38  162 1    
    79   38  163 1    
    80   39   40 am   BACKBONE|DICT|INTERRES
    81   39  164 1    
    82   40   41 2    
    83   40   42 1    
    84   42   43 1    
    85   42   44 1    
    86   42  165 1    
    87   43  166 1    
    88   43  167 1    
    89   43  168 1    
    90   44   45 am   BACKBONE|DICT|INTERRES
    91   44  169 1    
    92   45   46 2    
    93   45   47 1    
    94   47   48 1    
    95   47   49 1    
    96   47  170 1    
    97   48  171 1    
    98   48  172 1    
    99   48  173 1    
   100   49   50 am   BACKBONE|DICT|INTERRES
   101   49  174 1    
   102   50   51 2    
   103   50   52 1    
   104   52   53 1    
   105   52   54 1    
   106   52  175 1    
   107   53  176 1    
   108   53  177 1    
   109   53  178 1    
   110   54   55 am   BACKBONE|DICT|INTERRES
   111   54  179 1    
   112   55   56 2    
   113   55   57 1    
   114   57   58 1    
   115   57   59 1    
   116   57  180 1    
   117   58  181 1    
   118   58  182 1    
   119   58  183 1    
   120   59   60 am   BACKBONE|DICT|INTERRES
   121   59  184 1    
   122   60   61 2    
   123   60   62 1    
   124   62   63 1    
   125   62   64 1    
   126   62  185 1    
   127   63  186 1    
   128   63  187 1    
   129   63  188 1    
   130   64   65 am   BACKBONE|DICT|INTERRES
   131   64  189 1    
   132   65   66 2    
   133   67   68 2    
   134   67   69 am   BACKBONE|DICT|INTERRES
   135   69   70 1    
   136   69  190 1    
   137   70   71 1    
   138   70   72 1    
   139   70  191 1    
   140   71  192 1    
   141   71  193 1    
   142   71  194 1    
   143   72   73 2    
   144   72   74 am   BACKBONE|DICT|INTERRES
   145   74   75 1    
   146   74  195 1    
   147   75   76 1    
   148   75   77 1    
   149   75  196 1    
   150   76  197 1    
   151   76  198 1    
   152   76  199 1    
   153   77   78 2    
   154   77   79 am   BACKBONE|DICT|INTERRES
   155   79   80 1    
   156   79  200 1    
   157   80   81 1    
   158   80   82 1    
   159   80  201 1    
   160   81  202 1    
   161   81  203 1    
   162   81  204 1    
   163   82   83 2    
   164   82   84 am   BACKBONE|DICT|INTERRES
   165   84   85 1    
   166   84  205 1    
   167   85   86 1    
   168   85   87 1    
   169   85  206 1    
   170   86  207 1    
   171   86  208 1    
   172   86  209 1    
   173   87   88 2    
   174   87   89 am   BACKBONE|DICT|INTERRES
   175   89   90 1    
   176   89  210 1    
   177   90   91 1    
   178   90   92 1    
   179   90  211 1    
   180   91  212 1    
   181   91  213 1    
   182   91  214 1    
   183   92   93 2    
   184   92   94 am   BACKBONE|DICT|INTERRES
   185   94   95 1    
   186   94  215 1    
   187   95   96 1    
   188   95   97 1    
   189   95  216 1    
   190   96  217 1    
   191   96  218 1    
   192   96  219 1    
   193   97   98 2    
   194   97   99 am   BACKBONE|DICT|INTERRES
   195   99  100 1    
   196   99  220 1    
   197  100  101 1    
   198  100  102 1    
   199  100  221 1    
   200  101  222 1    
   201  101  223 1    
   202  101  224 1    
   203  102  103 2    
   204  102  104 am   BACKBONE|DICT|INTERRES
   205  104  105 1    
   206  104  225 1    
   207  105  106 1    
   208  105  107 1    
   209  105  226 1    
   210  106  227 1    
   211  106  228 1    
   212  106  229 1    
   213  107  108 2    
   214  107  109 am   BACKBONE|DICT|INTERRES
   215  109  110 1    
   216  109  230 1    
   217  110  111 1    
   218  110  112 1    
   219  110  231 1    
   220  111  232 1    
   221  111  233 1    
   222  111  234 1    
   223  112  113 2    
   224  112  114 am   BACKBONE|DICT|INTERRES
   225  114  115 1    
   226  114  235 1    
   227  115  116 1    
   228  115  117 1    
   229  115  236 1    
   230  116  237 1    
   231  116  238 1    
   232  116  239 1    
   233  117  118 2    
   234  117  119 am   BACKBONE|DICT|INTERRES
   235  119  120 1    
   236  119  240 1    
   237  120  121 1    
   238  120  124 1    
   239  120  241 1    
   240  121  122 am   BACKBONE|DICT|INTERRES
   241  121  123 2    
   242  122  242 1    
   243  122  243 1    
   244  124  125 1    
   245  124  244 1    
   246  124  245 1    
   247  125  126 1    
   248  126  246 1    
   249  126  247 1    
@<TRIPOS>SUBSTRUCTURE
     1 UNK         1 GROUP             0       ****    0 ROOT    
