@<TRIPOS>MOLECULE
3R540
247   249    1
SMALL
USER_CHARGES


@<TRIPOS>ATOM
      1 CA          0.9809  -15.1801  -47.9321 C.3       0 UNK        -0.1800 
      2 C           1.7946  -14.2991  -48.8672 C.2       0 UNK         0.5000 
      3 O           1.4001  -13.1658  -49.1389 O.2       0 UNK        -0.5000 
      4 N           2.9264  -14.8080  -49.3685 N.am      1 UNK        -0.5000 
      5 CA          3.8740  -14.0732  -50.2103 C.3       1 UNK         0.1400 
      6 C6          4.8888  -14.9932  -50.9434 C.3       23 UNK        -0.0398 
      7 S7          5.5873  -16.3662  -49.9506 S.3       23 UNK        -0.2404 
      8 C8          5.0691  -17.8337  -50.9038 C.3       23 UNK        -0.0205 
      9 C9          3.7056  -18.3583  -50.4727 C.ar      23 UNK        -0.0193 
     10 C10         2.5351  -17.6922  -50.8484 C.ar      23 UNK        -0.1150 
     11 C11         1.2836  -18.1660  -50.4464 C.ar      23 UNK        -0.0193 
     12 C12         1.2078  -19.3349  -49.6828 C.ar      23 UNK        -0.1150 
     13 C13         2.3647  -20.0367  -49.3390 C.ar      23 UNK        -0.0193 
     14 C14         3.6117  -19.5339  -49.7209 C.ar      23 UNK        -0.1150 
     15 C15         2.2657  -21.3634  -48.6045 C.3       23 UNK        -0.0205 
     16 S16         2.3763  -21.1637  -46.8040 S.3       23 UNK        -0.2404 
     17 C17         2.5518  -22.9032  -46.2569 C.3       23 UNK        -0.0398 
     18 CA          1.3313  -23.5041  -45.5057 C.3       11 UNK         0.1400 
     19 N           0.8377  -22.6387  -44.4335 N.am      11 UNK        -0.5000 
     20 C           1.1012  -22.7652  -43.1276 C.2       10 UNK         0.5000 
     21 O           1.8474  -23.6306  -42.6685 O.2       10 UNK        -0.5000 
     22 CA          0.4052  -21.7832  -42.1582 C.3       10 UNK         0.1400 
     23 CB          1.4148  -20.7877  -41.5662 C.3       10 UNK        -0.1800 
     24 N          -0.7001  -21.0420  -42.7713 N.am      10 UNK        -0.5000 
     25 C          -1.8939  -21.5691  -43.0776 C.2       9 UNK         0.5000 
     26 O          -2.2127  -22.7243  -42.7985 O.2       9 UNK        -0.5000 
     27 CA         -2.8832  -20.6826  -43.8628 C.3       9 UNK         0.1400 
     28 CB         -3.9153  -20.0489  -42.9196 C.3       9 UNK        -0.1800 
     29 N          -2.2394  -19.6288  -44.6509 N.am      9 UNK        -0.5000 
     30 C          -1.3995  -19.8450  -45.6729 C.2       8 UNK         0.5000 
     31 O          -1.0968  -20.9669  -46.0695 O.2       8 UNK        -0.5000 
     32 CA         -0.7479  -18.6056  -46.3107 C.3       8 UNK         0.1400 
     33 CB         -1.7074  -17.9374  -47.3091 C.3       8 UNK        -0.1800 
     34 N          -0.3252  -17.6432  -45.2894 N.am      8 UNK        -0.5000 
     35 C           0.6869  -17.8587  -44.4340 C.2       7 UNK         0.5000 
     36 O           1.4241  -18.8399  -44.4850 O.2       7 UNK        -0.5000 
     37 CA          0.8850  -16.8425  -43.2967 C.3       7 UNK         0.1400 
     38 CB          1.8662  -15.7380  -43.7117 C.3       7 UNK        -0.1800 
     39 N          -0.3820  -16.2507  -42.8685 N.am      7 UNK        -0.5000 
     40 C          -1.2730  -16.8821  -42.0884 C.2       6 UNK         0.5000 
     41 O          -1.0832  -18.0001  -41.6099 O.2       6 UNK        -0.5000 
     42 CA         -2.6145  -16.1673  -41.8239 C.3       6 UNK         0.1400 
     43 CB         -2.5249  -15.3118  -40.5517 C.3       6 UNK        -0.1800 
     44 N          -3.0492  -15.3231  -42.9376 N.am      6 UNK        -0.5000 
     45 C          -3.3381  -15.7674  -44.1687 C.2       5 UNK         0.5000 
     46 O          -3.3592  -16.9606  -44.4677 O.2       5 UNK        -0.5000 
     47 CA         -3.5778  -14.7058  -45.2632 C.3       5 UNK         0.1400 
     48 CB         -5.0820  -14.5035  -45.4952 C.3       5 UNK        -0.1800 
     49 N          -2.9501  -13.4061  -44.9873 N.am      5 UNK        -0.5000 
     50 C          -1.6342  -13.2084  -44.8254 C.2       4 UNK         0.5000 
     51 O          -0.8029  -14.1175  -44.8806 O.2       4 UNK        -0.5000 
     52 CA         -1.1961  -11.7786  -44.4548 C.3       4 UNK         0.1400 
     53 CB         -1.5403  -11.4844  -42.9852 C.3       4 UNK        -0.1800 
     54 N           0.2428  -11.5851  -44.6371 N.am      4 UNK        -0.5000 
     55 C           0.8480  -11.4329  -45.8204 C.2       3 UNK         0.5000 
     56 O           0.2399  -11.3317  -46.8885 O.2       3 UNK        -0.5000 
     57 CA          2.3848  -11.3610  -45.7904 C.3       3 UNK         0.1400 
     58 CB          3.0157  -12.6376  -45.2022 C.3       3 UNK        -0.1800 
     59 N           2.9073  -11.1497  -47.1369 N.am      3 UNK        -0.5000 
     60 C           4.0515  -10.5207  -47.4328 C.2       2 UNK         0.5000 
     61 O           4.7795  -10.0021  -46.5835 O.2       2 UNK        -0.5000 
     62 CA          4.4467  -10.4729  -48.9264 C.3       2 UNK         0.1400 
     63 CB          5.9276  -10.1005  -49.1527 C.3       2 UNK        -0.1800 
     64 N           4.1007  -11.7046  -49.6460 N.am      2 UNK        -0.5000 
     65 C           4.5471  -12.9461  -49.3973 C.2       1 UNK         0.5000 
     66 O           5.3989  -13.2223  -48.5508 O.2       1 UNK        -0.5000 
     67 C           0.1449  -23.9088  -46.4047 C.2       11 UNK         0.5000 
     68 O           0.2526  -23.8868  -47.6319 O.2       11 UNK        -0.5000 
     69 N          -0.9751  -24.2646  -45.7508 N.am      12 UNK        -0.5000 
     70 CA         -2.3204  -24.4569  -46.3016 C.3       12 UNK         0.1400 
     71 CB         -3.2139  -25.1312  -45.2498 C.3       12 UNK        -0.1800 
     72 C          -2.4135  -25.2319  -47.6252 C.2       12 UNK         0.5000 
     73 O          -3.1692  -24.8170  -48.5024 O.2       12 UNK        -0.5000 
     74 N          -1.6464  -26.3216  -47.7576 N.am      13 UNK        -0.5000 
     75 CA         -1.6175  -27.1768  -48.9470 C.3       13 UNK         0.1400 
     76 CB         -0.7470  -28.4102  -48.6647 C.3       13 UNK        -0.1800 
     77 C          -1.1326  -26.4481  -50.2152 C.2       13 UNK         0.5000 
     78 O          -1.7071  -26.6447  -51.2864 O.2       13 UNK        -0.5000 
     79 N          -0.1162  -25.5888  -50.0637 N.am      14 UNK        -0.5000 
     80 CA          0.4230  -24.7480  -51.1352 C.3       14 UNK         0.1400 
     81 CB          1.8715  -24.3696  -50.7955 C.3       14 UNK        -0.1800 
     82 C          -0.4390  -23.4968  -51.3919 C.2       14 UNK         0.5000 
     83 O          -0.3736  -22.9311  -52.4840 O.2       14 UNK        -0.5000 
     84 N          -1.2566  -23.1185  -50.4002 N.am      15 UNK        -0.5000 
     85 CA         -2.2480  -22.0446  -50.4579 C.3       15 UNK         0.1400 
     86 CB         -2.3708  -21.4154  -49.0641 C.3       15 UNK        -0.1800 
     87 C          -3.6232  -22.5125  -50.9817 C.2       15 UNK         0.5000 
     88 O          -4.5964  -21.7668  -50.8511 O.2       15 UNK        -0.5000 
     89 N          -3.6868  -23.7307  -51.5416 N.am      16 UNK        -0.5000 
     90 CA         -4.8638  -24.3964  -52.1091 C.3       16 UNK         0.1400 
     91 CB         -5.3910  -23.6283  -53.3380 C.3       16 UNK        -0.1800 
     92 C          -5.9508  -24.6681  -51.0509 C.2       16 UNK         0.5000 
     93 O          -7.0949  -24.2420  -51.2070 O.2       16 UNK        -0.5000 
     94 N          -5.5487  -25.3575  -49.9749 N.am      17 UNK        -0.5000 
     95 CA         -6.3349  -25.6845  -48.7790 C.3       17 UNK         0.1400 
     96 CB         -7.5380  -26.5884  -49.1213 C.3       17 UNK        -0.1800 
     97 C          -6.7180  -24.4221  -47.9802 C.2       17 UNK         0.5000 
     98 O          -7.8481  -24.3022  -47.5047 O.2       17 UNK        -0.5000 
     99 N          -5.7496  -23.5000  -47.8676 N.am      18 UNK        -0.5000 
    100 CA        -5.8314  -22.1932  -47.2034 C.3       18 UNK         0.1400 
    101 CB        -6.0299  -22.3575  -45.6819 C.3       18 UNK        -0.1800 
    102 C         -6.8541  -21.2250  -47.8398 C.2       18 UNK         0.5000 
    103 O         -7.3228  -20.3040  -47.1693 O.2       18 UNK        -0.5000 
    104 N         -7.1619  -21.4214  -49.1300 N.am      19 UNK        -0.5000 
    105 CA        -8.0134  -20.5328  -49.9254 C.3       19 UNK         0.1400 
    106 CB        -8.4987  -21.2878  -51.1716 C.3       19 UNK        -0.1800 
    107 C         -7.2947  -19.2342  -50.3406 C.2       19 UNK         0.5000 
    108 O         -7.9625  -18.2631  -50.6965 O.2       19 UNK        -0.5000 
    109 N         -5.9541  -19.2579  -50.3050 N.am      20 UNK        -0.5000 
    110 CA        -5.0204  -18.2102  -50.7255 C.3       20 UNK         0.1400 
    111 CB        -5.2373  -16.8914  -49.9549 C.3       20 UNK        -0.1800 
    112 C         -4.9696  -18.0317  -52.2571 C.2       20 UNK         0.5000 
    113 O         -4.5439  -16.9837  -52.7442 O.2       20 UNK        -0.5000 
    114 N         -5.3399  -19.0879  -52.9940 N.am      21 UNK        -0.5000 
    115 CA        -5.1311  -19.2353  -54.4344 C.3       21 UNK         0.1400 
    116 CB        -6.3384  -19.9717  -55.0420 C.3       21 UNK        -0.1800 
    117 C         -3.7982  -19.9779  -54.6446 C.2       21 UNK         0.5000 
    118 O         -3.7777  -21.1031  -55.1440 O.2       21 UNK        -0.5000 
    119 N         -2.7239  -19.3554  -54.1490 N.am      22 UNK        -0.5000 
    120 CA        -1.4090  -19.9599  -53.9096 C.3       22 UNK         0.1400 
    121 C         -0.6884  -20.4732  -55.1829 C.2       22 UNK         0.5000 
    122 N         -0.0462  -21.6303  -55.0979 N.am      22 UNK        -0.7600 
    123 O         -0.6681  -19.8145  -56.2204 O.2       22 UNK        -0.5000 
    124 C124       -0.4938  -19.0086  -53.0984 C.3       23 UNK        -0.0398 
    125 S125       -1.2718  -18.4690  -51.5367 S.3       23 UNK        -0.2404 
    126 C126        0.0226  -17.4029  -50.8320 C.3       23 UNK        -0.0205 
    127 H127        1.0529  -14.8109  -46.9103 H         1 UNK         0.0600 
    128 H128       -0.0679  -15.1494  -48.2233 H         1 UNK         0.0600 
    129 H129        1.3164  -16.2176  -47.9500 H         1 UNK         0.0600 
    130 H130        3.2258  -15.7355  -49.1005 H         1 UNK         0.3000 
    131 H131        3.2872  -13.5935  -50.9973 H         1 UNK         0.0600 
    132 H132        4.4031  -15.4091  -51.8257 H         1 UNK         0.0800 
    133 H133        5.7192  -14.4070  -51.3410 H         1 UNK         0.0800 
    134 H134        5.8246  -18.6087  -50.7656 H         1 UNK         0.0800 
    135 H135        5.0652  -17.6161  -51.9726 H         1 UNK         0.0800 
    136 H136        2.5973  -16.7953  -51.4464 H         1 UNK         0.1150 
    137 H137        0.2440  -19.7127  -49.3780 H         1 UNK         0.1150 
    138 H138        4.5089  -20.0708  -49.4462 H         1 UNK         0.1150 
    139 H139        1.3221  -21.8505  -48.8524 H         1 UNK         0.0800 
    140 H140        3.0630  -22.0244  -48.9464 H         1 UNK         0.0800 
    141 H141        2.8328  -23.5359  -47.1002 H         1 UNK         0.0800 
    142 H142        3.4119  -22.9295  -45.5870 H         1 UNK         0.0800 
    143 H143        1.6680  -24.4473  -45.0708 H         1 UNK         0.0600 
    144 H144        0.2120  -21.9028  -44.7459 H         1 UNK         0.3000 
    145 H145       -0.0008  -22.3749  -41.3351 H         1 UNK         0.0600 
    146 H146        0.9293  -20.0861  -40.8873 H         1 UNK         0.0600 
    147 H147        2.1863  -21.3088  -40.9983 H         1 UNK         0.0600 
    148 H148        1.9178  -20.2119  -42.3421 H         1 UNK         0.0600 
    149 H149       -0.5209  -20.0780  -43.0160 H         1 UNK         0.3000 
    150 H150       -3.4131  -21.3336  -44.5605 H         1 UNK         0.0600 
    151 H151       -4.4584  -20.8145  -42.3642 H         1 UNK         0.0600 
    152 H152       -4.6510  -19.4651  -43.4735 H         1 UNK         0.0600 
    153 H153       -3.4415  -19.3893  -42.1926 H         1 UNK         0.0600 
    154 H154       -2.4912  -18.6704  -44.4250 H         1 UNK         0.3000 
    155 H155        0.1399  -18.9299  -46.8578 H         1 UNK         0.0600 
    156 H156       -2.6805  -17.7241  -46.8677 H         1 UNK         0.0600 
    157 H157       -1.8778  -18.5821  -48.1710 H         1 UNK         0.0600 
    158 H158       -1.3029  -17.0007  -47.6847 H         1 UNK         0.0600 
    159 H159       -0.8927  -16.8167  -45.1701 H         1 UNK         0.3000 
    160 H160        1.3240  -17.3736  -42.4490 H         1 UNK         0.0600 
    161 H161        2.0089  -15.0133  -42.9102 H         1 UNK         0.0600 
    162 H162        1.5189  -15.2023  -44.5932 H         1 UNK         0.0600 
    163 H163        2.8442  -16.1571  -43.9514 H         1 UNK         0.0600 
    164 H164       -0.6225  -15.3580  -43.2852 H         1 UNK         0.3000 
    165 H165       -3.3747  -16.9354  -41.6687 H         1 UNK         0.0600 
    166 H166       -3.4884  -14.8636  -40.3086 H         1 UNK         0.0600 
    167 H167       -2.2238  -15.9165  -39.6951 H         1 UNK         0.0600 
    168 H168       -1.7963  -14.5069  -40.6580 H         1 UNK         0.0600 
    169 H169       -3.0614  -14.3277  -42.7749 H         1 UNK         0.3000 
    170 H170       -3.1399  -15.0928  -46.1857 H         1 UNK         0.0600 
    171 H171       -5.5715  -15.4497  -45.7308 H         1 UNK         0.0600 
    172 H172       -5.5732  -14.0899  -44.6137 H         1 UNK         0.0600 
    173 H173       -5.2655  -13.8287  -46.3315 H         1 UNK         0.0600 
    174 H174       -3.5753  -12.6166  -44.9103 H         1 UNK         0.3000 
    175 H175       -1.7331  -11.0737  -45.0930 H         1 UNK         0.0600 
    176 H176       -1.0430  -12.1796  -42.3072 H         1 UNK         0.0600 
    177 H177       -1.2416  -10.4738  -42.7059 H         1 UNK         0.0600 
    178 H178       -2.6133  -11.5618  -42.8056 H         1 UNK         0.0600 
    179 H179        0.8110  -11.6814  -43.8089 H         1 UNK         0.3000 
    180 H180        2.6492  -10.5084  -45.1613 H         1 UNK         0.0600 
    181 H181        2.7877  -13.5114  -45.8122 H         1 UNK         0.0600 
    182 H182        2.6598  -12.8341  -44.1909 H         1 UNK         0.0600 
    183 H183        4.1008  -12.5503  -45.1461 H         1 UNK         0.0600 
    184 H184        2.3263  -11.5242  -47.8805 H         1 UNK         0.3000 
    185 H185        3.8408   -9.6817  -49.3699 H         1 UNK         0.0600 
    186 H186        6.1500   -9.1156  -48.7404 H         1 UNK         0.0600 
    187 H187        6.6031  -10.8124  -48.6778 H         1 UNK         0.0600 
    188 H188        6.1679  -10.0672  -50.2153 H         1 UNK         0.0600 
    189 H189        3.3609  -11.6035  -50.3277 H         1 UNK         0.3000 
    190 H190       -0.9314  -24.2420  -44.7418 H         1 UNK         0.3000 
    191 H191       -2.7212  -23.4590  -46.4826 H         1 UNK         0.0600 
    192 H192       -2.8129  -26.0973  -44.9413 H         1 UNK         0.0600 
    193 H193       -4.2194  -25.3022  -45.6374 H         1 UNK         0.0600 
    194 H194       -3.3173  -24.5128  -44.3596 H         1 UNK         0.0600 
    195 H195       -1.0402  -26.5792  -46.9928 H         1 UNK         0.3000 
    196 H196       -2.6380  -27.5176  -49.1346 H         1 UNK         0.0600 
    197 H197       -0.7212  -29.0762  -49.5282 H         1 UNK         0.0600 
    198 H198       -1.1376  -28.9846  -47.8245 H         1 UNK         0.0600 
    199 H199        0.2821  -28.1328  -48.4329 H         1 UNK         0.0600 
    200 H200        0.2371  -25.4091  -49.1307 H         1 UNK         0.3000 
    201 H201        0.4378  -25.3215  -52.0645 H         1 UNK         0.0600 
    202 H202        2.5191  -25.2459  -50.8236 H         1 UNK         0.0600 
    203 H203        1.9479  -23.9373  -49.7998 H         1 UNK         0.0600 
    204 H204        2.2720  -23.6456  -51.5065 H         1 UNK         0.0600 
    205 H205       -1.2249  -23.6453  -49.5371 H         1 UNK         0.3000 
    206 H206       -1.8916  -21.2714  -51.1344 H         1 UNK         0.0600 
    207 H207       -3.0241  -20.5429  -49.0763 H         1 UNK         0.0600 
    208 H208       -1.3989  -21.0912  -48.6969 H         1 UNK         0.0600 
    209 H209       -2.7735  -22.1208  -48.3415 H         1 UNK         0.0600 
    210 H210       -2.8348  -24.2733  -51.5573 H         1 UNK         0.3000 
    211 H211       -4.5256  -25.3735  -52.4572 H         1 UNK         0.0600 
    212 H212       -5.7573  -22.6375  -53.0716 H         1 UNK         0.0600 
    213 H213       -6.2144  -24.1642  -53.8111 H         1 UNK         0.0600 
    214 H214       -4.6102  -23.5059  -54.0882 H         1 UNK         0.0600 
    215 H215       -4.5585  -25.5562  -49.8932 H         1 UNK         0.3000 
    216 H216       -5.6723  -26.2597  -48.1306 H         1 UNK         0.0600 
    217 H217       -8.0256  -26.9456  -48.2136 H         1 UNK         0.0600 
    218 H218       -7.2238  -27.4654  -49.6868 H         1 UNK         0.0600 
    219 H219       -8.2913  -26.0621  -49.7079 H         1 UNK         0.0600 
    220 H220       -4.8579  -23.7257  -48.2962 H         1 UNK         0.3000 
    221 H221       -4.8599  -21.7213  -47.3480 H         1 UNK         0.0600 
    222 H222       -7.0105  -22.7696  -45.4433 H         1 UNK         0.0600 
    223 H223       -5.2761  -23.0160  -45.2527 H         1 UNK         0.0600 
    224 H224       -5.9472  -21.3985  -45.1692 H         1 UNK         0.0600 
    225 H225       -6.7310  -22.1932  -49.6223 H         1 UNK         0.3000 
    226 H226       -8.8860  -20.2562  -49.3301 H         1 UNK         0.0600 
    227 H227       -9.0458  -22.1901  -50.8979 H         1 UNK         0.0600 
    228 H228       -9.1696  -20.6693  -51.7690 H         1 UNK         0.0600 
    229 H229       -7.6663  -21.5819  -51.8120 H         1 UNK         0.0600 
    230 H230       -5.5231  -20.1517  -50.0909 H         1 UNK         0.3000 
    231 H231       -4.0351  -18.5810  -50.4430 H         1 UNK         0.0600 
    232 H232       -5.2746  -17.0643  -48.8793 H         1 UNK         0.0600 
    233 H233       -6.1606  -16.3930  -50.2500 H         1 UNK         0.0600 
    234 H234       -4.4192  -16.1948  -50.1417 H         1 UNK         0.0600 
    235 H235       -5.6178  -19.9242  -52.4996 H         1 UNK         0.3000 
    236 H236       -5.0537  -18.2577  -54.9148 H         1 UNK         0.0600 
    237 H237       -6.2148  -20.1005  -56.1179 H         1 UNK         0.0600 
    238 H238       -6.4749  -20.9611  -54.6056 H         1 UNK         0.0600 
    239 H239       -7.2591  -19.4095  -54.8854 H         1 UNK         0.0600 
    240 H240       -2.8507  -18.4319  -53.7584 H         1 UNK         0.3000 
    241 H241       -1.6095  -20.8326  -53.2910 H         1 UNK         0.0600 
    242 H242        0.4463  -21.9887  -55.9006 H         1 UNK         0.3800 
    243 H243       -0.0702  -22.1706  -54.2361 H         1 UNK         0.3800 
    244 H244        0.4471  -19.5069  -52.8572 H         1 UNK         0.0800 
    245 H245       -0.2383  -18.1259  -53.6871 H         1 UNK         0.0800 
    246 H246       -0.3771  -16.9176  -49.9428 H         1 UNK         0.0800 
    247 H247        0.2485  -16.6059  -51.5422 H         1 UNK         0.0800 
@<TRIPOS>BOND
     1    1    2 1    
     2    1  127 1    
     3    1  128 1    
     4    1  129 1    
     5    2    3 2    
     6    2    4 am   BACKBONE|DICT|INTERRES
     7    4    5 1    
     8    4  130 1    
     9    5    6 1    
    10    5   65 1    
    11    5  131 1    
    12    6    7 1    
    13    6  132 1    
    14    6  133 1    
    15    7    8 1    
    16    8    9 1    
    17    8  134 1    
    18    8  135 1    
    19    9   10 ar   
    20    9   14 ar   
    21   10   11 ar   
    22   10  136 1    
    23   11   12 ar   
    24   11  126 1    
    25   12   13 ar   
    26   12  137 1    
    27   13   14 ar   
    28   13   15 1    
    29   14  138 1    
    30   15   16 1    
    31   15  139 1    
    32   15  140 1    
    33   16   17 1    
    34   17   18 1    
    35   17  141 1    
    36   17  142 1    
    37   18   19 1    
    38   18   67 1    
    39   18  143 1    
    40   19   20 am   BACKBONE|DICT|INTERRES
    41   19  144 1    
    42   20   21 2    
    43   20   22 1    
    44   22   23 1    
    45   22   24 1    
    46   22  145 1    
    47   23  146 1    
    48   23  147 1    
    49   23  148 1    
    50   24   25 am   BACKBONE|DICT|INTERRES
    51   24  149 1    
    52   25   26 2    
    53   25   27 1    
    54   27   28 1    
    55   27   29 1    
    56   27  150 1    
    57   28  151 1    
    58   28  152 1    
    59   28  153 1    
    60   29   30 am   BACKBONE|DICT|INTERRES
    61   29  154 1    
    62   30   31 2    
    63   30   32 1    
    64   32   33 1    
    65   32   34 1    
    66   32  155 1    
    67   33  156 1    
    68   33  157 1    
    69   33  158 1    
    70   34   35 am   BACKBONE|DICT|INTERRES
    71   34  159 1    
    72   35   36 2    
    73   35   37 1    
    74   37   38 1    
    75   37   39 1    
    76   37  160 1    
    77   38  161 1    
    78   38  162 1    
    79   38  163 1    
    80   39   40 am   BACKBONE|DICT|INTERRES
    81   39  164 1    
    82   40   41 2    
    83   40   42 1    
    84   42   43 1    
    85   42   44 1    
    86   42  165 1    
    87   43  166 1    
    88   43  167 1    
    89   43  168 1    
    90   44   45 am   BACKBONE|DICT|INTERRES
    91   44  169 1    
    92   45   46 2    
    93   45   47 1    
    94   47   48 1    
    95   47   49 1    
    96   47  170 1    
    97   48  171 1    
    98   48  172 1    
    99   48  173 1    
   100   49   50 am   BACKBONE|DICT|INTERRES
   101   49  174 1    
   102   50   51 2    
   103   50   52 1    
   104   52   53 1    
   105   52   54 1    
   106   52  175 1    
   107   53  176 1    
   108   53  177 1    
   109   53  178 1    
   110   54   55 am   BACKBONE|DICT|INTERRES
   111   54  179 1    
   112   55   56 2    
   113   55   57 1    
   114   57   58 1    
   115   57   59 1    
   116   57  180 1    
   117   58  181 1    
   118   58  182 1    
   119   58  183 1    
   120   59   60 am   BACKBONE|DICT|INTERRES
   121   59  184 1    
   122   60   61 2    
   123   60   62 1    
   124   62   63 1    
   125   62   64 1    
   126   62  185 1    
   127   63  186 1    
   128   63  187 1    
   129   63  188 1    
   130   64   65 am   BACKBONE|DICT|INTERRES
   131   64  189 1    
   132   65   66 2    
   133   67   68 2    
   134   67   69 am   BACKBONE|DICT|INTERRES
   135   69   70 1    
   136   69  190 1    
   137   70   71 1    
   138   70   72 1    
   139   70  191 1    
   140   71  192 1    
   141   71  193 1    
   142   71  194 1    
   143   72   73 2    
   144   72   74 am   BACKBONE|DICT|INTERRES
   145   74   75 1    
   146   74  195 1    
   147   75   76 1    
   148   75   77 1    
   149   75  196 1    
   150   76  197 1    
   151   76  198 1    
   152   76  199 1    
   153   77   78 2    
   154   77   79 am   BACKBONE|DICT|INTERRES
   155   79   80 1    
   156   79  200 1    
   157   80   81 1    
   158   80   82 1    
   159   80  201 1    
   160   81  202 1    
   161   81  203 1    
   162   81  204 1    
   163   82   83 2    
   164   82   84 am   BACKBONE|DICT|INTERRES
   165   84   85 1    
   166   84  205 1    
   167   85   86 1    
   168   85   87 1    
   169   85  206 1    
   170   86  207 1    
   171   86  208 1    
   172   86  209 1    
   173   87   88 2    
   174   87   89 am   BACKBONE|DICT|INTERRES
   175   89   90 1    
   176   89  210 1    
   177   90   91 1    
   178   90   92 1    
   179   90  211 1    
   180   91  212 1    
   181   91  213 1    
   182   91  214 1    
   183   92   93 2    
   184   92   94 am   BACKBONE|DICT|INTERRES
   185   94   95 1    
   186   94  215 1    
   187   95   96 1    
   188   95   97 1    
   189   95  216 1    
   190   96  217 1    
   191   96  218 1    
   192   96  219 1    
   193   97   98 2    
   194   97   99 am   BACKBONE|DICT|INTERRES
   195   99  100 1    
   196   99  220 1    
   197  100  101 1    
   198  100  102 1    
   199  100  221 1    
   200  101  222 1    
   201  101  223 1    
   202  101  224 1    
   203  102  103 2    
   204  102  104 am   BACKBONE|DICT|INTERRES
   205  104  105 1    
   206  104  225 1    
   207  105  106 1    
   208  105  107 1    
   209  105  226 1    
   210  106  227 1    
   211  106  228 1    
   212  106  229 1    
   213  107  108 2    
   214  107  109 am   BACKBONE|DICT|INTERRES
   215  109  110 1    
   216  109  230 1    
   217  110  111 1    
   218  110  112 1    
   219  110  231 1    
   220  111  232 1    
   221  111  233 1    
   222  111  234 1    
   223  112  113 2    
   224  112  114 am   BACKBONE|DICT|INTERRES
   225  114  115 1    
   226  114  235 1    
   227  115  116 1    
   228  115  117 1    
   229  115  236 1    
   230  116  237 1    
   231  116  238 1    
   232  116  239 1    
   233  117  118 2    
   234  117  119 am   BACKBONE|DICT|INTERRES
   235  119  120 1    
   236  119  240 1    
   237  120  121 1    
   238  120  124 1    
   239  120  241 1    
   240  121  122 am   BACKBONE|DICT|INTERRES
   241  121  123 2    
   242  122  242 1    
   243  122  243 1    
   244  124  125 1    
   245  124  244 1    
   246  124  245 1    
   247  125  126 1    
   248  126  246 1    
   249  126  247 1    
@<TRIPOS>SUBSTRUCTURE
     1 UNK         1 GROUP             0       ****    0 ROOT    
