@<TRIPOS>MOLECULE
3R540
247   249    1
SMALL
USER_CHARGES


@<TRIPOS>ATOM
      1 CA         -4.3380  -18.7941  -46.2567 C.3       0 UNK        -0.1800 
      2 C          -4.2303  -17.3688  -46.7806 C.2       0 UNK         0.5000 
      3 O          -5.0143  -16.5046  -46.3866 O.2       0 UNK        -0.5000 
      4 N          -3.2396  -17.1101  -47.6427 N.am      1 UNK        -0.5000 
      5 CA         -2.9229  -15.8017  -48.2274 C.3       1 UNK         0.1400 
      6 C6         -2.1613  -15.9449  -49.5710 C.3       23 UNK        -0.0398 
      7 S7         -3.1455  -16.7495  -50.8837 S.3       23 UNK        -0.2404 
      8 C8         -2.7390  -18.5167  -50.7038 C.3       23 UNK        -0.0205 
      9 C9         -1.2591  -18.8112  -50.8896 C.ar      23 UNK        -0.0193 
     10 C10        -0.7061  -18.8576  -52.1714 C.ar      23 UNK        -0.1150 
     11 C11         0.6519  -19.1391  -52.3481 C.ar      23 UNK        -0.0193 
     12 C12         1.4548  -19.3877  -51.2318 C.ar      23 UNK        -0.1150 
     13 C13         0.9098  -19.3561  -49.9457 C.ar      23 UNK        -0.0193 
     14 C14        -0.4466  -19.0637  -49.7805 C.ar      23 UNK        -0.1150 
     15 C15         1.7850  -19.6514  -48.7380 C.3       23 UNK        -0.0205 
     16 S16         1.8888  -21.4382  -48.4146 S.3       23 UNK        -0.2404 
     17 C17         0.1752  -21.8147  -47.9144 C.3       23 UNK        -0.0398 
     18 CA          0.0984  -23.0980  -47.0604 C.3       11 UNK         0.1400 
     19 N           0.7767  -22.9622  -45.7695 N.am      11 UNK        -0.5000 
     20 C           1.0190  -23.9785  -44.9308 C.2       10 UNK         0.5000 
     21 O           0.7450  -25.1515  -45.1813 O.2       10 UNK        -0.5000 
     22 CA          1.6100  -23.6149  -43.5586 C.3       10 UNK         0.1400 
     23 CB          3.1304  -23.4115  -43.6432 C.3       10 UNK        -0.1800 
     24 N           0.9775  -22.4215  -42.9960 N.am      10 UNK        -0.5000 
     25 C          -0.2933  -22.3712  -42.5720 C.2       9 UNK         0.5000 
     26 O          -1.0527  -23.3401  -42.5716 O.2       9 UNK        -0.5000 
     27 CA         -0.8139  -20.9981  -42.1119 C.3       9 UNK         0.1400 
     28 CB         -0.4198  -20.7273  -40.6527 C.3       9 UNK        -0.1800 
     29 N          -0.3305  -19.9081  -42.9600 N.am      9 UNK        -0.5000 
     30 C          -0.7198  -19.7181  -44.2296 C.2       8 UNK         0.5000 
     31 O          -1.5389  -20.4294  -44.8079 O.2       8 UNK        -0.5000 
     32 CA         -0.0518  -18.5714  -45.0077 C.3       8 UNK         0.1400 
     33 CB         -0.7915  -17.2561  -44.7527 C.3       8 UNK        -0.1800 
     34 N           1.3581  -18.3789  -44.6799 N.am      8 UNK        -0.5000 
     35 C           2.3136  -19.3153  -44.7496 C.2       7 UNK         0.5000 
     36 O           2.1209  -20.4532  -45.1740 O.2       7 UNK        -0.5000 
     37 CA          3.7020  -18.9348  -44.2020 C.3       7 UNK         0.1400 
     38 CB          4.6405  -18.5566  -45.3574 C.3       7 UNK        -0.1800 
     39 N           3.6796  -17.8400  -43.2248 N.am      7 UNK        -0.5000 
     40 C           3.0091  -17.8347  -42.0614 C.2       6 UNK         0.5000 
     41 O           2.3163  -18.7745  -41.6689 O.2       6 UNK        -0.5000 
     42 CA          3.0970  -16.5516  -41.2130 C.3       6 UNK         0.1400 
     43 CB          4.1241  -16.7266  -40.0843 C.3       6 UNK        -0.1800 
     44 N           3.4453  -15.3618  -41.9970 N.am      6 UNK        -0.5000 
     45 C           2.6128  -14.7297  -42.8344 C.2       5 UNK         0.5000 
     46 O           1.4491  -15.0794  -43.0463 O.2       5 UNK        -0.5000 
     47 CA          3.1875  -13.5230  -43.5857 C.3       5 UNK         0.1400 
     48 CB          3.4709  -13.8827  -45.0536 C.3       5 UNK        -0.1800 
     49 N           2.2236  -12.4287  -43.5339 N.am      5 UNK        -0.5000 
     50 C           2.5209  -11.1486  -43.2775 C.2       4 UNK         0.5000 
     51 O           3.6665  -10.7452  -43.0657 O.2       4 UNK        -0.5000 
     52 CA          1.3334  -10.1597  -43.2558 C.3       4 UNK         0.1400 
     53 CB          1.7750   -8.6810  -43.2818 C.3       4 UNK        -0.1800 
     54 N           0.3448  -10.4231  -44.3082 N.am      4 UNK        -0.5000 
     55 C           0.5383  -10.4169  -45.6355 C.2       3 UNK         0.5000 
     56 O           1.6166  -10.1575  -46.1726 O.2       3 UNK        -0.5000 
     57 CA         -0.6861  -10.8003  -46.4946 C.3       3 UNK         0.1400 
     58 CB         -0.3941  -10.7581  -48.0054 C.3       3 UNK        -0.1800 
     59 N          -1.1734  -12.1369  -46.1543 N.am      3 UNK        -0.5000 
     60 C          -1.9265  -12.4622  -45.0989 C.2       2 UNK         0.5000 
     61 O          -2.3462  -11.6293  -44.2929 O.2       2 UNK        -0.5000 
     62 CA         -2.2189  -13.9642  -44.8978 C.3       2 UNK         0.1400 
     63 CB         -3.1448  -14.2373  -43.6995 C.3       2 UNK        -0.1800 
     64 N          -2.7812  -14.6258  -46.0786 N.am      2 UNK        -0.5000 
     65 C          -2.1339  -14.9530  -47.2044 C.2       1 UNK         0.5000 
     66 O          -0.9572  -14.6543  -47.4176 O.2       1 UNK        -0.5000 
     67 C          -1.3604  -23.5642  -46.8898 C.2       11 UNK         0.5000 
     68 O          -1.7938  -24.4499  -47.6245 O.2       11 UNK        -0.5000 
     69 N          -2.0826  -23.0140  -45.9029 N.am      12 UNK        -0.5000 
     70 CA         -3.4408  -23.4344  -45.5572 C.3       12 UNK         0.1400 
     71 CB         -4.0529  -22.4701  -44.5320 C.3       12 UNK        -0.1800 
     72 C          -3.5115  -24.8906  -45.0646 C.2       12 UNK         0.5000 
     73 O          -4.3982  -25.6272  -45.4964 O.2       12 UNK        -0.5000 
     74 N          -2.5459  -25.3020  -44.2296 N.am      13 UNK        -0.5000 
     75 CA         -2.3804  -26.6847  -43.7689 C.3       13 UNK         0.1400 
     76 CB         -1.3011  -26.7365  -42.6773 C.3       13 UNK        -0.1800 
     77 C          -2.0544  -27.6705  -44.9105 C.2       13 UNK         0.5000 
     78 O          -2.4906  -28.8209  -44.8637 O.2       13 UNK        -0.5000 
     79 N          -1.3352  -27.1901  -45.9336 N.am      14 UNK        -0.5000 
     80 CA         -1.0306  -27.9070  -47.1741 C.3       14 UNK         0.1400 
     81 CB          0.2538  -27.3168  -47.7805 C.3       14 UNK        -0.1800 
     82 C          -2.1857  -27.8882  -48.2019 C.2       14 UNK         0.5000 
     83 O          -2.0229  -28.4459  -49.2879 O.2       14 UNK        -0.5000 
     84 N          -3.3178  -27.2541  -47.8569 N.am      15 UNK        -0.5000 
     85 CA         -4.5337  -27.0816  -48.6603 C.3       15 UNK         0.1400 
     86 CB         -5.1710  -28.4404  -49.0198 C.3       15 UNK        -0.1800 
     87 C          -4.3471  -26.1553  -49.8820 C.2       15 UNK         0.5000 
     88 O          -5.0866  -26.2702  -50.8604 O.2       15 UNK        -0.5000 
     89 N          -3.3965  -25.2183  -49.7857 N.am      16 UNK        -0.5000 
     90 CA         -3.1127  -24.1679  -50.7639 C.3       16 UNK         0.1400 
     91 CB         -1.6001  -24.1593  -51.0542 C.3       16 UNK        -0.1800 
     92 C          -3.6160  -22.8007  -50.2549 C.2       16 UNK         0.5000 
     93 O          -3.0402  -21.7678  -50.5947 O.2       16 UNK        -0.5000 
     94 N          -4.6863  -22.8128  -49.4446 N.am      17 UNK        -0.5000 
     95 CA         -5.2737  -21.6513  -48.7669 C.3       17 UNK         0.1400 
     96 CB         -6.4293  -22.1290  -47.8715 C.3       17 UNK        -0.1800 
     97 C          -5.7794  -20.5379  -49.7054 C.2       17 UNK         0.5000 
     98 O          -5.8321  -19.3808  -49.2912 O.2       17 UNK        -0.5000 
     99 N          -6.1436  -20.9042  -50.9388 N.am      18 UNK        -0.5000 
    100 CA        -6.6449  -20.0003  -51.9704 C.3       18 UNK         0.1400 
    101 CB        -8.1851  -20.0023  -51.9539 C.3       18 UNK        -0.1800 
    102 C         -6.0501  -20.3808  -53.3361 C.2       18 UNK         0.5000 
    103 O         -6.7647  -20.4017  -54.3401 O.2       18 UNK        -0.5000 
    104 N         -4.7456  -20.6899  -53.3535 N.am      19 UNK        -0.5000 
    105 CA        -3.9655  -21.0478  -54.5408 C.3       19 UNK         0.1400 
    106 CB        -2.6589  -21.7212  -54.0870 C.3       19 UNK        -0.1800 
    107 C         -3.7179  -19.8392  -55.4705 C.2       19 UNK         0.5000 
    108 O         -2.5955  -19.3361  -55.5521 O.2       19 UNK        -0.5000 
    109 N         -4.7925  -19.3728  -56.1245 N.am      20 UNK        -0.5000 
    110 CA        -4.8537  -18.2914  -57.1198 C.3       20 UNK         0.1400 
    111 CB        -4.1633  -18.7386  -58.4249 C.3       20 UNK        -0.1800 
    112 C         -4.3168  -16.9367  -56.6075 C.2       20 UNK         0.5000 
    113 O         -3.7628  -16.1569  -57.3858 O.2       20 UNK        -0.5000 
    114 N         -4.4318  -16.7118  -55.2885 N.am      21 UNK        -0.5000 
    115 CA        -3.8572  -15.5975  -54.5200 C.3       21 UNK         0.1400 
    116 CB        -4.5617  -14.2740  -54.8822 C.3       21 UNK        -0.1800 
    117 C         -2.3159  -15.4925  -54.6303 C.2       21 UNK         0.5000 
    118 O         -1.7539  -14.4289  -54.3641 O.2       21 UNK        -0.5000 
    119 N         -1.6647  -16.5881  -55.0465 N.am      22 UNK        -0.5000 
    120 CA        -0.2535  -16.6659  -55.4435 C.3       22 UNK         0.1400 
    121 C          0.1100  -15.8460  -56.7216 C.2       22 UNK         0.5000 
    122 N         -0.8484  -15.4816  -57.5675 N.am      22 UNK        -0.7600 
    123 O          1.2764  -15.5557  -56.9730 O.2       22 UNK        -0.5000 
    124 C124        0.7139  -16.4457  -54.2439 C.3       23 UNK        -0.0398 
    125 S125        2.0910  -17.6454  -54.2113 S.3       23 UNK        -0.2404 
    126 C126        1.2490  -19.1965  -53.7449 C.3       23 UNK        -0.0205 
    127 H127       -4.2196  -18.8051  -45.1732 H         1 UNK         0.0600 
    128 H128       -5.3154  -19.2110  -46.4983 H         1 UNK         0.0600 
    129 H129       -3.5732  -19.4426  -46.6849 H         1 UNK         0.0600 
    130 H130       -2.6211  -17.8583  -47.9108 H         1 UNK         0.3000 
    131 H131       -3.8560  -15.2720  -48.4313 H         1 UNK         0.0600 
    132 H132       -1.2146  -16.4665  -49.4331 H         1 UNK         0.0800 
    133 H133       -1.8949  -14.9570  -49.9510 H         1 UNK         0.0800 
    134 H134       -3.3062  -19.0749  -51.4479 H         1 UNK         0.0800 
    135 H135       -3.0861  -18.8821  -49.7377 H         1 UNK         0.0800 
    136 H136       -1.3338  -18.6710  -53.0315 H         1 UNK         0.1150 
    137 H137        2.5032  -19.6151  -51.3652 H         1 UNK         0.1150 
    138 H138       -0.8708  -19.0427  -48.7879 H         1 UNK         0.1150 
    139 H139        2.7912  -19.2663  -48.9094 H         1 UNK         0.0800 
    140 H140        1.4121  -19.1354  -47.8533 H         1 UNK         0.0800 
    141 H141       -0.2389  -20.9704  -47.3620 H         1 UNK         0.0800 
    142 H142       -0.4201  -21.9146  -48.8245 H         1 UNK         0.0800 
    143 H143        0.6126  -23.8891  -47.6104 H         1 UNK         0.0600 
    144 H144        1.1003  -22.0318  -45.5174 H         1 UNK         0.3000 
    145 H145        1.4191  -24.4502  -42.8814 H         1 UNK         0.0600 
    146 H146        3.3972  -22.5974  -44.3171 H         1 UNK         0.0600 
    147 H147        3.5537  -23.1888  -42.6637 H         1 UNK         0.0600 
    148 H148        3.6211  -24.3130  -44.0120 H         1 UNK         0.0600 
    149 H149        1.5163  -21.5680  -43.0144 H         1 UNK         0.3000 
    150 H150       -1.9042  -21.0174  -42.1705 H         1 UNK         0.0600 
    151 H151       -0.8277  -19.7786  -40.3036 H         1 UNK         0.0600 
    152 H152        0.6630  -20.6932  -40.5261 H         1 UNK         0.0600 
    153 H153       -0.8028  -21.5082  -39.9945 H         1 UNK         0.0600 
    154 H154        0.3902  -19.3123  -42.5696 H         1 UNK         0.3000 
    155 H155       -0.1218  -18.8064  -46.0704 H         1 UNK         0.0600 
    156 H156       -1.8495  -17.3413  -44.9977 H         1 UNK         0.0600 
    157 H157       -0.3701  -16.4605  -45.3653 H         1 UNK         0.0600 
    158 H158       -0.7203  -16.9468  -43.7089 H         1 UNK         0.0600 
    159 H159        1.6080  -17.4766  -44.3007 H         1 UNK         0.3000 
    160 H160        4.1060  -19.8176  -43.7025 H         1 UNK         0.0600 
    161 H161        4.3006  -17.6580  -45.8740 H         1 UNK         0.0600 
    162 H162        4.6944  -19.3585  -46.0954 H         1 UNK         0.0600 
    163 H163        5.6547  -18.3771  -45.0005 H         1 UNK         0.0600 
    164 H164        4.2218  -17.0216  -43.4575 H         1 UNK         0.3000 
    165 H165        2.1162  -16.3917  -40.7598 H         1 UNK         0.0600 
    166 H166        5.1310  -16.8791  -40.4749 H         1 UNK         0.0600 
    167 H167        4.1451  -15.8540  -39.4311 H         1 UNK         0.0600 
    168 H168        3.8789  -17.5893  -39.4632 H         1 UNK         0.0600 
    169 H169        4.3838  -15.0075  -41.8777 H         1 UNK         0.3000 
    170 H170        4.1245  -13.2293  -43.1076 H         1 UNK         0.0600 
    171 H171        4.1871  -14.7020  -45.1263 H         1 UNK         0.0600 
    172 H172        2.5634  -14.1899  -45.5757 H         1 UNK         0.0600 
    173 H173        3.8920  -13.0328  -45.5910 H         1 UNK         0.0600 
    174 H174        1.2573  -12.6998  -43.6506 H         1 UNK         0.3000 
    175 H175        0.8203  -10.3294  -42.3082 H         1 UNK         0.0600 
    176 H176        0.9150   -8.0122  -43.2445 H         1 UNK         0.0600 
    177 H177        2.4043   -8.4453  -42.4228 H         1 UNK         0.0600 
    178 H178        2.3459   -8.4435  -44.1798 H         1 UNK         0.0600 
    179 H179       -0.5851  -10.6754  -43.9875 H         1 UNK         0.3000 
    180 H180       -1.4717  -10.0710  -46.2864 H         1 UNK         0.0600 
    181 H181       -1.2884  -10.9870  -48.5853 H         1 UNK         0.0600 
    182 H182       -0.0543   -9.7679  -48.3118 H         1 UNK         0.0600 
    183 H183        0.3787  -11.4749  -48.2862 H         1 UNK         0.0600 
    184 H184       -0.8607  -12.9001  -46.7493 H         1 UNK         0.3000 
    185 H185       -1.2562  -14.4253  -44.6731 H         1 UNK         0.0600 
    186 H186       -3.2723  -15.3079  -43.5370 H         1 UNK         0.0600 
    187 H187       -2.7330  -13.8198  -42.7798 H         1 UNK         0.0600 
    188 H188       -4.1331  -13.8005  -43.8482 H         1 UNK         0.0600 
    189 H189       -3.7388  -14.9503  -45.9927 H         1 UNK         0.3000 
    190 H190       -1.6962  -22.2422  -45.3662 H         1 UNK         0.3000 
    191 H191       -4.0317  -23.3762  -46.4709 H         1 UNK         0.0600 
    192 H192       -5.0695  -22.7682  -44.2730 H         1 UNK         0.0600 
    193 H193       -4.1042  -21.4565  -44.9281 H         1 UNK         0.0600 
    194 H194       -3.4727  -22.4408  -43.6097 H         1 UNK         0.0600 
    195 H195       -1.8778  -24.6224  -43.8789 H         1 UNK         0.3000 
    196 H196       -3.3263  -27.0004  -43.3239 H         1 UNK         0.0600 
    197 H197       -1.1844  -27.7498  -42.2912 H         1 UNK         0.0600 
    198 H198       -1.5614  -26.0952  -41.8351 H         1 UNK         0.0600 
    199 H199       -0.3303  -26.4152  -43.0542 H         1 UNK         0.0600 
    200 H200       -0.9673  -26.2484  -45.8606 H         1 UNK         0.3000 
    201 H201       -0.8356  -28.9534  -46.9314 H         1 UNK         0.0600 
    202 H202        1.0762  -27.3421  -47.0654 H         1 UNK         0.0600 
    203 H203        0.1134  -26.2822  -48.0924 H         1 UNK         0.0600 
    204 H204        0.5705  -27.8821  -48.6577 H         1 UNK         0.0600 
    205 H205       -3.3454  -26.8071  -46.9483 H         1 UNK         0.3000 
    206 H206       -5.2386  -26.5628  -48.0095 H         1 UNK         0.0600 
    207 H207       -5.2887  -29.0670  -48.1356 H         1 UNK         0.0600 
    208 H208       -6.1627  -28.3042  -49.4527 H         1 UNK         0.0600 
    209 H209       -4.5737  -28.9917  -49.7462 H         1 UNK         0.0600 
    210 H210       -2.8472  -25.1621  -48.9290 H         1 UNK         0.3000 
    211 H211       -3.6341  -24.3685  -51.7016 H         1 UNK         0.0600 
    212 H212       -1.3423  -23.4149  -51.8081 H         1 UNK         0.0600 
    213 H213       -1.2686  -25.1274  -51.4295 H         1 UNK         0.0600 
    214 H214       -1.0184  -23.9327  -50.1611 H         1 UNK         0.0600 
    215 H215       -5.1014  -23.7083  -49.2368 H         1 UNK         0.3000 
    216 H216       -4.4971  -21.2203  -48.1328 H         1 UNK         0.0600 
    217 H217       -6.8372  -21.3021  -47.2885 H         1 UNK         0.0600 
    218 H218       -6.1125  -22.8938  -47.1646 H         1 UNK         0.0600 
    219 H219       -7.2462  -22.5452  -48.4624 H         1 UNK         0.0600 
    220 H220       -6.0585  -21.8766  -51.1991 H         1 UNK         0.3000 
    221 H221       -6.3035  -18.9824  -51.7701 H         1 UNK         0.0600 
    222 H222       -8.5869  -20.9912  -52.1774 H         1 UNK         0.0600 
    223 H223       -8.5682  -19.6974  -50.9799 H         1 UNK         0.0600 
    224 H224       -8.5879  -19.3065  -52.6909 H         1 UNK         0.0600 
    225 H225       -4.2354  -20.6680  -52.4807 H         1 UNK         0.3000 
    226 H226       -4.5295  -21.7849  -55.1162 H         1 UNK         0.0600 
    227 H227       -2.0260  -21.9699  -54.9398 H         1 UNK         0.0600 
    228 H228       -2.0800  -21.0795  -53.4224 H         1 UNK         0.0600 
    229 H229       -2.8651  -22.6505  -53.5574 H         1 UNK         0.0600 
    230 H230       -5.6829  -19.8042  -55.8926 H         1 UNK         0.3000 
    231 H231       -5.9105  -18.1341  -57.3392 H         1 UNK         0.0600 
    232 H232       -4.3128  -18.0076  -59.2204 H         1 UNK         0.0600 
    233 H233       -4.5670  -19.6869  -58.7796 H         1 UNK         0.0600 
    234 H234       -3.0880  -18.8612  -58.2901 H         1 UNK         0.0600 
    235 H235       -4.8882  -17.4265  -54.7405 H         1 UNK         0.3000 
    236 H236       -4.0749  -15.8072  -53.4735 H         1 UNK         0.0600 
    237 H237       -4.3316  -13.9580  -55.9001 H         1 UNK         0.0600 
    238 H238       -5.6443  -14.3669  -54.7959 H         1 UNK         0.0600 
    239 H239       -4.2531  -13.4698  -54.2134 H         1 UNK         0.0600 
    240 H240       -2.2006  -17.4296  -55.2355 H         1 UNK         0.3000 
    241 H241       -0.1519  -17.6969  -55.7788 H         1 UNK         0.0600 
    242 H242       -0.6030  -14.9607  -58.3944 H         1 UNK         0.3800 
    243 H243       -1.8206  -15.7213  -57.3995 H         1 UNK         0.3800 
    244 H244        0.1848  -16.5184  -53.2939 H         1 UNK         0.0800 
    245 H245        1.1259  -15.4354  -54.2526 H         1 UNK         0.0800 
    246 H246        0.4780  -19.4443  -54.4754 H         1 UNK         0.0800 
    247 H247        1.9729  -20.0113  -53.7929 H         1 UNK         0.0800 
@<TRIPOS>BOND
     1    1    2 1    
     2    1  127 1    
     3    1  128 1    
     4    1  129 1    
     5    2    3 2    
     6    2    4 am   BACKBONE|DICT|INTERRES
     7    4    5 1    
     8    4  130 1    
     9    5    6 1    
    10    5   65 1    
    11    5  131 1    
    12    6    7 1    
    13    6  132 1    
    14    6  133 1    
    15    7    8 1    
    16    8    9 1    
    17    8  134 1    
    18    8  135 1    
    19    9   10 ar   
    20    9   14 ar   
    21   10   11 ar   
    22   10  136 1    
    23   11   12 ar   
    24   11  126 1    
    25   12   13 ar   
    26   12  137 1    
    27   13   14 ar   
    28   13   15 1    
    29   14  138 1    
    30   15   16 1    
    31   15  139 1    
    32   15  140 1    
    33   16   17 1    
    34   17   18 1    
    35   17  141 1    
    36   17  142 1    
    37   18   19 1    
    38   18   67 1    
    39   18  143 1    
    40   19   20 am   BACKBONE|DICT|INTERRES
    41   19  144 1    
    42   20   21 2    
    43   20   22 1    
    44   22   23 1    
    45   22   24 1    
    46   22  145 1    
    47   23  146 1    
    48   23  147 1    
    49   23  148 1    
    50   24   25 am   BACKBONE|DICT|INTERRES
    51   24  149 1    
    52   25   26 2    
    53   25   27 1    
    54   27   28 1    
    55   27   29 1    
    56   27  150 1    
    57   28  151 1    
    58   28  152 1    
    59   28  153 1    
    60   29   30 am   BACKBONE|DICT|INTERRES
    61   29  154 1    
    62   30   31 2    
    63   30   32 1    
    64   32   33 1    
    65   32   34 1    
    66   32  155 1    
    67   33  156 1    
    68   33  157 1    
    69   33  158 1    
    70   34   35 am   BACKBONE|DICT|INTERRES
    71   34  159 1    
    72   35   36 2    
    73   35   37 1    
    74   37   38 1    
    75   37   39 1    
    76   37  160 1    
    77   38  161 1    
    78   38  162 1    
    79   38  163 1    
    80   39   40 am   BACKBONE|DICT|INTERRES
    81   39  164 1    
    82   40   41 2    
    83   40   42 1    
    84   42   43 1    
    85   42   44 1    
    86   42  165 1    
    87   43  166 1    
    88   43  167 1    
    89   43  168 1    
    90   44   45 am   BACKBONE|DICT|INTERRES
    91   44  169 1    
    92   45   46 2    
    93   45   47 1    
    94   47   48 1    
    95   47   49 1    
    96   47  170 1    
    97   48  171 1    
    98   48  172 1    
    99   48  173 1    
   100   49   50 am   BACKBONE|DICT|INTERRES
   101   49  174 1    
   102   50   51 2    
   103   50   52 1    
   104   52   53 1    
   105   52   54 1    
   106   52  175 1    
   107   53  176 1    
   108   53  177 1    
   109   53  178 1    
   110   54   55 am   BACKBONE|DICT|INTERRES
   111   54  179 1    
   112   55   56 2    
   113   55   57 1    
   114   57   58 1    
   115   57   59 1    
   116   57  180 1    
   117   58  181 1    
   118   58  182 1    
   119   58  183 1    
   120   59   60 am   BACKBONE|DICT|INTERRES
   121   59  184 1    
   122   60   61 2    
   123   60   62 1    
   124   62   63 1    
   125   62   64 1    
   126   62  185 1    
   127   63  186 1    
   128   63  187 1    
   129   63  188 1    
   130   64   65 am   BACKBONE|DICT|INTERRES
   131   64  189 1    
   132   65   66 2    
   133   67   68 2    
   134   67   69 am   BACKBONE|DICT|INTERRES
   135   69   70 1    
   136   69  190 1    
   137   70   71 1    
   138   70   72 1    
   139   70  191 1    
   140   71  192 1    
   141   71  193 1    
   142   71  194 1    
   143   72   73 2    
   144   72   74 am   BACKBONE|DICT|INTERRES
   145   74   75 1    
   146   74  195 1    
   147   75   76 1    
   148   75   77 1    
   149   75  196 1    
   150   76  197 1    
   151   76  198 1    
   152   76  199 1    
   153   77   78 2    
   154   77   79 am   BACKBONE|DICT|INTERRES
   155   79   80 1    
   156   79  200 1    
   157   80   81 1    
   158   80   82 1    
   159   80  201 1    
   160   81  202 1    
   161   81  203 1    
   162   81  204 1    
   163   82   83 2    
   164   82   84 am   BACKBONE|DICT|INTERRES
   165   84   85 1    
   166   84  205 1    
   167   85   86 1    
   168   85   87 1    
   169   85  206 1    
   170   86  207 1    
   171   86  208 1    
   172   86  209 1    
   173   87   88 2    
   174   87   89 am   BACKBONE|DICT|INTERRES
   175   89   90 1    
   176   89  210 1    
   177   90   91 1    
   178   90   92 1    
   179   90  211 1    
   180   91  212 1    
   181   91  213 1    
   182   91  214 1    
   183   92   93 2    
   184   92   94 am   BACKBONE|DICT|INTERRES
   185   94   95 1    
   186   94  215 1    
   187   95   96 1    
   188   95   97 1    
   189   95  216 1    
   190   96  217 1    
   191   96  218 1    
   192   96  219 1    
   193   97   98 2    
   194   97   99 am   BACKBONE|DICT|INTERRES
   195   99  100 1    
   196   99  220 1    
   197  100  101 1    
   198  100  102 1    
   199  100  221 1    
   200  101  222 1    
   201  101  223 1    
   202  101  224 1    
   203  102  103 2    
   204  102  104 am   BACKBONE|DICT|INTERRES
   205  104  105 1    
   206  104  225 1    
   207  105  106 1    
   208  105  107 1    
   209  105  226 1    
   210  106  227 1    
   211  106  228 1    
   212  106  229 1    
   213  107  108 2    
   214  107  109 am   BACKBONE|DICT|INTERRES
   215  109  110 1    
   216  109  230 1    
   217  110  111 1    
   218  110  112 1    
   219  110  231 1    
   220  111  232 1    
   221  111  233 1    
   222  111  234 1    
   223  112  113 2    
   224  112  114 am   BACKBONE|DICT|INTERRES
   225  114  115 1    
   226  114  235 1    
   227  115  116 1    
   228  115  117 1    
   229  115  236 1    
   230  116  237 1    
   231  116  238 1    
   232  116  239 1    
   233  117  118 2    
   234  117  119 am   BACKBONE|DICT|INTERRES
   235  119  120 1    
   236  119  240 1    
   237  120  121 1    
   238  120  124 1    
   239  120  241 1    
   240  121  122 am   BACKBONE|DICT|INTERRES
   241  121  123 2    
   242  122  242 1    
   243  122  243 1    
   244  124  125 1    
   245  124  244 1    
   246  124  245 1    
   247  125  126 1    
   248  126  246 1    
   249  126  247 1    
@<TRIPOS>SUBSTRUCTURE
     1 UNK         1 GROUP             0       ****    0 ROOT    
