@<TRIPOS>MOLECULE
3R540
247   249    1
SMALL
USER_CHARGES


@<TRIPOS>ATOM
      1 CA         -4.3737  -11.3768  -47.3240 C.3       0 UNK        -0.1800 
      2 C          -3.1358  -12.1737  -47.7097 C.2       0 UNK         0.5000 
      3 O          -2.0176  -11.6925  -47.5288 O.2       0 UNK        -0.5000 
      4 N          -3.3311  -13.3911  -48.2362 N.am      1 UNK        -0.5000 
      5 CA         -2.2591  -14.3079  -48.6498 C.3       1 UNK         0.1400 
      6 C6         -2.8000  -15.4164  -49.5879 C.3       23 UNK        -0.0398 
      7 S7         -1.5130  -16.0962  -50.6891 S.3       23 UNK        -0.2404 
      8 C8         -1.3517  -17.7668  -49.9994 C.3       23 UNK        -0.0205 
      9 C9         -0.1276  -18.4995  -50.5220 C.ar      23 UNK        -0.0193 
     10 C10        -0.0611  -18.8997  -51.8596 C.ar      23 UNK        -0.1150 
     11 C11         1.0635  -19.5719  -52.3493 C.ar      23 UNK        -0.0193 
     12 C12         2.1107  -19.8721  -51.4730 C.ar      23 UNK        -0.1150 
     13 C13         2.0488  -19.4953  -50.1280 C.ar      23 UNK        -0.0193 
     14 C14         0.9309  -18.8007  -49.6594 C.ar      23 UNK        -0.1150 
     15 C15         3.2007  -19.8312  -49.1937 C.3       23 UNK        -0.0205 
     16 S16         2.9844  -21.4622  -48.4118 S.3       23 UNK        -0.2404 
     17 C17         2.1483  -21.0312  -46.8489 C.3       23 UNK        -0.0398 
     18 CA          0.9487  -21.9563  -46.5241 C.3       11 UNK         0.1400 
     19 N           0.7191  -22.0670  -45.0804 N.am      11 UNK        -0.5000 
     20 C          -0.1665  -22.8934  -44.5038 C.2       10 UNK         0.5000 
     21 O          -0.8418  -23.7165  -45.1228 O.2       10 UNK        -0.5000 
     22 CA         -0.3727  -22.7323  -42.9866 C.3       10 UNK         0.1400 
     23 CB          0.7213  -23.4725  -42.2033 C.3       10 UNK        -0.1800 
     24 N          -0.4103  -21.3273  -42.5755 N.am      10 UNK        -0.5000 
     25 C          -1.3514  -20.4504  -42.9534 C.2       9 UNK         0.5000 
     26 O          -2.3289  -20.7548  -43.6344 O.2       9 UNK        -0.5000 
     27 CA         -1.1384  -18.9772  -42.5591 C.3       9 UNK         0.1400 
     28 CB         -1.5973  -18.7142  -41.1185 C.3       9 UNK        -0.1800 
     29 N           0.2503  -18.5472  -42.7310 N.am      9 UNK        -0.5000 
     30 C           0.8730  -18.4797  -43.9164 C.2       8 UNK         0.5000 
     31 O           0.3208  -18.7036  -44.9916 O.2       8 UNK        -0.5000 
     32 CA          2.3738  -18.1555  -43.9004 C.3       8 UNK         0.1400 
     33 CB          2.6038  -16.6373  -43.9192 C.3       8 UNK        -0.1800 
     34 N           3.0430  -18.7558  -42.7460 N.am      8 UNK        -0.5000 
     35 C           3.2964  -20.0674  -42.6269 C.2       7 UNK         0.5000 
     36 O           3.0247  -20.8934  -43.4982 O.2       7 UNK        -0.5000 
     37 CA          3.9107  -20.5425  -41.2959 C.3       7 UNK         0.1400 
     38 CB          5.4305  -20.3213  -41.2911 C.3       7 UNK        -0.1800 
     39 N           3.3206  -19.8806  -40.1313 N.am      7 UNK        -0.5000 
     40 C           2.0407  -20.0096  -39.7547 C.2       6 UNK         0.5000 
     41 O           1.2417  -20.7581  -40.3145 O.2       6 UNK        -0.5000 
     42 CA          1.5514  -19.1222  -38.5924 C.3       6 UNK         0.1400 
     43 CB          1.6708  -19.8767  -37.2601 C.3       6 UNK        -0.1800 
     44 N           2.2324  -17.8283  -38.4738 N.am      6 UNK        -0.5000 
     45 C           2.3561  -16.9068  -39.4399 C.2       5 UNK         0.5000 
     46 O           1.9379  -17.0723  -40.5885 O.2       5 UNK        -0.5000 
     47 CA          3.1030  -15.6135  -39.0463 C.3       5 UNK         0.1400 
     48 CB          4.4488  -15.9222  -38.3623 C.3       5 UNK        -0.1800 
     49 N           3.3722  -14.7286  -40.1799 N.am      5 UNK        -0.5000 
     50 C           2.4764  -13.9823  -40.8373 C.2       4 UNK         0.5000 
     51 O           1.2741  -13.9546  -40.5671 O.2       4 UNK        -0.5000 
     52 CA          3.0227  -13.0817  -41.9605 C.3       4 UNK         0.1400 
     53 CB          4.4508  -13.4350  -42.4317 C.3       4 UNK        -0.1800 
     54 N           2.1142  -13.0895  -43.1044 N.am      4 UNK        -0.5000 
     55 C           1.8636  -12.0312  -43.8832 C.2       3 UNK         0.5000 
     56 O           2.3532  -10.9172  -43.6878 O.2       3 UNK        -0.5000 
     57 CA          0.9416  -12.2311  -45.1027 C.3       3 UNK         0.1400 
     58 CB          1.7210  -12.0092  -46.4096 C.3       3 UNK        -0.1800 
     59 N           0.2887  -13.5386  -45.1842 N.am      3 UNK        -0.5000 
     60 C          -0.7791  -13.9171  -44.4740 C.2       2 UNK         0.5000 
     61 O          -1.2371  -13.2687  -43.5326 O.2       2 UNK        -0.5000 
     62 CA         -1.4899  -15.1958  -44.9684 C.3       2 UNK         0.1400 
     63 CB         -2.5658  -15.6901  -43.9857 C.3       2 UNK        -0.1800 
     64 N          -2.1186  -14.9396  -46.2667 N.am      2 UNK        -0.5000 
     65 C          -1.4744  -14.8782  -47.4424 C.2       1 UNK         0.5000 
     66 O          -0.2907  -15.1927  -47.5737 O.2       1 UNK        -0.5000 
     67 C          -0.3335  -21.5219  -47.2633 C.2       11 UNK         0.5000 
     68 O          -0.7273  -22.1711  -48.2308 O.2       11 UNK        -0.5000 
     69 N          -0.9984  -20.4765  -46.7496 N.am      12 UNK        -0.5000 
     70 CA         -2.2695  -19.9668  -47.2567 C.3       12 UNK         0.1400 
     71 CB         -2.6348  -18.6579  -46.5415 C.3       12 UNK        -0.1800 
     72 C          -3.4179  -20.9811  -47.1647 C.2       12 UNK         0.5000 
     73 O          -4.1971  -21.0787  -48.1107 O.2       12 UNK        -0.5000 
     74 N          -3.4893  -21.7354  -46.0609 N.am      13 UNK        -0.5000 
     75 CA         -4.4569  -22.8141  -45.8612 C.3       13 UNK         0.1400 
     76 CB         -4.3780  -23.3240  -44.4144 C.3       13 UNK        -0.1800 
     77 C          -4.2683  -23.9661  -46.8648 C.2       13 UNK         0.5000 
     78 O          -5.2524  -24.4351  -47.4372 O.2       13 UNK        -0.5000 
     79 N          -3.0100  -24.3692  -47.0928 N.am      14 UNK        -0.5000 
     80 CA         -2.6305  -25.3882  -48.0741 C.3       14 UNK         0.1400 
     81 CB         -1.1557  -25.7673  -47.8697 C.3       14 UNK        -0.1800 
     82 C          -2.8853  -24.9429  -49.5275 C.2       14 UNK         0.5000 
     83 O          -3.3551  -25.7419  -50.3378 O.2       14 UNK        -0.5000 
     84 N          -2.5911  -23.6703  -49.8213 N.am      15 UNK        -0.5000 
     85 CA         -2.7843  -23.0343  -51.1249 C.3       15 UNK         0.1400 
     86 CB         -1.9013  -21.7777  -51.1762 C.3       15 UNK        -0.1800 
     87 C          -4.2484  -22.6624  -51.4342 C.2       15 UNK         0.5000 
     88 O          -4.5379  -22.2790  -52.5690 O.2       15 UNK        -0.5000 
     89 N          -5.1250  -22.7233  -50.4205 N.am      16 UNK        -0.5000 
     90 CA         -6.5230  -22.2773  -50.4152 C.3       16 UNK         0.1400 
     91 CB         -7.3849  -23.1580  -51.3421 C.3       16 UNK        -0.1800 
     92 C          -6.6441  -20.7725  -50.7336 C.2       16 UNK         0.5000 
     93 O          -7.4428  -20.3762  -51.5815 O.2       16 UNK        -0.5000 
     94 N          -5.7926  -19.9651  -50.0844 N.am      17 UNK        -0.5000 
     95 CA         -5.5936  -18.5276  -50.3070 C.3       17 UNK         0.1400 
     96 CB         -6.8249  -17.7231  -49.8439 C.3       17 UNK        -0.1800 
     97 C          -5.1678  -18.2114  -51.7585 C.2       17 UNK         0.5000 
     98 O          -5.6197  -17.2243  -52.3387 O.2       17 UNK        -0.5000 
     99 N          -4.3198  -19.0936  -52.3084 N.am      18 UNK        -0.5000 
    100 CA        -3.7821  -19.1365  -53.6734 C.3       18 UNK         0.1400 
    101 CB        -3.1916  -17.7786  -54.1046 C.3       18 UNK        -0.1800 
    102 C         -4.7606  -19.6975  -54.7257 C.2       18 UNK         0.5000 
    103 O         -4.3310  -19.9601  -55.8483 O.2       18 UNK        -0.5000 
    104 N         -6.0354  -19.9225  -54.3719 N.am      19 UNK        -0.5000 
    105 CA        -7.0747  -20.3890  -55.2966 C.3       19 UNK         0.1400 
    106 CB        -8.4533  -20.2646  -54.6310 C.3       19 UNK        -0.1800 
    107 C         -6.8620  -21.8228  -55.8220 C.2       19 UNK         0.5000 
    108 O         -7.4046  -22.1565  -56.8765 O.2       19 UNK        -0.5000 
    109 N         -6.0817  -22.6352  -55.0983 N.am      20 UNK        -0.5000 
    110 CA        -5.7308  -24.0068  -55.4633 C.3       20 UNK         0.1400 
    111 CB        -6.1837  -24.9484  -54.3327 C.3       20 UNK        -0.1800 
    112 C         -4.2238  -24.1524  -55.7511 C.2       20 UNK         0.5000 
    113 O         -3.7258  -25.2800  -55.7609 O.2       20 UNK        -0.5000 
    114 N         -3.5107  -23.0374  -55.9665 N.am      21 UNK        -0.5000 
    115 CA        -2.0620  -23.0198  -56.1458 C.3       21 UNK         0.1400 
    116 CB        -1.3726  -22.9998  -54.7649 C.3       21 UNK        -0.1800 
    117 C         -1.6357  -21.8872  -57.0989 C.2       21 UNK         0.5000 
    118 O         -2.1189  -21.8392  -58.2314 O.2       21 UNK        -0.5000 
    119 N         -0.6885  -21.0555  -56.6500 N.am      22 UNK        -0.5000 
    120 CA         0.0103  -20.0106  -57.4109 C.3       22 UNK         0.1400 
    121 C         -0.8926  -18.8964  -58.0163 C.2       22 UNK         0.5000 
    122 N         -0.4838  -18.3045  -59.1313 N.am      22 UNK        -0.7600 
    123 O         -1.9329  -18.5336  -57.4773 O.2       22 UNK        -0.5000 
    124 C124        1.1914  -19.4265  -56.5882 C.3       23 UNK        -0.0398 
    125 S125        0.7267  -18.6758  -54.9830 S.3       23 UNK        -0.2404 
    126 C126        1.1471  -20.0087  -53.8082 C.3       23 UNK        -0.0205 
    127 H127       -4.3999  -10.4357  -47.8732 H         1 UNK         0.0600 
    128 H128       -4.3560  -11.1503  -46.2579 H         1 UNK         0.0600 
    129 H129       -5.2923  -11.9227  -47.5407 H         1 UNK         0.0600 
    130 H130       -4.2761  -13.7235  -48.3675 H         1 UNK         0.3000 
    131 H131       -1.5488  -13.7076  -49.2233 H         1 UNK         0.0600 
    132 H132       -3.5677  -15.0038  -50.2444 H         1 UNK         0.0800 
    133 H133       -3.2931  -16.2094  -49.0232 H         1 UNK         0.0800 
    134 H134       -2.2476  -18.3422  -50.2325 H         1 UNK         0.0800 
    135 H135       -1.2933  -17.6805  -48.9152 H         1 UNK         0.0800 
    136 H136       -0.8824  -18.6773  -52.5236 H         1 UNK         0.1150 
    137 H137        2.9778  -20.4068  -51.8349 H         1 UNK         0.1150 
    138 H138        0.8818  -18.5010  -48.6218 H         1 UNK         0.1150 
    139 H139        4.1344  -19.8411  -49.7581 H         1 UNK         0.0800 
    140 H140        3.3215  -19.0551  -48.4365 H         1 UNK         0.0800 
    141 H141        1.8546  -19.9808  -46.8423 H         1 UNK         0.0800 
    142 H142        2.9102  -21.1264  -46.0755 H         1 UNK         0.0800 
    143 H143        1.1930  -22.9645  -46.8661 H         1 UNK         0.0600 
    144 H144        1.2700  -21.4587  -44.4855 H         1 UNK         0.3000 
    145 H145       -1.3349  -23.1812  -42.7321 H         1 UNK         0.0600 
    146 H146        0.5348  -23.4277  -41.1302 H         1 UNK         0.0600 
    147 H147        1.7083  -23.0478  -42.3878 H         1 UNK         0.0600 
    148 H148        0.7580  -24.5258  -42.4839 H         1 UNK         0.0600 
    149 H149        0.3255  -21.0177  -41.9461 H         1 UNK         0.3000 
    150 H150       -1.7545  -18.3702  -43.2234 H         1 UNK         0.0600 
    151 H151       -1.0892  -19.3648  -40.4084 H         1 UNK         0.0600 
    152 H152       -2.6675  -18.8970  -41.0160 H         1 UNK         0.0600 
    153 H153       -1.4126  -17.6807  -40.8245 H         1 UNK         0.0600 
    154 H154        0.7733  -18.3075  -41.8966 H         1 UNK         0.3000 
    155 H155        2.8143  -18.5716  -44.8090 H         1 UNK         0.0600 
    156 H156        2.1430  -16.1847  -44.7982 H         1 UNK         0.0600 
    157 H157        3.6676  -16.4042  -43.9548 H         1 UNK         0.0600 
    158 H158        2.1799  -16.1525  -43.0405 H         1 UNK         0.0600 
    159 H159        3.1933  -18.1515  -41.9481 H         1 UNK         0.3000 
    160 H160        3.7211  -21.6144  -41.2071 H         1 UNK         0.0600 
    161 H161        5.6851  -19.2622  -41.3477 H         1 UNK         0.0600 
    162 H162        5.8994  -20.8179  -42.1417 H         1 UNK         0.0600 
    163 H163        5.8851  -20.7284  -40.3878 H         1 UNK         0.0600 
    164 H164        3.9112  -19.2451  -39.6162 H         1 UNK         0.3000 
    165 H165        0.4957  -18.9111  -38.7665 H         1 UNK         0.0600 
    166 H166        1.2276  -19.3081  -36.4424 H         1 UNK         0.0600 
    167 H167        1.1512  -20.8350  -37.3054 H         1 UNK         0.0600 
    168 H168        2.7116  -20.0793  -37.0045 H         1 UNK         0.0600 
    169 H169        2.6141  -17.6174  -37.5632 H         1 UNK         0.3000 
    170 H170        2.4696  -15.0752  -38.3385 H         1 UNK         0.0600 
    171 H171        5.0973  -16.5214  -39.0030 H         1 UNK         0.0600 
    172 H172        4.9829  -15.0047  -38.1139 H         1 UNK         0.0600 
    173 H173        4.3132  -16.4668  -37.4274 H         1 UNK         0.0600 
    174 H174        4.3304  -14.6981  -40.4947 H         1 UNK         0.3000 
    175 H175        3.0514  -12.0780  -41.5314 H         1 UNK         0.0600 
    176 H176        4.5133  -14.4572  -42.8050 H         1 UNK         0.0600 
    177 H177        4.7729  -12.7719  -43.2349 H         1 UNK         0.0600 
    178 H178        5.1774  -13.3245  -41.6260 H         1 UNK         0.0600 
    179 H179        1.6158  -13.9499  -43.2772 H         1 UNK         0.3000 
    180 H180        0.1636  -11.4669  -45.0425 H         1 UNK         0.0600 
    181 H181        1.0610  -12.0696  -47.2756 H         1 UNK         0.0600 
    182 H182        2.5111  -12.7503  -46.5362 H         1 UNK         0.0600 
    183 H183        2.1876  -11.0235  -46.4292 H         1 UNK         0.0600 
    184 H184        0.5457  -14.1162  -45.9772 H         1 UNK         0.3000 
    185 H185       -0.7412  -15.9837  -45.0754 H         1 UNK         0.0600 
    186 H186       -3.3518  -14.9484  -43.8385 H         1 UNK         0.0600 
    187 H187       -3.0372  -16.6049  -44.3434 H         1 UNK         0.0600 
    188 H188       -2.1306  -15.9057  -43.0090 H         1 UNK         0.0600 
    189 H189       -3.0747  -14.6173  -46.2384 H         1 UNK         0.3000 
    190 H190       -0.5893  -19.9691  -45.9681 H         1 UNK         0.3000 
    191 H191       -2.1260  -19.7570  -48.3148 H         1 UNK         0.0600 
    192 H192       -1.8297  -17.9272  -46.6135 H         1 UNK         0.0600 
    193 H193       -2.8353  -18.8233  -45.4832 H         1 UNK         0.0600 
    194 H194       -3.5268  -18.2078  -46.9784 H         1 UNK         0.0600 
    195 H195       -2.8560  -21.5382  -45.2906 H         1 UNK         0.3000 
    196 H196       -5.4542  -22.3978  -46.0179 H         1 UNK         0.0600 
    197 H197       -4.5808  -22.5230  -43.7033 H         1 UNK         0.0600 
    198 H198       -3.3952  -23.7343  -44.1831 H         1 UNK         0.0600 
    199 H199       -5.1124  -24.1105  -44.2373 H         1 UNK         0.0600 
    200 H200       -2.2564  -23.9489  -46.5571 H         1 UNK         0.3000 
    201 H201       -3.2376  -26.2764  -47.8879 H         1 UNK         0.0600 
    202 H202       -0.9846  -26.1537  -46.8648 H         1 UNK         0.0600 
    203 H203       -0.4954  -24.9115  -48.0138 H         1 UNK         0.0600 
    204 H204       -0.8496  -26.5419  -48.5738 H         1 UNK         0.0600 
    205 H205       -2.1317  -23.1041  -49.1116 H         1 UNK         0.3000 
    206 H206       -2.4522  -23.7248  -51.9017 H         1 UNK         0.0600 
    207 H207       -0.8485  -22.0279  -51.0423 H         1 UNK         0.0600 
    208 H208       -2.1740  -21.0643  -50.3985 H         1 UNK         0.0600 
    209 H209       -1.9875  -21.2646  -52.1309 H         1 UNK         0.0600 
    210 H210       -4.7624  -23.0062  -49.5195 H         1 UNK         0.3000 
    211 H211       -6.8845  -22.4113  -49.3947 H         1 UNK         0.0600 
    212 H212       -7.1470  -22.9916  -52.3921 H         1 UNK         0.0600 
    213 H213       -8.4447  -22.9364  -51.2124 H         1 UNK         0.0600 
    214 H214       -7.2437  -24.2172  -51.1273 H         1 UNK         0.0600 
    215 H215       -5.1836  -20.3941  -49.3864 H         1 UNK         0.3000 
    216 H216       -4.7555  -18.2359  -49.6732 H         1 UNK         0.0600 
    217 H217       -6.6299  -16.6510  -49.8869 H         1 UNK         0.0600 
    218 H218       -7.0869  -17.9635  -48.8135 H         1 UNK         0.0600 
    219 H219       -7.6974  -17.9217  -50.4670 H         1 UNK         0.0600 
    220 H220       -4.0957  -19.9051  -51.7513 H         1 UNK         0.3000 
    221 H221       -2.9542  -19.8440  -53.6382 H         1 UNK         0.0600 
    222 H222       -3.9696  -17.0637  -54.3729 H         1 UNK         0.0600 
    223 H223       -2.5854  -17.3325  -53.3174 H         1 UNK         0.0600 
    224 H224       -2.5501  -17.8984  -54.9772 H         1 UNK         0.0600 
    225 H225       -6.3232  -19.7525  -53.4162 H         1 UNK         0.3000 
    226 H226       -7.0612  -19.7226  -56.1615 H         1 UNK         0.0600 
    227 H227       -8.6082  -19.2692  -54.2145 H         1 UNK         0.0600 
    228 H228       -9.2498  -20.4432  -55.3542 H         1 UNK         0.0600 
    229 H229       -8.5784  -20.9915  -53.8281 H         1 UNK         0.0600 
    230 H230       -5.6520  -22.2837  -54.2466 H         1 UNK         0.3000 
    231 H231       -6.2486  -24.3082  -56.3756 H         1 UNK         0.0600 
    232 H232       -6.0179  -25.9930  -54.5984 H         1 UNK         0.0600 
    233 H233       -7.2483  -24.8349  -54.1281 H         1 UNK         0.0600 
    234 H234       -5.6401  -24.7554  -53.4073 H         1 UNK         0.0600 
    235 H235       -3.9777  -22.1380  -56.0053 H         1 UNK         0.3000 
    236 H236       -1.7556  -23.9377  -56.6518 H         1 UNK         0.0600 
    237 H237       -1.6367  -22.1040  -54.2054 H         1 UNK         0.0600 
    238 H238       -1.6697  -23.8624  -54.1690 H         1 UNK         0.0600 
    239 H239       -0.2869  -23.0445  -54.8564 H         1 UNK         0.0600 
    240 H240       -0.3922  -21.1547  -55.6929 H         1 UNK         0.3000 
    241 H241        0.4508  -20.5303  -58.2641 H         1 UNK         0.0600 
    242 H242       -1.0509  -17.5714  -59.5284 H         1 UNK         0.3800 
    243 H243        0.3697  -18.5740  -59.5960 H         1 UNK         0.3800 
    244 H244        1.7179  -18.6692  -57.1715 H         1 UNK         0.0800 
    245 H245        1.9307  -20.2090  -56.4130 H         1 UNK         0.0800 
    246 H246        2.1522  -20.3690  -54.0332 H         1 UNK         0.0800 
    247 H247        0.4737  -20.8513  -53.9524 H         1 UNK         0.0800 
@<TRIPOS>BOND
     1    1    2 1    
     2    1  127 1    
     3    1  128 1    
     4    1  129 1    
     5    2    3 2    
     6    2    4 am   BACKBONE|DICT|INTERRES
     7    4    5 1    
     8    4  130 1    
     9    5    6 1    
    10    5   65 1    
    11    5  131 1    
    12    6    7 1    
    13    6  132 1    
    14    6  133 1    
    15    7    8 1    
    16    8    9 1    
    17    8  134 1    
    18    8  135 1    
    19    9   10 ar   
    20    9   14 ar   
    21   10   11 ar   
    22   10  136 1    
    23   11   12 ar   
    24   11  126 1    
    25   12   13 ar   
    26   12  137 1    
    27   13   14 ar   
    28   13   15 1    
    29   14  138 1    
    30   15   16 1    
    31   15  139 1    
    32   15  140 1    
    33   16   17 1    
    34   17   18 1    
    35   17  141 1    
    36   17  142 1    
    37   18   19 1    
    38   18   67 1    
    39   18  143 1    
    40   19   20 am   BACKBONE|DICT|INTERRES
    41   19  144 1    
    42   20   21 2    
    43   20   22 1    
    44   22   23 1    
    45   22   24 1    
    46   22  145 1    
    47   23  146 1    
    48   23  147 1    
    49   23  148 1    
    50   24   25 am   BACKBONE|DICT|INTERRES
    51   24  149 1    
    52   25   26 2    
    53   25   27 1    
    54   27   28 1    
    55   27   29 1    
    56   27  150 1    
    57   28  151 1    
    58   28  152 1    
    59   28  153 1    
    60   29   30 am   BACKBONE|DICT|INTERRES
    61   29  154 1    
    62   30   31 2    
    63   30   32 1    
    64   32   33 1    
    65   32   34 1    
    66   32  155 1    
    67   33  156 1    
    68   33  157 1    
    69   33  158 1    
    70   34   35 am   BACKBONE|DICT|INTERRES
    71   34  159 1    
    72   35   36 2    
    73   35   37 1    
    74   37   38 1    
    75   37   39 1    
    76   37  160 1    
    77   38  161 1    
    78   38  162 1    
    79   38  163 1    
    80   39   40 am   BACKBONE|DICT|INTERRES
    81   39  164 1    
    82   40   41 2    
    83   40   42 1    
    84   42   43 1    
    85   42   44 1    
    86   42  165 1    
    87   43  166 1    
    88   43  167 1    
    89   43  168 1    
    90   44   45 am   BACKBONE|DICT|INTERRES
    91   44  169 1    
    92   45   46 2    
    93   45   47 1    
    94   47   48 1    
    95   47   49 1    
    96   47  170 1    
    97   48  171 1    
    98   48  172 1    
    99   48  173 1    
   100   49   50 am   BACKBONE|DICT|INTERRES
   101   49  174 1    
   102   50   51 2    
   103   50   52 1    
   104   52   53 1    
   105   52   54 1    
   106   52  175 1    
   107   53  176 1    
   108   53  177 1    
   109   53  178 1    
   110   54   55 am   BACKBONE|DICT|INTERRES
   111   54  179 1    
   112   55   56 2    
   113   55   57 1    
   114   57   58 1    
   115   57   59 1    
   116   57  180 1    
   117   58  181 1    
   118   58  182 1    
   119   58  183 1    
   120   59   60 am   BACKBONE|DICT|INTERRES
   121   59  184 1    
   122   60   61 2    
   123   60   62 1    
   124   62   63 1    
   125   62   64 1    
   126   62  185 1    
   127   63  186 1    
   128   63  187 1    
   129   63  188 1    
   130   64   65 am   BACKBONE|DICT|INTERRES
   131   64  189 1    
   132   65   66 2    
   133   67   68 2    
   134   67   69 am   BACKBONE|DICT|INTERRES
   135   69   70 1    
   136   69  190 1    
   137   70   71 1    
   138   70   72 1    
   139   70  191 1    
   140   71  192 1    
   141   71  193 1    
   142   71  194 1    
   143   72   73 2    
   144   72   74 am   BACKBONE|DICT|INTERRES
   145   74   75 1    
   146   74  195 1    
   147   75   76 1    
   148   75   77 1    
   149   75  196 1    
   150   76  197 1    
   151   76  198 1    
   152   76  199 1    
   153   77   78 2    
   154   77   79 am   BACKBONE|DICT|INTERRES
   155   79   80 1    
   156   79  200 1    
   157   80   81 1    
   158   80   82 1    
   159   80  201 1    
   160   81  202 1    
   161   81  203 1    
   162   81  204 1    
   163   82   83 2    
   164   82   84 am   BACKBONE|DICT|INTERRES
   165   84   85 1    
   166   84  205 1    
   167   85   86 1    
   168   85   87 1    
   169   85  206 1    
   170   86  207 1    
   171   86  208 1    
   172   86  209 1    
   173   87   88 2    
   174   87   89 am   BACKBONE|DICT|INTERRES
   175   89   90 1    
   176   89  210 1    
   177   90   91 1    
   178   90   92 1    
   179   90  211 1    
   180   91  212 1    
   181   91  213 1    
   182   91  214 1    
   183   92   93 2    
   184   92   94 am   BACKBONE|DICT|INTERRES
   185   94   95 1    
   186   94  215 1    
   187   95   96 1    
   188   95   97 1    
   189   95  216 1    
   190   96  217 1    
   191   96  218 1    
   192   96  219 1    
   193   97   98 2    
   194   97   99 am   BACKBONE|DICT|INTERRES
   195   99  100 1    
   196   99  220 1    
   197  100  101 1    
   198  100  102 1    
   199  100  221 1    
   200  101  222 1    
   201  101  223 1    
   202  101  224 1    
   203  102  103 2    
   204  102  104 am   BACKBONE|DICT|INTERRES
   205  104  105 1    
   206  104  225 1    
   207  105  106 1    
   208  105  107 1    
   209  105  226 1    
   210  106  227 1    
   211  106  228 1    
   212  106  229 1    
   213  107  108 2    
   214  107  109 am   BACKBONE|DICT|INTERRES
   215  109  110 1    
   216  109  230 1    
   217  110  111 1    
   218  110  112 1    
   219  110  231 1    
   220  111  232 1    
   221  111  233 1    
   222  111  234 1    
   223  112  113 2    
   224  112  114 am   BACKBONE|DICT|INTERRES
   225  114  115 1    
   226  114  235 1    
   227  115  116 1    
   228  115  117 1    
   229  115  236 1    
   230  116  237 1    
   231  116  238 1    
   232  116  239 1    
   233  117  118 2    
   234  117  119 am   BACKBONE|DICT|INTERRES
   235  119  120 1    
   236  119  240 1    
   237  120  121 1    
   238  120  124 1    
   239  120  241 1    
   240  121  122 am   BACKBONE|DICT|INTERRES
   241  121  123 2    
   242  122  242 1    
   243  122  243 1    
   244  124  125 1    
   245  124  244 1    
   246  124  245 1    
   247  125  126 1    
   248  126  246 1    
   249  126  247 1    
@<TRIPOS>SUBSTRUCTURE
     1 UNK         1 GROUP             0       ****    0 ROOT    
