@<TRIPOS>MOLECULE
3R540
247   249    1
SMALL
USER_CHARGES


@<TRIPOS>ATOM
      1 CA         -0.1755  -11.3713  -46.0813 C.3       0 UNK        -0.1800 
      2 C           1.2025  -11.2620  -46.7180 C.2       0 UNK         0.5000 
      3 O           1.9578  -10.3468  -46.3932 O.2       0 UNK        -0.5000 
      4 N           1.5277  -12.1897  -47.6261 N.am      1 UNK        -0.5000 
      5 CA          2.8185  -12.2781  -48.3227 C.3       1 UNK         0.1400 
      6 C6          2.6920  -13.0664  -49.6495 C.3       23 UNK        -0.0398 
      7 S7          1.9863  -14.7420  -49.4514 S.3       23 UNK        -0.2404 
      8 C8          3.2691  -15.7654  -50.2393 C.3       23 UNK        -0.0205 
      9 C9          2.8138  -17.2093  -50.3931 C.ar      23 UNK        -0.0193 
     10 C10         1.6862  -17.5040  -51.1639 C.ar      23 UNK        -0.1150 
     11 C11         1.2426  -18.8187  -51.3228 C.ar      23 UNK        -0.0193 
     12 C12         1.9514  -19.8501  -50.6910 C.ar      23 UNK        -0.1150 
     13 C13         3.0980  -19.5766  -49.9364 C.ar      23 UNK        -0.0193 
     14 C14         3.5234  -18.2517  -49.7907 C.ar      23 UNK        -0.1150 
     15 C15         3.8923  -20.7276  -49.3252 C.3       23 UNK        -0.0205 
     16 S16         4.3027  -20.5195  -47.5573 S.3       23 UNK        -0.2404 
     17 C17         2.6784  -20.2332  -46.7805 C.3       23 UNK        -0.0398 
     18 CA          1.9569  -21.5306  -46.3301 C.3       11 UNK         0.1400 
     19 N           1.0756  -21.2882  -45.1817 N.am      11 UNK        -0.5000 
     20 C           0.4018  -22.2301  -44.5066 C.2       10 UNK         0.5000 
     21 O           0.5316  -23.4357  -44.7138 O.2       10 UNK        -0.5000 
     22 CA         -0.6169  -21.7492  -43.4552 C.3       10 UNK         0.1400 
     23 CB          0.0642  -21.5125  -42.0993 C.3       10 UNK        -0.1800 
     24 N          -1.3283  -20.5388  -43.8721 N.am      10 UNK        -0.5000 
     25 C          -2.2244  -20.4910  -44.8693 C.2       9 UNK         0.5000 
     26 O          -2.6055  -21.4799  -45.4934 O.2       9 UNK        -0.5000 
     27 CA         -2.7629  -19.1027  -45.2648 C.3       9 UNK         0.1400 
     28 CB         -3.9552  -18.7078  -44.3815 C.3       9 UNK        -0.1800 
     29 N          -1.7406  -18.0558  -45.2110 N.am      9 UNK        -0.5000 
     30 C          -0.6461  -18.0247  -45.9849 C.2       8 UNK         0.5000 
     31 O          -0.4098  -18.8550  -46.8614 O.2       8 UNK        -0.5000 
     32 CA          0.3908  -16.9268  -45.6813 C.3       8 UNK         0.1400 
     33 CB         -0.0205  -15.5823  -46.2985 C.3       8 UNK        -0.1800 
     34 N           0.6166  -16.7626  -44.2441 N.am      8 UNK        -0.5000 
     35 C           1.1457  -17.7039  -43.4493 C.2       7 UNK         0.5000 
     36 O           1.5501  -18.7899  -43.8582 O.2       7 UNK        -0.5000 
     37 CA          1.1794  -17.4097  -41.9400 C.3       7 UNK         0.1400 
     38 CB          2.4204  -16.5891  -41.5570 C.3       7 UNK        -0.1800 
     39 N          -0.0333  -16.7253  -41.4932 N.am      7 UNK        -0.5000 
     40 C          -1.2423  -17.3029  -41.4348 C.2       6 UNK         0.5000 
     41 O          -1.4475  -18.4851  -41.7077 O.2       6 UNK        -0.5000 
     42 CA         -2.4248  -16.3948  -41.0503 C.3       6 UNK         0.1400 
     43 CB         -2.5406  -16.2743  -39.5236 C.3       6 UNK        -0.1800 
     44 N          -2.3146  -15.0577  -41.6354 N.am      6 UNK        -0.5000 
     45 C          -2.3851  -14.7965  -42.9488 C.2       5 UNK         0.5000 
     46 O          -2.6086  -15.6527  -43.8036 O.2       5 UNK        -0.5000 
     47 CA         -2.0927  -13.3467  -43.3809 C.3       5 UNK         0.1400 
     48 CB         -3.3728  -12.4998  -43.3535 C.3       5 UNK        -0.1800 
     49 N          -1.0629  -12.7060  -42.5559 N.am      5 UNK        -0.5000 
     50 C           0.2102  -13.1156  -42.4952 C.2       4 UNK         0.5000 
     51 O           0.6593  -14.0452  -43.1736 O.2       4 UNK        -0.5000 
     52 CA          1.1120  -12.4137  -41.4705 C.3       4 UNK         0.1400 
     53 CB          0.7159  -12.8118  -40.0350 C.3       4 UNK        -0.1800 
     54 N           2.4865  -12.8145  -41.7367 N.am      4 UNK        -0.5000 
     55 C           3.6010  -12.2347  -41.2800 C.2       3 UNK         0.5000 
     56 O           3.6073  -11.2521  -40.5375 O.2       3 UNK        -0.5000 
     57 CA          4.9401  -12.8610  -41.7258 C.3       3 UNK         0.1400 
     58 CB          5.4975  -13.7676  -40.6172 C.3       3 UNK        -0.1800 
     59 N           4.8432  -13.6400  -42.9656 N.am      3 UNK        -0.5000 
     60 C           4.6096  -13.1193  -44.1780 C.2       2 UNK         0.5000 
     61 O           4.5031  -11.9072  -44.3760 O.2       2 UNK        -0.5000 
     62 CA          4.4653  -14.1132  -45.3518 C.3       2 UNK         0.1400 
     63 CB          3.9103  -15.4842  -44.9209 C.3       2 UNK        -0.1800 
     64 N           3.5727  -13.5639  -46.3680 N.am      2 UNK        -0.5000 
     65 C           3.9482  -12.8437  -47.4321 C.2       1 UNK         0.5000 
     66 O           5.1230  -12.6206  -47.7302 O.2       1 UNK        -0.5000 
     67 C           1.1742  -22.1636  -47.4995 C.2       11 UNK         0.5000 
     68 O           1.6001  -23.1715  -48.0639 O.2       11 UNK        -0.5000 
     69 N           0.0109  -21.5766  -47.8009 N.am      12 UNK        -0.5000 
     70 CA         -0.8989  -21.9820  -48.8664 C.3       12 UNK         0.1400 
     71 CB         -1.6978  -20.7482  -49.3036 C.3       12 UNK        -0.1800 
     72 C          -1.8433  -23.1385  -48.4815 C.2       12 UNK         0.5000 
     73 O          -2.7997  -23.3904  -49.2172 O.2       12 UNK        -0.5000 
     74 N          -1.5980  -23.8283  -47.3569 N.am      13 UNK        -0.5000 
     75 CA         -2.4233  -24.9339  -46.8540 C.3       13 UNK         0.1400 
     76 CB         -1.9185  -25.3776  -45.4754 C.3       13 UNK        -0.1800 
     77 C          -2.4974  -26.1356  -47.8152 C.2       13 UNK         0.5000 
     78 O          -3.5357  -26.7931  -47.8856 O.2       13 UNK        -0.5000 
     79 N          -1.4254  -26.3545  -48.5904 N.am      14 UNK        -0.5000 
     80 CA         -1.3542  -27.3383  -49.6760 C.3       14 UNK         0.1400 
     81 CB          0.1017  -27.4403  -50.1552 C.3       14 UNK        -0.1800 
     82 C          -2.2904  -27.0161  -50.8616 C.2       14 UNK         0.5000 
     83 O          -2.6408  -27.9196  -51.6206 O.2       14 UNK        -0.5000 
     84 N          -2.6934  -25.7451  -50.9803 N.am      15 UNK        -0.5000 
     85 CA         -3.6594  -25.2242  -51.9439 C.3       15 UNK         0.1400 
     86 CB         -3.0383  -23.9952  -52.6286 C.3       15 UNK        -0.1800 
     87 C          -4.9941  -24.8807  -51.2491 C.2       15 UNK         0.5000 
     88 O          -5.7155  -24.0019  -51.7220 O.2       15 UNK        -0.5000 
     89 N          -5.2850  -25.5547  -50.1243 N.am      16 UNK        -0.5000 
     90 CA         -6.4863  -25.4307  -49.2911 C.3       16 UNK         0.1400 
     91 CB         -7.7186  -25.9885  -50.0317 C.3       16 UNK        -0.1800 
     92 C          -6.6990  -24.0074  -48.7330 C.2       16 UNK         0.5000 
     93 O          -7.8240  -23.5058  -48.7255 O.2       16 UNK        -0.5000 
     94 N          -5.5969  -23.3922  -48.2796 N.am      17 UNK        -0.5000 
     95 CA         -5.4867  -22.0229  -47.7666 C.3       17 UNK         0.1400 
     96 CB         -6.3370  -21.8148  -46.4961 C.3       17 UNK        -0.1800 
     97 C          -5.7492  -20.9838  -48.8732 C.2       17 UNK         0.5000 
     98 O          -6.5283  -20.0485  -48.6836 O.2       17 UNK        -0.5000 
     99 N          -5.0705  -21.1887  -50.0110 N.am      18 UNK        -0.5000 
    100 CA        -5.0982  -20.3696  -51.2249 C.3       18 UNK         0.1400 
    101 CB        -4.5265  -18.9581  -50.9661 C.3       18 UNK        -0.1800 
    102 C         -6.4771  -20.3430  -51.9112 C.2       18 UNK         0.5000 
    103 O         -6.9687  -19.2746  -52.2825 O.2       18 UNK        -0.5000 
    104 N         -7.0638  -21.5279  -52.1212 N.am      19 UNK        -0.5000 
    105 CA        -8.3011  -21.7298  -52.8770 C.3       19 UNK         0.1400 
    106 CB        -8.9442  -23.0548  -52.4338 C.3       19 UNK        -0.1800 
    107 C         -8.0260  -21.6836  -54.3954 C.2       19 UNK         0.5000 
    108 O         -8.1758  -22.6921  -55.0873 O.2       19 UNK        -0.5000 
    109 N         -7.5644  -20.5187  -54.8728 N.am      20 UNK        -0.5000 
    110 CA        -7.1684  -20.1514  -56.2415 C.3       20 UNK         0.1400 
    111 CB        -8.3436  -20.3049  -57.2251 C.3       20 UNK        -0.1800 
    112 C         -5.9067  -20.8635  -56.7746 C.2       20 UNK         0.5000 
    113 O         -5.1176  -20.2366  -57.4831 O.2       20 UNK        -0.5000 
    114 N         -5.7136  -22.1375  -56.4105 N.am      21 UNK        -0.5000 
    115 CA        -4.6268  -23.0195  -56.8497 C.3       21 UNK         0.1400 
    116 CB        -4.8749  -24.4246  -56.2782 C.3       21 UNK        -0.1800 
    117 C         -3.2053  -22.5320  -56.4987 C.2       21 UNK         0.5000 
    118 O         -2.2506  -22.9336  -57.1652 O.2       21 UNK        -0.5000 
    119 N         -3.0908  -21.6705  -55.4800 N.am      22 UNK        -0.5000 
    120 CA        -1.8458  -20.9857  -55.0940 C.3       22 UNK         0.1400 
    121 C         -1.4746  -19.7753  -56.0058 C.2       22 UNK         0.5000 
    122 N         -2.3328  -19.3331  -56.9191 N.am      22 UNK        -0.7600 
    123 O         -0.3813  -19.2291  -55.8927 O.2       22 UNK        -0.5000 
    124 C124       -1.8739  -20.5952  -53.5919 C.3       23 UNK        -0.0398 
    125 S125       -0.2577  -20.7614  -52.7624 S.3       23 UNK        -0.2404 
    126 C126       -0.0132  -19.0548  -52.1648 C.3       23 UNK        -0.0205 
    127 H127       -0.6847  -12.2897  -46.3740 H         1 UNK         0.0600 
    128 H128       -0.7957  -10.5265  -46.3806 H         1 UNK         0.0600 
    129 H129       -0.0873  -11.3612  -44.9957 H         1 UNK         0.0600 
    130 H130        0.8598  -12.9065  -47.8737 H         1 UNK         0.3000 
    131 H131        3.1210  -11.2618  -48.5850 H         1 UNK         0.0600 
    132 H132        2.0424  -12.5169  -50.3319 H         1 UNK         0.0800 
    133 H133        3.6585  -13.1212  -50.1538 H         1 UNK         0.0800 
    134 H134        3.5009  -15.3644  -51.2270 H         1 UNK         0.0800 
    135 H135        4.1856  -15.7046  -49.6502 H         1 UNK         0.0800 
    136 H136        1.1440  -16.6968  -51.6367 H         1 UNK         0.1150 
    137 H137        1.6237  -20.8742  -50.7918 H         1 UNK         0.1150 
    138 H138        4.4096  -18.0354  -49.2108 H         1 UNK         0.1150 
    139 H139        3.3645  -21.6727  -49.4543 H         1 UNK         0.0800 
    140 H140        4.8244  -20.8304  -49.8820 H         1 UNK         0.0800 
    141 H141        2.0522  -19.6127  -47.4227 H         1 UNK         0.0800 
    142 H142        2.8897  -19.6131  -45.9096 H         1 UNK         0.0800 
    143 H143        2.7070  -22.2522  -45.9996 H         1 UNK         0.0600 
    144 H144        0.9752  -20.3217  -44.8858 H         1 UNK         0.3000 
    145 H145       -1.3557  -22.5424  -43.3242 H         1 UNK         0.0600 
    146 H146       -0.6614  -21.2230  -41.3389 H         1 UNK         0.0600 
    147 H147        0.5587  -22.4192  -41.7488 H         1 UNK         0.0600 
    148 H148        0.8195  -20.7294  -42.1563 H         1 UNK         0.0600 
    149 H149       -1.1239  -19.6891  -43.3579 H         1 UNK         0.3000 
    150 H150       -3.1147  -19.1693  -46.2965 H         1 UNK         0.0600 
    151 H151       -4.3936  -17.7654  -44.7104 H         1 UNK         0.0600 
    152 H152       -4.7398  -19.4642  -44.4223 H         1 UNK         0.0600 
    153 H153       -3.6630  -18.5940  -43.3376 H         1 UNK         0.0600 
    154 H154       -1.8937  -17.3015  -44.5479 H         1 UNK         0.3000 
    155 H155        1.3366  -17.2296  -46.1359 H         1 UNK         0.0600 
    156 H156       -0.9659  -15.2226  -45.8942 H         1 UNK         0.0600 
    157 H157       -0.1406  -15.6734  -47.3786 H         1 UNK         0.0600 
    158 H158        0.7344  -14.8184  -46.1154 H         1 UNK         0.0600 
    159 H159        0.3571  -15.8699  -43.8368 H         1 UNK         0.3000 
    160 H160        1.2397  -18.3666  -41.4175 H         1 UNK         0.0600 
    161 H161        2.4300  -15.6155  -42.0415 H         1 UNK         0.0600 
    162 H162        3.3341  -17.1081  -41.8493 H         1 UNK         0.0600 
    163 H163        2.4693  -16.4268  -40.4802 H         1 UNK         0.0600 
    164 H164        0.0445  -15.7399  -41.2963 H         1 UNK         0.3000 
    165 H165       -3.3386  -16.8583  -41.4281 H         1 UNK         0.0600 
    166 H166       -3.4185  -15.6937  -39.2397 H         1 UNK         0.0600 
    167 H167       -2.6394  -17.2576  -39.0615 H         1 UNK         0.0600 
    168 H168       -1.6641  -15.7931  -39.0878 H         1 UNK         0.0600 
    169 H169       -2.1364  -14.2939  -41.0008 H         1 UNK         0.3000 
    170 H170       -1.7296  -13.3800  -44.4093 H         1 UNK         0.0600 
    171 H171       -4.1497  -12.9475  -43.9748 H         1 UNK         0.0600 
    172 H172       -3.7734  -12.4051  -42.3435 H         1 UNK         0.0600 
    173 H173       -3.1889  -11.4965  -43.7384 H         1 UNK         0.0600 
    174 H174       -1.3634  -11.9367  -41.9744 H         1 UNK         0.3000 
    175 H175        1.0181  -11.3342  -41.6036 H         1 UNK         0.0600 
    176 H176        0.8137  -13.8863  -39.8746 H         1 UNK         0.0600 
    177 H177        1.3402  -12.3091  -39.2965 H         1 UNK         0.0600 
    178 H178       -0.3165  -12.5377  -39.8162 H         1 UNK         0.0600 
    179 H179        2.5614  -13.5820  -42.3912 H         1 UNK         0.3000 
    180 H180        5.6465  -12.0445  -41.8892 H         1 UNK         0.0600 
    181 H181        4.8378  -14.6136  -40.4196 H         1 UNK         0.0600 
    182 H182        5.6130  -13.2168  -39.6828 H         1 UNK         0.0600 
    183 H183        6.4788  -14.1605  -40.8839 H         1 UNK         0.0600 
    184 H184        4.9407  -14.6407  -42.8762 H         1 UNK         0.3000 
    185 H185        5.4598  -14.2666  -45.7753 H         1 UNK         0.0600 
    186 H186        4.5988  -16.0120  -44.2605 H         1 UNK         0.0600 
    187 H187        2.9594  -15.3763  -44.4013 H         1 UNK         0.0600 
    188 H188        3.7438  -16.1299  -45.7838 H         1 UNK         0.0600 
    189 H189        2.5844  -13.6444  -46.1857 H         1 UNK         0.3000 
    190 H190       -0.2475  -20.7319  -47.2970 H         1 UNK         0.3000 
    191 H191       -0.3079  -22.3187  -49.7205 H         1 UNK         0.0600 
    192 H192       -1.0415  -19.8989  -49.4903 H         1 UNK         0.0600 
    193 H193       -2.2376  -20.9500  -50.2282 H         1 UNK         0.0600 
    194 H194       -2.4218  -20.4460  -48.5458 H         1 UNK         0.0600 
    195 H195       -0.8128  -23.5520  -46.7835 H         1 UNK         0.3000 
    196 H196       -3.4386  -24.5536  -46.7281 H         1 UNK         0.0600 
    197 H197       -2.5148  -26.2036  -45.0858 H         1 UNK         0.0600 
    198 H198       -1.9869  -24.5634  -44.7543 H         1 UNK         0.0600 
    199 H199       -0.8804  -25.7099  -45.5144 H         1 UNK         0.0600 
    200 H200       -0.6181  -25.7607  -48.4639 H         1 UNK         0.3000 
    201 H201       -1.6545  -28.3084  -49.2746 H         1 UNK         0.0600 
    202 H202        0.7646  -27.7399  -49.3433 H         1 UNK         0.0600 
    203 H203        0.4622  -26.4898  -50.5509 H         1 UNK         0.0600 
    204 H204        0.2021  -28.1848  -50.9462 H         1 UNK         0.0600 
    205 H205       -2.3961  -25.0757  -50.2798 H         1 UNK         0.3000 
    206 H206       -3.8809  -25.9691  -52.7103 H         1 UNK         0.0600 
    207 H207       -2.1300  -24.2612  -53.1692 H         1 UNK         0.0600 
    208 H208       -3.7233  -23.5487  -53.3485 H         1 UNK         0.0600 
    209 H209       -2.7791  -23.2283  -51.8992 H         1 UNK         0.0600 
    210 H210       -4.6008  -26.2192  -49.7855 H         1 UNK         0.3000 
    211 H211       -6.3171  -26.0669  -48.4211 H         1 UNK         0.0600 
    212 H212       -7.9642  -25.3955  -50.9110 H         1 UNK         0.0600 
    213 H213       -8.5965  -25.9951  -49.3849 H         1 UNK         0.0600 
    214 H214       -7.5497  -27.0147  -50.3577 H         1 UNK         0.0600 
    215 H215       -4.7110  -23.8593  -48.4279 H         1 UNK         0.3000 
    216 H216       -4.4448  -21.8914  -47.4735 H         1 UNK         0.0600 
    217 H217       -6.1435  -20.8348  -46.0592 H         1 UNK         0.0600 
    218 H218       -6.0979  -22.5600  -45.7375 H         1 UNK         0.0600 
    219 H219       -7.4058  -21.8725  -46.7020 H         1 UNK         0.0600 
    220 H220       -4.4837  -22.0125  -50.0524 H         1 UNK         0.3000 
    221 H221       -4.4344  -20.8671  -51.9290 H         1 UNK         0.0600 
    222 H222       -5.1676  -18.3758  -50.3039 H         1 UNK         0.0600 
    223 H223       -3.5358  -18.9980  -50.5172 H         1 UNK         0.0600 
    224 H224       -4.4318  -18.4001  -51.8984 H         1 UNK         0.0600 
    225 H225       -6.5777  -22.3775  -51.8386 H         1 UNK         0.3000 
    226 H226       -9.0015  -20.9260  -52.6408 H         1 UNK         0.0600 
    227 H227       -9.1172  -23.0697  -51.3574 H         1 UNK         0.0600 
    228 H228       -9.9077  -23.2039  -52.9224 H         1 UNK         0.0600 
    229 H229       -8.3137  -23.9082  -52.6844 H         1 UNK         0.0600 
    230 H230       -7.4280  -19.7869  -54.1817 H         1 UNK         0.3000 
    231 H231       -6.9217  -19.0895  -56.1950 H         1 UNK         0.0600 
    232 H232       -8.6385  -21.3470  -57.3508 H         1 UNK         0.0600 
    233 H233       -8.0766  -19.9229  -58.2112 H         1 UNK         0.0600 
    234 H234       -9.2166  -19.7471  -56.8865 H         1 UNK         0.0600 
    235 H235       -6.4509  -22.5664  -55.8579 H         1 UNK         0.3000 
    236 H236       -4.6795  -23.0814  -57.9384 H         1 UNK         0.0600 
    237 H237       -5.8129  -24.8382  -56.6489 H         1 UNK         0.0600 
    238 H238       -4.0807  -25.1146  -56.5667 H         1 UNK         0.0600 
    239 H239       -4.9245  -24.4147  -55.1894 H         1 UNK         0.0600 
    240 H240       -3.9351  -21.3783  -55.0129 H         1 UNK         0.3000 
    241 H241       -1.0410  -21.7108  -55.2305 H         1 UNK         0.0600 
    242 H242       -2.0689  -18.5541  -57.5011 H         1 UNK         0.3800 
    243 H243       -3.2429  -19.7629  -57.0494 H         1 UNK         0.3800 
    244 H244       -2.2875  -19.5955  -53.4470 H         1 UNK         0.0800 
    245 H245       -2.5395  -21.2609  -53.0500 H         1 UNK         0.0800 
    246 H246       -0.8813  -18.7554  -51.5768 H         1 UNK         0.0800 
    247 H247        0.0127  -18.3983  -53.0363 H         1 UNK         0.0800 
@<TRIPOS>BOND
     1    1    2 1    
     2    1  127 1    
     3    1  128 1    
     4    1  129 1    
     5    2    3 2    
     6    2    4 am   BACKBONE|DICT|INTERRES
     7    4    5 1    
     8    4  130 1    
     9    5    6 1    
    10    5   65 1    
    11    5  131 1    
    12    6    7 1    
    13    6  132 1    
    14    6  133 1    
    15    7    8 1    
    16    8    9 1    
    17    8  134 1    
    18    8  135 1    
    19    9   10 ar   
    20    9   14 ar   
    21   10   11 ar   
    22   10  136 1    
    23   11   12 ar   
    24   11  126 1    
    25   12   13 ar   
    26   12  137 1    
    27   13   14 ar   
    28   13   15 1    
    29   14  138 1    
    30   15   16 1    
    31   15  139 1    
    32   15  140 1    
    33   16   17 1    
    34   17   18 1    
    35   17  141 1    
    36   17  142 1    
    37   18   19 1    
    38   18   67 1    
    39   18  143 1    
    40   19   20 am   BACKBONE|DICT|INTERRES
    41   19  144 1    
    42   20   21 2    
    43   20   22 1    
    44   22   23 1    
    45   22   24 1    
    46   22  145 1    
    47   23  146 1    
    48   23  147 1    
    49   23  148 1    
    50   24   25 am   BACKBONE|DICT|INTERRES
    51   24  149 1    
    52   25   26 2    
    53   25   27 1    
    54   27   28 1    
    55   27   29 1    
    56   27  150 1    
    57   28  151 1    
    58   28  152 1    
    59   28  153 1    
    60   29   30 am   BACKBONE|DICT|INTERRES
    61   29  154 1    
    62   30   31 2    
    63   30   32 1    
    64   32   33 1    
    65   32   34 1    
    66   32  155 1    
    67   33  156 1    
    68   33  157 1    
    69   33  158 1    
    70   34   35 am   BACKBONE|DICT|INTERRES
    71   34  159 1    
    72   35   36 2    
    73   35   37 1    
    74   37   38 1    
    75   37   39 1    
    76   37  160 1    
    77   38  161 1    
    78   38  162 1    
    79   38  163 1    
    80   39   40 am   BACKBONE|DICT|INTERRES
    81   39  164 1    
    82   40   41 2    
    83   40   42 1    
    84   42   43 1    
    85   42   44 1    
    86   42  165 1    
    87   43  166 1    
    88   43  167 1    
    89   43  168 1    
    90   44   45 am   BACKBONE|DICT|INTERRES
    91   44  169 1    
    92   45   46 2    
    93   45   47 1    
    94   47   48 1    
    95   47   49 1    
    96   47  170 1    
    97   48  171 1    
    98   48  172 1    
    99   48  173 1    
   100   49   50 am   BACKBONE|DICT|INTERRES
   101   49  174 1    
   102   50   51 2    
   103   50   52 1    
   104   52   53 1    
   105   52   54 1    
   106   52  175 1    
   107   53  176 1    
   108   53  177 1    
   109   53  178 1    
   110   54   55 am   BACKBONE|DICT|INTERRES
   111   54  179 1    
   112   55   56 2    
   113   55   57 1    
   114   57   58 1    
   115   57   59 1    
   116   57  180 1    
   117   58  181 1    
   118   58  182 1    
   119   58  183 1    
   120   59   60 am   BACKBONE|DICT|INTERRES
   121   59  184 1    
   122   60   61 2    
   123   60   62 1    
   124   62   63 1    
   125   62   64 1    
   126   62  185 1    
   127   63  186 1    
   128   63  187 1    
   129   63  188 1    
   130   64   65 am   BACKBONE|DICT|INTERRES
   131   64  189 1    
   132   65   66 2    
   133   67   68 2    
   134   67   69 am   BACKBONE|DICT|INTERRES
   135   69   70 1    
   136   69  190 1    
   137   70   71 1    
   138   70   72 1    
   139   70  191 1    
   140   71  192 1    
   141   71  193 1    
   142   71  194 1    
   143   72   73 2    
   144   72   74 am   BACKBONE|DICT|INTERRES
   145   74   75 1    
   146   74  195 1    
   147   75   76 1    
   148   75   77 1    
   149   75  196 1    
   150   76  197 1    
   151   76  198 1    
   152   76  199 1    
   153   77   78 2    
   154   77   79 am   BACKBONE|DICT|INTERRES
   155   79   80 1    
   156   79  200 1    
   157   80   81 1    
   158   80   82 1    
   159   80  201 1    
   160   81  202 1    
   161   81  203 1    
   162   81  204 1    
   163   82   83 2    
   164   82   84 am   BACKBONE|DICT|INTERRES
   165   84   85 1    
   166   84  205 1    
   167   85   86 1    
   168   85   87 1    
   169   85  206 1    
   170   86  207 1    
   171   86  208 1    
   172   86  209 1    
   173   87   88 2    
   174   87   89 am   BACKBONE|DICT|INTERRES
   175   89   90 1    
   176   89  210 1    
   177   90   91 1    
   178   90   92 1    
   179   90  211 1    
   180   91  212 1    
   181   91  213 1    
   182   91  214 1    
   183   92   93 2    
   184   92   94 am   BACKBONE|DICT|INTERRES
   185   94   95 1    
   186   94  215 1    
   187   95   96 1    
   188   95   97 1    
   189   95  216 1    
   190   96  217 1    
   191   96  218 1    
   192   96  219 1    
   193   97   98 2    
   194   97   99 am   BACKBONE|DICT|INTERRES
   195   99  100 1    
   196   99  220 1    
   197  100  101 1    
   198  100  102 1    
   199  100  221 1    
   200  101  222 1    
   201  101  223 1    
   202  101  224 1    
   203  102  103 2    
   204  102  104 am   BACKBONE|DICT|INTERRES
   205  104  105 1    
   206  104  225 1    
   207  105  106 1    
   208  105  107 1    
   209  105  226 1    
   210  106  227 1    
   211  106  228 1    
   212  106  229 1    
   213  107  108 2    
   214  107  109 am   BACKBONE|DICT|INTERRES
   215  109  110 1    
   216  109  230 1    
   217  110  111 1    
   218  110  112 1    
   219  110  231 1    
   220  111  232 1    
   221  111  233 1    
   222  111  234 1    
   223  112  113 2    
   224  112  114 am   BACKBONE|DICT|INTERRES
   225  114  115 1    
   226  114  235 1    
   227  115  116 1    
   228  115  117 1    
   229  115  236 1    
   230  116  237 1    
   231  116  238 1    
   232  116  239 1    
   233  117  118 2    
   234  117  119 am   BACKBONE|DICT|INTERRES
   235  119  120 1    
   236  119  240 1    
   237  120  121 1    
   238  120  124 1    
   239  120  241 1    
   240  121  122 am   BACKBONE|DICT|INTERRES
   241  121  123 2    
   242  122  242 1    
   243  122  243 1    
   244  124  125 1    
   245  124  244 1    
   246  124  245 1    
   247  125  126 1    
   248  126  246 1    
   249  126  247 1    
@<TRIPOS>SUBSTRUCTURE
     1 UNK         1 GROUP             0       ****    0 ROOT    
