@<TRIPOS>MOLECULE
3R540
247   249    1
SMALL
USER_CHARGES


@<TRIPOS>ATOM
      1 CA         -3.9549  -14.7782  -51.1527 C.3       0 UNK        -0.1800 
      2 C          -2.7898  -13.9149  -50.6891 C.2       0 UNK         0.5000 
      3 O          -2.4259  -12.9576  -51.3729 O.2       0 UNK        -0.5000 
      4 N          -2.1981  -14.2582  -49.5399 N.am      1 UNK        -0.5000 
      5 CA         -1.0732  -13.5430  -48.9294 C.3       1 UNK         0.1400 
      6 C6         -0.3083  -14.4337  -47.9212 C.3       23 UNK        -0.0398 
      7 S7          0.5774  -15.7733  -48.7852 S.3       23 UNK        -0.2404 
      8 C8         -0.4643  -17.2200  -48.4140 C.3       23 UNK        -0.0205 
      9 C9         -0.0621  -18.4206  -49.2582 C.ar      23 UNK        -0.0193 
     10 C10        -0.9677  -18.9873  -50.1601 C.ar      23 UNK        -0.1150 
     11 C11        -0.5892  -20.0688  -50.9613 C.ar      23 UNK        -0.0193 
     12 C12         0.7027  -20.5903  -50.8492 C.ar      23 UNK        -0.1150 
     13 C13         1.6150  -20.0367  -49.9474 C.ar      23 UNK        -0.0193 
     14 C14         1.2232  -18.9590  -49.1486 C.ar      23 UNK        -0.1150 
     15 C15         3.0349  -20.5776  -49.8643 C.3       23 UNK        -0.0205 
     16 S16         3.1226  -22.1936  -49.0327 S.3       23 UNK        -0.2404 
     17 C17         2.6215  -21.7613  -47.3324 C.3       23 UNK        -0.0398 
     18 CA          1.5930  -22.7467  -46.7337 C.3       11 UNK         0.1400 
     19 N           1.4741  -22.5703  -45.2859 N.am      11 UNK        -0.5000 
     20 C           0.8514  -23.4228  -44.4617 C.2       10 UNK         0.5000 
     21 O           0.3373  -24.4786  -44.8308 O.2       10 UNK        -0.5000 
     22 CA          0.7505  -23.0042  -42.9838 C.3       10 UNK         0.1400 
     23 CB          2.0668  -23.2881  -42.2454 C.3       10 UNK        -0.1800 
     24 N           0.3869  -21.5951  -42.8235 N.am      10 UNK        -0.5000 
     25 C          -0.7788  -21.0679  -43.2264 C.2       9 UNK         0.5000 
     26 O          -1.6882  -21.7269  -43.7287 O.2       9 UNK        -0.5000 
     27 CA         -0.9419  -19.5443  -43.0932 C.3       9 UNK         0.1400 
     28 CB         -1.3042  -19.1539  -41.6525 C.3       9 UNK        -0.1800 
     29 N           0.2502  -18.8108  -43.5127 N.am      9 UNK        -0.5000 
     30 C           0.7701  -18.8233  -44.7468 C.2       8 UNK         0.5000 
     31 O           0.2871  -19.4475  -45.6884 O.2       8 UNK        -0.5000 
     32 CA          2.0859  -18.0555  -44.9471 C.3       8 UNK         0.1400 
     33 CB          1.8383  -16.5416  -45.0429 C.3       8 UNK        -0.1800 
     34 N           3.0441  -18.3367  -43.8786 N.am      8 UNK        -0.5000 
     35 C           3.6167  -19.5305  -43.6677 C.2       7 UNK         0.5000 
     36 O           3.4192  -20.5196  -44.3734 O.2       7 UNK        -0.5000 
     37 CA          4.5363  -19.6451  -42.4390 C.3       7 UNK         0.1400 
     38 CB          5.9460  -19.1309  -42.7667 C.3       7 UNK        -0.1800 
     39 N           4.0127  -18.9237  -41.2780 N.am      7 UNK        -0.5000 
     40 C           2.9114  -19.2820  -40.6034 C.2       6 UNK         0.5000 
     41 O           2.2308  -20.2707  -40.8773 O.2       6 UNK        -0.5000 
     42 CA          2.4692  -18.3441  -39.4639 C.3       6 UNK         0.1400 
     43 CB          3.2879  -18.6106  -38.1917 C.3       6 UNK        -0.1800 
     44 N           2.5453  -16.9185  -39.8068 N.am      6 UNK        -0.5000 
     45 C           1.8849  -16.3524  -40.8251 C.2       5 UNK         0.5000 
     46 O           1.2150  -16.9919  -41.6370 O.2       5 UNK        -0.5000 
     47 CA          2.0112  -14.8269  -40.9906 C.3       5 UNK         0.1400 
     48 CB          3.2551  -14.4770  -41.8215 C.3       5 UNK        -0.1800 
     49 N           0.8285  -14.2788  -41.6568 N.am      5 UNK        -0.5000 
     50 C          -0.3944  -14.2298  -41.1135 C.2       4 UNK         0.5000 
     51 O          -0.6223  -14.4855  -39.9291 O.2       4 UNK        -0.5000 
     52 CA         -1.5398  -13.8062  -42.0542 C.3       4 UNK         0.1400 
     53 CB         -2.9112  -13.7882  -41.3543 C.3       4 UNK        -0.1800 
     54 N          -1.2864  -12.4850  -42.6270 N.am      4 UNK        -0.5000 
     55 C          -0.5859  -12.2481  -43.7405 C.2       3 UNK         0.5000 
     56 O          -0.0569  -13.1298  -44.4235 O.2       3 UNK        -0.5000 
     57 CA         -0.4204  -10.7765  -44.1340 C.3       3 UNK         0.1400 
     58 CB          0.8932  -10.2049  -43.5761 C.3       3 UNK        -0.1800 
     59 N          -0.4158  -10.6810  -45.5883 N.am      3 UNK        -0.5000 
     60 C          -1.0224   -9.7261  -46.3016 C.2       2 UNK         0.5000 
     61 O          -1.6089   -8.7669  -45.7978 O.2       2 UNK        -0.5000 
     62 CA         -0.9692   -9.8497  -47.8373 C.3       2 UNK         0.1400 
     63 CB          0.0851   -8.8913  -48.4136 C.3       2 UNK        -0.1800 
     64 N          -0.6909  -11.2038  -48.3254 N.am      2 UNK        -0.5000 
     65 C          -1.5492  -12.2314  -48.2732 C.2       1 UNK         0.5000 
     66 O          -2.6583  -12.1737  -47.7361 O.2       1 UNK        -0.5000 
     67 C           0.2165  -22.6905  -47.4339 C.2       11 UNK         0.5000 
     68 O          -0.0733  -23.5533  -48.2627 O.2       11 UNK        -0.5000 
     69 N          -0.6351  -21.7312  -47.0432 N.am      12 UNK        -0.5000 
     70 CA         -2.0142  -21.6084  -47.5157 C.3       12 UNK         0.1400 
     71 CB         -2.6397  -20.3116  -46.9827 C.3       12 UNK        -0.1800 
     72 C          -2.8797  -22.8228  -47.1372 C.2       12 UNK         0.5000 
     73 O          -3.6359  -23.3068  -47.9779 O.2       12 UNK        -0.5000 
     74 N          -2.7316  -23.3208  -45.9012 N.am      13 UNK        -0.5000 
     75 CA         -3.3944  -24.5301  -45.4104 C.3       13 UNK         0.1400 
     76 CB         -3.1555  -24.6845  -43.9013 C.3       13 UNK        -0.1800 
     77 C          -2.9561  -25.7944  -46.1711 C.2       13 UNK         0.5000 
     78 O          -3.8109  -26.5949  -46.5513 O.2       13 UNK        -0.5000 
     79 N          -1.6474  -25.9261  -46.4342 N.am      14 UNK        -0.5000 
     80 CA         -1.0661  -26.9946  -47.2538 C.3       14 UNK         0.1400 
     81 CB          0.4664  -26.9290  -47.1736 C.3       14 UNK        -0.1800 
     82 C          -1.5420  -26.9550  -48.7204 C.2       14 UNK         0.5000 
     83 O          -1.7257  -28.0087  -49.3302 O.2       14 UNK        -0.5000 
     84 N          -1.7833  -25.7440  -49.2388 N.am      15 UNK        -0.5000 
     85 CA         -2.3760  -25.4756  -50.5499 C.3       15 UNK         0.1400 
     86 CB         -1.9329  -24.0783  -51.0127 C.3       15 UNK        -0.1800 
     87 C          -3.9165  -25.6067  -50.5752 C.2       15 UNK         0.5000 
     88 O          -4.5199  -25.3073  -51.6054 O.2       15 UNK        -0.5000 
     89 N          -4.5291  -26.0394  -49.4621 N.am      16 UNK        -0.5000 
     90 CA         -5.9644  -26.2656  -49.2620 C.3       16 UNK         0.1400 
     91 CB         -6.4830  -27.3893  -50.1845 C.3       16 UNK        -0.1800 
     92 C          -6.8039  -24.9731  -49.3401 C.2       16 UNK         0.5000 
     93 O          -7.9105  -24.9855  -49.8823 O.2       16 UNK        -0.5000 
     94 N          -6.2602  -23.8855  -48.7748 N.am      17 UNK        -0.5000 
     95 CA         -6.8440  -22.5446  -48.6671 C.3       17 UNK         0.1400 
     96 CB         -8.1288  -22.5606  -47.8119 C.3       17 UNK        -0.1800 
     97 C          -7.0233  -21.8452  -50.0300 C.2       17 UNK         0.5000 
     98 O          -7.9673  -21.0730  -50.2114 O.2       17 UNK        -0.5000 
     99 N          -6.1017  -22.1185  -50.9627 N.am      18 UNK        -0.5000 
    100 CA        -6.0065  -21.4520  -52.2602 C.3       18 UNK         0.1400 
    101 CB        -5.0315  -22.2383  -53.1516 C.3       18 UNK        -0.1800 
    102 C         -5.5582  -19.9822  -52.1315 C.2       18 UNK         0.5000 
    103 O         -4.9495  -19.5977  -51.1294 O.2       18 UNK        -0.5000 
    104 N         -5.8417  -19.2014  -53.1762 N.am      19 UNK        -0.5000 
    105 CA        -5.4124  -17.8200  -53.3527 C.3       19 UNK         0.1400 
    106 CB        -6.4499  -16.8686  -52.7338 C.3       19 UNK        -0.1800 
    107 C         -5.2570  -17.5685  -54.8583 C.2       19 UNK         0.5000 
    108 O         -5.9364  -18.2258  -55.6525 O.2       19 UNK        -0.5000 
    109 N         -4.3660  -16.6356  -55.2236 N.am      20 UNK        -0.5000 
    110 CA        -4.0149  -16.1680  -56.5769 C.3       20 UNK         0.1400 
    111 CB        -5.2334  -15.5539  -57.2921 C.3       20 UNK        -0.1800 
    112 C         -3.3177  -17.2160  -57.4713 C.2       20 UNK         0.5000 
    113 O         -2.3297  -16.8912  -58.1302 O.2       20 UNK        -0.5000 
    114 N         -3.8120  -18.4584  -57.4527 N.am      21 UNK        -0.5000 
    115 CA        -3.2738  -19.6227  -58.1613 C.3       21 UNK         0.1400 
    116 CB        -4.3695  -20.6998  -58.2154 C.3       21 UNK        -0.1800 
    117 C         -1.9831  -20.1924  -57.5325 C.2       21 UNK         0.5000 
    118 O         -1.3918  -21.1135  -58.0970 O.2       21 UNK        -0.5000 
    119 N         -1.5814  -19.6524  -56.3754 N.am      22 UNK        -0.5000 
    120 CA        -0.4107  -20.0515  -55.5779 C.3       22 UNK         0.1400 
    121 C          0.9701  -19.8409  -56.2682 C.2       22 UNK         0.5000 
    122 N          1.0753  -19.0284  -57.3131 N.am      22 UNK        -0.7600 
    123 O          1.9633  -20.4257  -55.8453 O.2       22 UNK        -0.5000 
    124 C124       -0.4129  -19.3607  -54.1894 C.3       23 UNK        -0.0398 
    125 S125       -1.9990  -19.5220  -53.2962 S.3       23 UNK        -0.2404 
    126 C126       -1.5757  -20.6715  -51.9495 C.3       23 UNK        -0.0205 
    127 H127       -4.1243  -15.6257  -50.4878 H         1 UNK         0.0600 
    128 H128       -3.7558  -15.1665  -52.1511 H         1 UNK         0.0600 
    129 H129       -4.8693  -14.1863  -51.1910 H         1 UNK         0.0600 
    130 H130       -2.5715  -15.0258  -49.0030 H         1 UNK         0.3000 
    131 H131       -0.3797  -13.2714  -49.7291 H         1 UNK         0.0600 
    132 H132       -0.9781  -14.8428  -47.1626 H         1 UNK         0.0800 
    133 H133        0.4410  -13.8530  -47.3798 H         1 UNK         0.0800 
    134 H134       -0.3777  -17.4729  -47.3579 H         1 UNK         0.0800 
    135 H135       -1.5106  -16.9681  -48.5887 H         1 UNK         0.0800 
    136 H136       -1.9660  -18.5826  -50.2538 H         1 UNK         0.1150 
    137 H137        1.0046  -21.4243  -51.4671 H         1 UNK         0.1150 
    138 H138        1.9244  -18.5191  -48.4539 H         1 UNK         0.1150 
    139 H139        3.4363  -20.6805  -50.8735 H         1 UNK         0.0800 
    140 H140        3.6890  -19.8725  -49.3488 H         1 UNK         0.0800 
    141 H141        2.2467  -20.7394  -47.2796 H         1 UNK         0.0800 
    142 H142        3.5312  -21.7725  -46.7310 H         1 UNK         0.0800 
    143 H143        1.9836  -23.7551  -46.8876 H         1 UNK         0.0600 
    144 H144        1.9021  -21.7364  -44.8965 H         1 UNK         0.3000 
    145 H145       -0.0342  -23.6065  -42.5216 H         1 UNK         0.0600 
    146 H146        1.9723  -23.0800  -41.1795 H         1 UNK         0.0600 
    147 H147        2.3550  -24.3350  -42.3480 H         1 UNK         0.0600 
    148 H148        2.8858  -22.6812  -42.6325 H         1 UNK         0.0600 
    149 H149        1.0707  -20.9949  -42.3734 H         1 UNK         0.3000 
    150 H150       -1.7632  -19.2400  -43.7449 H         1 UNK         0.0600 
    151 H151       -2.2029  -19.6747  -41.3200 H         1 UNK         0.0600 
    152 H152       -1.4978  -18.0840  -41.5717 H         1 UNK         0.0600 
    153 H153       -0.5024  -19.4003  -40.9555 H         1 UNK         0.0600 
    154 H154        0.7001  -18.2362  -42.8013 H         1 UNK         0.3000 
    155 H155        2.5249  -18.3869  -45.8906 H         1 UNK         0.0600 
    156 H156        1.1530  -16.3096  -45.8570 H         1 UNK         0.0600 
    157 H157        1.3985  -16.1390  -44.1309 H         1 UNK         0.0600 
    158 H158        2.7645  -16.0009  -45.2371 H         1 UNK         0.0600 
    159 H159        3.2151  -17.5964  -43.2156 H         1 UNK         0.3000 
    160 H160        4.6118  -20.7029  -42.1778 H         1 UNK         0.0600 
    161 H161        5.9423  -18.0682  -43.0123 H         1 UNK         0.0600 
    162 H162        6.3663  -19.6640  -43.6206 H         1 UNK         0.0600 
    163 H163        6.6246  -19.2793  -41.9265 H         1 UNK         0.0600 
    164 H164        4.5077  -18.0926  -40.9899 H         1 UNK         0.3000 
    165 H165        1.4235  -18.5713  -39.2458 H         1 UNK         0.0600 
    166 H166        2.9093  -18.0301  -37.3503 H         1 UNK         0.0600 
    167 H167        3.2366  -19.6626  -37.9076 H         1 UNK         0.0600 
    168 H168        4.3402  -18.3581  -38.3278 H         1 UNK         0.0600 
    169 H169        3.0888  -16.3345  -39.1876 H         1 UNK         0.3000 
    170 H170        2.1014  -14.3693  -40.0033 H         1 UNK         0.0600 
    171 H171        3.2100  -14.9107  -42.8210 H         1 UNK         0.0600 
    172 H172        3.3636  -13.3977  -41.9311 H         1 UNK         0.0600 
    173 H173        4.1634  -14.8464  -41.3438 H         1 UNK         0.0600 
    174 H174        0.9154  -14.0651  -42.6422 H         1 UNK         0.3000 
    175 H175       -1.5894  -14.5482  -42.8543 H         1 UNK         0.0600 
    176 H176       -3.7062  -13.5290  -42.0538 H         1 UNK         0.0600 
    177 H177       -2.9379  -13.0688  -40.5349 H         1 UNK         0.0600 
    178 H178       -3.1522  -14.7684  -40.9409 H         1 UNK         0.0600 
    179 H179       -1.6465  -11.7010  -42.1015 H         1 UNK         0.3000 
    180 H180       -1.2610  -10.2137  -43.7221 H         1 UNK         0.0600 
    181 H181        1.0084   -9.1537  -43.8407 H         1 UNK         0.0600 
    182 H182        1.7609  -10.7437  -43.9591 H         1 UNK         0.0600 
    183 H183        0.9185  -10.2714  -42.4877 H         1 UNK         0.0600 
    184 H184        0.0008  -11.4680  -46.0666 H         1 UNK         0.3000 
    185 H185       -1.9467   -9.5475  -48.2195 H         1 UNK         0.0600 
    186 H186       -0.1070   -7.8639  -48.1012 H         1 UNK         0.0600 
    187 H187        1.0906   -9.1523  -48.0810 H         1 UNK         0.0600 
    188 H188        0.0768   -8.9035  -49.5037 H         1 UNK         0.0600 
    189 H189        0.2018  -11.3341  -48.7799 H         1 UNK         0.3000 
    190 H190       -0.3122  -21.0155  -46.3952 H         1 UNK         0.3000 
    191 H191       -1.9844  -21.5462  -48.6052 H         1 UNK         0.0600 
    192 H192       -2.0669  -19.4404  -47.2967 H         1 UNK         0.0600 
    193 H193       -3.6555  -20.1855  -47.3593 H         1 UNK         0.0600 
    194 H194       -2.6869  -20.3040  -45.8937 H         1 UNK         0.0600 
    195 H195       -2.1341  -22.8296  -45.2416 H         1 UNK         0.3000 
    196 H196       -4.4676  -24.4056  -45.5694 H         1 UNK         0.0600 
    197 H197       -3.6557  -25.5736  -43.5155 H         1 UNK         0.0600 
    198 H198       -3.5461  -23.8278  -43.3520 H         1 UNK         0.0600 
    199 H199       -2.0952  -24.7760  -43.6666 H         1 UNK         0.0600 
    200 H200       -0.9992  -25.2459  -46.0469 H         1 UNK         0.3000 
    201 H201       -1.3868  -27.9483  -46.8298 H         1 UNK         0.0600 
    202 H202        0.8116  -27.0231  -46.1438 H         1 UNK         0.0600 
    203 H203        0.8514  -25.9896  -47.5703 H         1 UNK         0.0600 
    204 H204        0.9223  -27.7381  -47.7454 H         1 UNK         0.0600 
    205 H205       -1.5340  -24.9291  -48.6874 H         1 UNK         0.3000 
    206 H206       -1.9831  -26.2033  -51.2625 H         1 UNK         0.0600 
    207 H207       -2.2639  -23.8805  -52.0325 H         1 UNK         0.0600 
    208 H208       -2.3424  -23.2957  -50.3744 H         1 UNK         0.0600 
    209 H209       -0.8469  -23.9829  -51.0020 H         1 UNK         0.0600 
    210 H210       -3.9542  -26.2236  -48.6486 H         1 UNK         0.3000 
    211 H211       -6.0676  -26.6208  -48.2359 H         1 UNK         0.0600 
    212 H212       -6.4796  -27.0899  -51.2328 H         1 UNK         0.0600 
    213 H213       -7.5069  -27.6632  -49.9278 H         1 UNK         0.0600 
    214 H214       -5.8747  -28.2888  -50.0898 H         1 UNK         0.0600 
    215 H215       -5.3080  -23.9541  -48.4202 H         1 UNK         0.3000 
    216 H216       -6.1086  -21.9461  -48.1277 H         1 UNK         0.0600 
    217 H217       -8.4684  -21.5463  -47.5991 H         1 UNK         0.0600 
    218 H218       -7.9582  -23.0512  -46.8536 H         1 UNK         0.0600 
    219 H219       -8.9461  -23.0781  -48.3145 H         1 UNK         0.0600 
    220 H220       -5.3666  -22.7708  -50.7329 H         1 UNK         0.3000 
    221 H221       -6.9941  -21.4696  -52.7259 H         1 UNK         0.0600 
    222 H222       -4.0366  -22.2912  -52.7105 H         1 UNK         0.0600 
    223 H223       -5.3803  -23.2588  -53.3106 H         1 UNK         0.0600 
    224 H224       -4.9292  -21.7752  -54.1338 H         1 UNK         0.0600 
    225 H225       -6.3007  -19.5896  -53.9912 H         1 UNK         0.3000 
    226 H226       -4.4436  -17.6700  -52.8716 H         1 UNK         0.0600 
    227 H227       -6.5255  -17.0165  -51.6564 H         1 UNK         0.0600 
    228 H228       -6.1782  -15.8260  -52.9015 H         1 UNK         0.0600 
    229 H229       -7.4406  -17.0219  -53.1635 H         1 UNK         0.0600 
    230 H230       -3.8459  -16.1814  -54.4861 H         1 UNK         0.3000 
    231 H231       -3.2919  -15.3645  -56.4271 H         1 UNK         0.0600 
    232 H232       -6.0030  -16.2970  -57.5025 H         1 UNK         0.0600 
    233 H233       -4.9414  -15.1116  -58.2454 H         1 UNK         0.0600 
    234 H234       -5.6852  -14.7638  -56.6924 H         1 UNK         0.0600 
    235 H235       -4.6391  -18.6129  -56.8803 H         1 UNK         0.3000 
    236 H236       -3.0329  -19.3239  -59.1834 H         1 UNK         0.0600 
    237 H237       -5.2664  -20.3253  -58.7091 H         1 UNK         0.0600 
    238 H238       -4.0351  -21.5752  -58.7737 H         1 UNK         0.0600 
    239 H239       -4.6517  -21.0343  -57.2162 H         1 UNK         0.0600 
    240 H240       -2.1461  -18.9155  -55.9822 H         1 UNK         0.3000 
    241 H241       -0.5031  -21.1261  -55.4101 H         1 UNK         0.0600 
    242 H242        0.2660  -18.5439  -57.6692 H         1 UNK         0.3800 
    243 H243        1.9719  -18.9006  -57.7555 H         1 UNK         0.3800 
    244 H244        0.3956  -19.7541  -53.5722 H         1 UNK         0.0800 
    245 H245       -0.2103  -18.2940  -54.2998 H         1 UNK         0.0800 
    246 H246       -1.1857  -21.5945  -52.3799 H         1 UNK         0.0800 
    247 H247       -2.4868  -20.9382  -51.4131 H         1 UNK         0.0800 
@<TRIPOS>BOND
     1    1    2 1    
     2    1  127 1    
     3    1  128 1    
     4    1  129 1    
     5    2    3 2    
     6    2    4 am   BACKBONE|DICT|INTERRES
     7    4    5 1    
     8    4  130 1    
     9    5    6 1    
    10    5   65 1    
    11    5  131 1    
    12    6    7 1    
    13    6  132 1    
    14    6  133 1    
    15    7    8 1    
    16    8    9 1    
    17    8  134 1    
    18    8  135 1    
    19    9   10 ar   
    20    9   14 ar   
    21   10   11 ar   
    22   10  136 1    
    23   11   12 ar   
    24   11  126 1    
    25   12   13 ar   
    26   12  137 1    
    27   13   14 ar   
    28   13   15 1    
    29   14  138 1    
    30   15   16 1    
    31   15  139 1    
    32   15  140 1    
    33   16   17 1    
    34   17   18 1    
    35   17  141 1    
    36   17  142 1    
    37   18   19 1    
    38   18   67 1    
    39   18  143 1    
    40   19   20 am   BACKBONE|DICT|INTERRES
    41   19  144 1    
    42   20   21 2    
    43   20   22 1    
    44   22   23 1    
    45   22   24 1    
    46   22  145 1    
    47   23  146 1    
    48   23  147 1    
    49   23  148 1    
    50   24   25 am   BACKBONE|DICT|INTERRES
    51   24  149 1    
    52   25   26 2    
    53   25   27 1    
    54   27   28 1    
    55   27   29 1    
    56   27  150 1    
    57   28  151 1    
    58   28  152 1    
    59   28  153 1    
    60   29   30 am   BACKBONE|DICT|INTERRES
    61   29  154 1    
    62   30   31 2    
    63   30   32 1    
    64   32   33 1    
    65   32   34 1    
    66   32  155 1    
    67   33  156 1    
    68   33  157 1    
    69   33  158 1    
    70   34   35 am   BACKBONE|DICT|INTERRES
    71   34  159 1    
    72   35   36 2    
    73   35   37 1    
    74   37   38 1    
    75   37   39 1    
    76   37  160 1    
    77   38  161 1    
    78   38  162 1    
    79   38  163 1    
    80   39   40 am   BACKBONE|DICT|INTERRES
    81   39  164 1    
    82   40   41 2    
    83   40   42 1    
    84   42   43 1    
    85   42   44 1    
    86   42  165 1    
    87   43  166 1    
    88   43  167 1    
    89   43  168 1    
    90   44   45 am   BACKBONE|DICT|INTERRES
    91   44  169 1    
    92   45   46 2    
    93   45   47 1    
    94   47   48 1    
    95   47   49 1    
    96   47  170 1    
    97   48  171 1    
    98   48  172 1    
    99   48  173 1    
   100   49   50 am   BACKBONE|DICT|INTERRES
   101   49  174 1    
   102   50   51 2    
   103   50   52 1    
   104   52   53 1    
   105   52   54 1    
   106   52  175 1    
   107   53  176 1    
   108   53  177 1    
   109   53  178 1    
   110   54   55 am   BACKBONE|DICT|INTERRES
   111   54  179 1    
   112   55   56 2    
   113   55   57 1    
   114   57   58 1    
   115   57   59 1    
   116   57  180 1    
   117   58  181 1    
   118   58  182 1    
   119   58  183 1    
   120   59   60 am   BACKBONE|DICT|INTERRES
   121   59  184 1    
   122   60   61 2    
   123   60   62 1    
   124   62   63 1    
   125   62   64 1    
   126   62  185 1    
   127   63  186 1    
   128   63  187 1    
   129   63  188 1    
   130   64   65 am   BACKBONE|DICT|INTERRES
   131   64  189 1    
   132   65   66 2    
   133   67   68 2    
   134   67   69 am   BACKBONE|DICT|INTERRES
   135   69   70 1    
   136   69  190 1    
   137   70   71 1    
   138   70   72 1    
   139   70  191 1    
   140   71  192 1    
   141   71  193 1    
   142   71  194 1    
   143   72   73 2    
   144   72   74 am   BACKBONE|DICT|INTERRES
   145   74   75 1    
   146   74  195 1    
   147   75   76 1    
   148   75   77 1    
   149   75  196 1    
   150   76  197 1    
   151   76  198 1    
   152   76  199 1    
   153   77   78 2    
   154   77   79 am   BACKBONE|DICT|INTERRES
   155   79   80 1    
   156   79  200 1    
   157   80   81 1    
   158   80   82 1    
   159   80  201 1    
   160   81  202 1    
   161   81  203 1    
   162   81  204 1    
   163   82   83 2    
   164   82   84 am   BACKBONE|DICT|INTERRES
   165   84   85 1    
   166   84  205 1    
   167   85   86 1    
   168   85   87 1    
   169   85  206 1    
   170   86  207 1    
   171   86  208 1    
   172   86  209 1    
   173   87   88 2    
   174   87   89 am   BACKBONE|DICT|INTERRES
   175   89   90 1    
   176   89  210 1    
   177   90   91 1    
   178   90   92 1    
   179   90  211 1    
   180   91  212 1    
   181   91  213 1    
   182   91  214 1    
   183   92   93 2    
   184   92   94 am   BACKBONE|DICT|INTERRES
   185   94   95 1    
   186   94  215 1    
   187   95   96 1    
   188   95   97 1    
   189   95  216 1    
   190   96  217 1    
   191   96  218 1    
   192   96  219 1    
   193   97   98 2    
   194   97   99 am   BACKBONE|DICT|INTERRES
   195   99  100 1    
   196   99  220 1    
   197  100  101 1    
   198  100  102 1    
   199  100  221 1    
   200  101  222 1    
   201  101  223 1    
   202  101  224 1    
   203  102  103 2    
   204  102  104 am   BACKBONE|DICT|INTERRES
   205  104  105 1    
   206  104  225 1    
   207  105  106 1    
   208  105  107 1    
   209  105  226 1    
   210  106  227 1    
   211  106  228 1    
   212  106  229 1    
   213  107  108 2    
   214  107  109 am   BACKBONE|DICT|INTERRES
   215  109  110 1    
   216  109  230 1    
   217  110  111 1    
   218  110  112 1    
   219  110  231 1    
   220  111  232 1    
   221  111  233 1    
   222  111  234 1    
   223  112  113 2    
   224  112  114 am   BACKBONE|DICT|INTERRES
   225  114  115 1    
   226  114  235 1    
   227  115  116 1    
   228  115  117 1    
   229  115  236 1    
   230  116  237 1    
   231  116  238 1    
   232  116  239 1    
   233  117  118 2    
   234  117  119 am   BACKBONE|DICT|INTERRES
   235  119  120 1    
   236  119  240 1    
   237  120  121 1    
   238  120  124 1    
   239  120  241 1    
   240  121  122 am   BACKBONE|DICT|INTERRES
   241  121  123 2    
   242  122  242 1    
   243  122  243 1    
   244  124  125 1    
   245  124  244 1    
   246  124  245 1    
   247  125  126 1    
   248  126  246 1    
   249  126  247 1    
@<TRIPOS>SUBSTRUCTURE
     1 UNK         1 GROUP             0       ****    0 ROOT    
