@<TRIPOS>MOLECULE
3R540
247   249    1
SMALL
USER_CHARGES


@<TRIPOS>ATOM
      1 CA          3.7408   -9.0466  -49.6361 C.3       0 UNK        -0.1800 
      2 C           3.8616  -10.5533  -49.4585 C.2       0 UNK         0.5000 
      3 O           4.9214  -11.0416  -49.0663 O.2       0 UNK        -0.5000 
      4 N           2.7805  -11.2906  -49.7434 N.am      1 UNK        -0.5000 
      5 CA          2.6944  -12.7508  -49.6061 C.3       1 UNK         0.1400 
      6 C6          1.5001  -13.3340  -50.4029 C.3       23 UNK        -0.0398 
      7 S7         -0.1269  -12.6485  -49.9205 S.3       23 UNK        -0.2404 
      8 C8         -1.2436  -13.4885  -51.0937 C.3       23 UNK        -0.0205 
      9 C9         -1.1594  -15.0080  -51.0117 C.ar      23 UNK        -0.0193 
     10 C10        -0.8839  -15.7586  -52.1606 C.ar      23 UNK        -0.1150 
     11 C11        -0.7862  -17.1514  -52.0917 C.ar      23 UNK        -0.0193 
     12 C12        -0.9530  -17.7891  -50.8615 C.ar      23 UNK        -0.1150 
     13 C13        -1.2284  -17.0533  -49.7072 C.ar      23 UNK        -0.0193 
     14 C14        -1.3466  -15.6641  -49.7897 C.ar      23 UNK        -0.1150 
     15 C15        -1.3483  -17.7679  -48.3731 C.3       23 UNK        -0.0205 
     16 S16        -2.9404  -18.6426  -48.2254 S.3       23 UNK        -0.2404 
     17 C17        -2.8259  -19.6148  -46.6749 C.3       23 UNK        -0.0398 
     18 CA         -1.4156  -20.0781  -46.2066 C.3       11 UNK         0.1400 
     19 N          -1.3738  -20.3498  -44.7724 N.am      11 UNK        -0.5000 
     20 C          -2.0110  -21.3196  -44.1054 C.2       10 UNK         0.5000 
     21 O          -2.7820  -22.1283  -44.6240 O.2       10 UNK        -0.5000 
     22 CA         -1.7517  -21.3648  -42.5883 C.3       10 UNK         0.1400 
     23 CB         -0.3782  -21.9852  -42.2885 C.3       10 UNK        -0.1800 
     24 N          -1.8274  -20.0344  -41.9807 N.am      10 UNK        -0.5000 
     25 C          -2.9637  -19.3359  -41.8427 C.2       9 UNK         0.5000 
     26 O          -4.0767  -19.7734  -42.1373 O.2       9 UNK        -0.5000 
     27 CA         -2.8381  -17.9016  -41.2989 C.3       9 UNK         0.1400 
     28 CB         -2.6820  -17.9094  -39.7706 C.3       9 UNK        -0.1800 
     29 N          -1.7338  -17.1575  -41.9063 N.am      9 UNK        -0.5000 
     30 C          -1.6796  -16.7900  -43.1953 C.2       8 UNK         0.5000 
     31 O          -2.5728  -17.0151  -44.0116 O.2       8 UNK        -0.5000 
     32 CA         -0.4049  -16.0601  -43.6575 C.3       8 UNK         0.1400 
     33 CB         -0.4828  -14.5644  -43.3188 C.3       8 UNK        -0.1800 
     34 N           0.8119  -16.6237  -43.0749 N.am      8 UNK        -0.5000 
     35 C           1.2809  -17.8526  -43.3289 C.2       7 UNK         0.5000 
     36 O           0.7608  -18.6336  -44.1225 O.2       7 UNK        -0.5000 
     37 CA          2.5089  -18.3066  -42.5239 C.3       7 UNK         0.1400 
     38 CB          3.8056  -17.7556  -43.1372 C.3       7 UNK        -0.1800 
     39 N           2.4146  -17.9169  -41.1174 N.am      7 UNK        -0.5000 
     40 C           1.5109  -18.4057  -40.2554 C.2       6 UNK         0.5000 
     41 O           0.6765  -19.2629  -40.5479 O.2       6 UNK        -0.5000 
     42 CA          1.5171  -17.7999  -38.8405 C.3       6 UNK         0.1400 
     43 CB          2.5727  -18.4866  -37.9613 C.3       6 UNK        -0.1800 
     44 N           1.7586  -16.3557  -38.8528 N.am      6 UNK        -0.5000 
     45 C           0.9020  -15.4518  -39.3493 C.2       5 UNK         0.5000 
     46 O          -0.1945  -15.7391  -39.8277 O.2       5 UNK        -0.5000 
     47 CA          1.3789  -13.9880  -39.3634 C.3       5 UNK         0.1400 
     48 CB          1.1730  -13.3345  -37.9887 C.3       5 UNK        -0.1800 
     49 N           2.7810  -13.8479  -39.7695 N.am      5 UNK        -0.5000 
     50 C           3.2496  -14.1942  -40.9745 C.2       4 UNK         0.5000 
     51 O           2.5495  -14.6876  -41.8637 O.2       4 UNK        -0.5000 
     52 CA          4.7489  -13.9906  -41.2236 C.3       4 UNK         0.1400 
     53 CB          5.5728  -15.1370  -40.6107 C.3       4 UNK        -0.1800 
     54 N           4.9449  -13.9464  -42.6656 N.am      4 UNK        -0.5000 
     55 C           5.9643  -13.3836  -43.3201 C.2       3 UNK         0.5000 
     56 O           6.9479  -12.8912  -42.7660 O.2       3 UNK        -0.5000 
     57 CA          5.8563  -13.3506  -44.8589 C.3       3 UNK         0.1400 
     58 CB          6.5931  -14.5506  -45.4731 C.3       3 UNK        -0.1800 
     59 N           4.4752  -13.3397  -45.3541 N.am      3 UNK        -0.5000 
     60 C           3.5936  -12.3493  -45.1645 C.2       2 UNK         0.5000 
     61 O           3.8576  -11.3051  -44.5658 O.2       2 UNK        -0.5000 
     62 CA          2.1959  -12.5606  -45.7773 C.3       2 UNK         0.1400 
     63 CB          1.1375  -11.6250  -45.1659 C.3       2 UNK        -0.1800 
     64 N           2.2285  -12.3480  -47.2213 N.am      2 UNK        -0.5000 
     65 C           2.6850  -13.2191  -48.1317 C.2       1 UNK         0.5000 
     66 O           3.0997  -14.3439  -47.8456 O.2       1 UNK        -0.5000 
     67 C          -0.8018  -21.2360  -47.0353 C.2       11 UNK         0.5000 
     68 O          -0.0419  -22.0484  -46.4994 O.2       11 UNK        -0.5000 
     69 N          -1.1046  -21.2840  -48.3392 N.am      12 UNK        -0.5000 
     70 CA         -0.6605  -22.3242  -49.2648 C.3       12 UNK         0.1400 
     71 CB         -0.7248  -21.7889  -50.7060 C.3       12 UNK        -0.1800 
     72 C          -1.5108  -23.5903  -49.0787 C.2       12 UNK         0.5000 
     73 O          -2.4446  -23.8247  -49.8489 O.2       12 UNK        -0.5000 
     74 N          -1.2026  -24.3647  -48.0311 N.am      13 UNK        -0.5000 
     75 CA         -1.9070  -25.5869  -47.6288 C.3       13 UNK         0.1400 
     76 CB         -1.2599  -26.1445  -46.3532 C.3       13 UNK        -0.1800 
     77 C          -1.9620  -26.6653  -48.7288 C.2       13 UNK         0.5000 
     78 O          -2.9747  -27.3537  -48.8543 O.2       13 UNK        -0.5000 
     79 N          -0.9047  -26.7397  -49.5499 N.am      14 UNK        -0.5000 
     80 CA         -0.8107  -27.5991  -50.7344 C.3       14 UNK         0.1400 
     81 CB          0.6336  -27.5646  -51.2569 C.3       14 UNK        -0.1800 
     82 C          -1.7979  -27.2178  -51.8588 C.2       14 UNK         0.5000 
     83 O          -2.1266  -28.0676  -52.6868 O.2       14 UNK        -0.5000 
     84 N          -2.2668  -25.9633  -51.8532 N.am      15 UNK        -0.5000 
     85 CA         -3.2877  -25.4214  -52.7477 C.3       15 UNK         0.1400 
     86 CB         -2.7706  -24.0980  -53.3396 C.3       15 UNK        -0.1800 
     87 C          -4.6262  -25.2311  -52.0052 C.2       15 UNK         0.5000 
     88 O          -5.4276  -24.3894  -52.4128 O.2       15 UNK        -0.5000 
     89 N          -4.8372  -25.9925  -50.9189 N.am      16 UNK        -0.5000 
     90 CA         -6.0200  -25.9965  -50.0517 C.3       16 UNK         0.1400 
     91 CB         -7.2489  -26.5349  -50.8144 C.3       16 UNK        -0.1800 
     92 C          -6.2660  -24.6316  -49.3759 C.2       16 UNK         0.5000 
     93 O          -7.3912  -24.1338  -49.3719 O.2       16 UNK        -0.5000 
     94 N          -5.1853  -24.0407  -48.8453 N.am      17 UNK        -0.5000 
     95 CA         -5.1050  -22.6950  -48.2634 C.3       17 UNK         0.1400 
     96 CB         -5.9917  -22.5604  -47.0082 C.3       17 UNK        -0.1800 
     97 C          -5.3631  -21.6104  -49.3284 C.2       17 UNK         0.5000 
     98 O          -6.1310  -20.6759  -49.0986 O.2       17 UNK        -0.5000 
     99 N          -4.7243  -21.7997  -50.4929 N.am      18 UNK        -0.5000 
    100 CA        -4.8064  -20.9893  -51.7140 C.3       18 UNK         0.1400 
    101 CB        -4.2819  -19.5604  -51.4733 C.3       18 UNK        -0.1800 
    102 C         -6.1828  -20.9919  -52.4147 C.2       18 UNK         0.5000 
    103 O         -6.3736  -20.2190  -53.3553 O.2       18 UNK        -0.5000 
    104 N         -7.1023  -21.8793  -52.0059 N.am      19 UNK        -0.5000 
    105 CA        -8.4174  -22.0619  -52.6275 C.3       19 UNK         0.1400 
    106 CB        -9.2847  -22.9742  -51.7502 C.3       19 UNK        -0.1800 
    107 C         -8.3349  -22.6093  -54.0656 C.2       19 UNK         0.5000 
    108 O         -9.2002  -22.2941  -54.8824 O.2       19 UNK        -0.5000 
    109 N         -7.2687  -23.3623  -54.3706 N.am      20 UNK        -0.5000 
    110 CA        -6.9160  -23.8365  -55.7107 C.3       20 UNK         0.1400 
    111 CB        -6.1834  -25.1841  -55.5854 C.3       20 UNK        -0.1800 
    112 C         -6.0916  -22.7955  -56.5047 C.2       20 UNK         0.5000 
    113 O         -5.2507  -23.1771  -57.3210 O.2       20 UNK        -0.5000 
    114 N         -6.3217  -21.4998  -56.2381 N.am      21 UNK        -0.5000 
    115 CA        -5.7220  -20.3246  -56.8835 C.3       21 UNK         0.1400 
    116 CB        -6.2535  -20.1815  -58.3247 C.3       21 UNK        -0.1800 
    117 C         -4.1808  -20.3031  -56.8069 C.2       21 UNK         0.5000 
    118 O         -3.5173  -19.9258  -57.7745 O.2       21 UNK        -0.5000 
    119 N         -3.6486  -20.7423  -55.6584 N.am      22 UNK        -0.5000 
    120 CA        -2.2128  -20.9315  -55.3763 C.3       22 UNK         0.1400 
    121 C         -1.5417  -22.0890  -56.1825 C.2       22 UNK         0.5000 
    122 N         -2.2825  -22.9508  -56.8713 N.am      22 UNK        -0.7600 
    123 O         -0.3232  -22.2368  -56.1546 O.2       22 UNK        -0.5000 
    124 C124       -1.3912  -19.6098  -55.4422 C.3       23 UNK        -0.0398 
    125 S125       -1.9973  -18.3497  -54.2668 S.3       23 UNK        -0.2404 
    126 C126       -0.4818  -17.9734  -53.3339 C.3       23 UNK        -0.0205 
    127 H127        4.4764   -8.6938  -50.3589 H         1 UNK         0.0600 
    128 H128        3.9234   -8.5415  -48.6876 H         1 UNK         0.0600 
    129 H129        2.7508   -8.7579  -49.9901 H         1 UNK         0.0600 
    130 H130        1.9359  -10.8365  -50.0629 H         1 UNK         0.3000 
    131 H131        3.6021  -13.1679  -50.0479 H         1 UNK         0.0600 
    132 H132        1.4761  -14.4203  -50.2993 H         1 UNK         0.0800 
    133 H133        1.6467  -13.1428  -51.4668 H         1 UNK         0.0800 
    134 H134       -1.0161  -13.1409  -52.1026 H         1 UNK         0.0800 
    135 H135       -2.2693  -13.1815  -50.8861 H         1 UNK         0.0800 
    136 H136       -0.7445  -15.2620  -53.1106 H         1 UNK         0.1150 
    137 H137       -0.8674  -18.8628  -50.7995 H         1 UNK         0.1150 
    138 H138       -1.5562  -15.0884  -48.8991 H         1 UNK         0.1150 
    139 H139       -0.5136  -18.4650  -48.3116 H         1 UNK         0.0800 
    140 H140       -1.2397  -17.0667  -47.5438 H         1 UNK         0.0800 
    141 H141       -3.4999  -20.4683  -46.7521 H         1 UNK         0.0800 
    142 H142       -3.2619  -18.9811  -45.9009 H         1 UNK         0.0800 
    143 H143       -0.7241  -19.2444  -46.2987 H         1 UNK         0.0600 
    144 H144       -0.7133  -19.7673  -44.2646 H         1 UNK         0.3000 
    145 H145       -2.5175  -21.9968  -42.1337 H         1 UNK         0.0600 
    146 H146       -0.2189  -22.0876  -41.2149 H         1 UNK         0.0600 
    147 H147       -0.2942  -22.9798  -42.7283 H         1 UNK         0.0600 
    148 H148        0.4347  -21.3780  -42.6892 H         1 UNK         0.0600 
    149 H149       -0.9546  -19.6242  -41.6626 H         1 UNK         0.3000 
    150 H150       -3.7645  -17.3754  -41.5385 H         1 UNK         0.0600 
    151 H151       -3.5004  -18.4527  -39.2967 H         1 UNK         0.0600 
    152 H152       -2.6900  -16.8961  -39.3689 H         1 UNK         0.0600 
    153 H153       -1.7504  -18.3843  -39.4625 H         1 UNK         0.0600 
    154 H154       -0.9857  -16.8685  -41.2842 H         1 UNK         0.3000 
    155 H155       -0.3348  -16.1613  -44.7426 H         1 UNK         0.0600 
    156 H156       -0.5777  -14.3980  -42.2453 H         1 UNK         0.0600 
    157 H157       -1.3409  -14.0970  -43.8031 H         1 UNK         0.0600 
    158 H158        0.4099  -14.0404  -43.6557 H         1 UNK         0.0600 
    159 H159        1.3339  -16.0214  -42.4441 H         1 UNK         0.3000 
    160 H160        2.5506  -19.3972  -42.5682 H         1 UNK         0.0600 
    161 H161        4.6816  -18.1134  -42.5961 H         1 UNK         0.0600 
    162 H162        3.8290  -16.6665  -43.1325 H         1 UNK         0.0600 
    163 H163        3.9114  -18.0781  -44.1738 H         1 UNK         0.0600 
    164 H164        3.0343  -17.1865  -40.8036 H         1 UNK         0.3000 
    165 H165        0.5353  -17.9780  -38.3968 H         1 UNK         0.0600 
    166 H166        2.5336  -18.1160  -36.9368 H         1 UNK         0.0600 
    167 H167        2.4063  -19.5640  -37.9225 H         1 UNK         0.0600 
    168 H168        3.5828  -18.3236  -38.3394 H         1 UNK         0.0600 
    169 H169        2.6397  -16.0339  -38.4806 H         1 UNK         0.3000 
    170 H170        0.7656  -13.4504  -40.0899 H         1 UNK         0.0600 
    171 H171        0.1324  -13.4140  -37.6711 H         1 UNK         0.0600 
    172 H172        1.7877  -13.8053  -37.2205 H         1 UNK         0.0600 
    173 H173        1.4227  -12.2737  -38.0154 H         1 UNK         0.0600 
    174 H174        3.4131  -13.4537  -39.0875 H         1 UNK         0.3000 
    175 H175        5.0506  -13.0366  -40.7867 H         1 UNK         0.0600 
    176 H176        5.2975  -16.1031  -41.0342 H         1 UNK         0.0600 
    177 H177        6.6395  -14.9917  -40.7816 H         1 UNK         0.0600 
    178 H178        5.4247  -15.1953  -39.5319 H         1 UNK         0.0600 
    179 H179        4.1506  -14.2883  -43.1916 H         1 UNK         0.3000 
    180 H180        6.3429  -12.4357  -45.2032 H         1 UNK         0.0600 
    181 H181        6.1352  -15.4963  -45.1797 H         1 UNK         0.0600 
    182 H182        7.6351  -14.5762  -45.1515 H         1 UNK         0.0600 
    183 H183        6.5912  -14.4995  -46.5622 H         1 UNK         0.0600 
    184 H184        4.1906  -14.1230  -45.9298 H         1 UNK         0.3000 
    185 H185        1.8913  -13.5893  -45.5731 H         1 UNK         0.0600 
    186 H186        1.3434  -10.5778  -45.3910 H         1 UNK         0.0600 
    187 H187        1.1053  -11.7259  -44.0803 H         1 UNK         0.0600 
    188 H188        0.1418  -11.8591  -45.5434 H         1 UNK         0.0600 
    189 H189        1.9344  -11.4393  -47.5476 H         1 UNK         0.3000 
    190 H190       -1.7411  -20.5912  -48.7107 H         1 UNK         0.3000 
    191 H191        0.3796  -22.5816  -49.0537 H         1 UNK         0.0600 
    192 H192       -0.4666  -22.5685  -51.4239 H         1 UNK         0.0600 
    193 H193       -0.0139  -20.9766  -50.8520 H         1 UNK         0.0600 
    194 H194       -1.7186  -21.4227  -50.9628 H         1 UNK         0.0600 
    195 H195       -0.4724  -24.0399  -47.4085 H         1 UNK         0.3000 
    196 H196       -2.9353  -25.3090  -47.3905 H         1 UNK         0.0600 
    197 H197       -1.7768  -27.0426  -46.0122 H         1 UNK         0.0600 
    198 H198       -1.3025  -25.4181  -45.5410 H         1 UNK         0.0600 
    199 H199       -0.2137  -26.4075  -46.5141 H         1 UNK         0.0600 
    200 H200       -0.1197  -26.1308  -49.3707 H         1 UNK         0.3000 
    201 H201       -1.0418  -28.6215  -50.4286 H         1 UNK         0.0600 
    202 H202        0.9270  -26.5593  -51.5620 H         1 UNK         0.0600 
    203 H203        0.7522  -28.2180  -52.1224 H         1 UNK         0.0600 
    204 H204        1.3370  -27.9049  -50.4966 H         1 UNK         0.0600 
    205 H205       -1.9850  -25.3413  -51.1042 H         1 UNK         0.3000 
    206 H206       -3.4777  -26.1104  -53.5726 H         1 UNK         0.0600 
    207 H207       -1.8314  -24.2489  -53.8718 H         1 UNK         0.0600 
    208 H208       -3.4799  -23.6763  -54.0523 H         1 UNK         0.0600 
    209 H209       -2.5977  -23.3525  -52.5643 H         1 UNK         0.0600 
    210 H210       -4.0993  -26.6253  -50.6359 H         1 UNK         0.3000 
    211 H211       -5.8062  -26.6966  -49.2428 H         1 UNK         0.0600 
    212 H212       -7.0601  -27.5358  -51.2022 H         1 UNK         0.0600 
    213 H213       -7.5171  -25.8986  -51.6573 H         1 UNK         0.0600 
    214 H214       -8.1199  -26.6003  -50.1615 H         1 UNK         0.0600 
    215 H215       -4.2919  -24.4902  -48.9988 H         1 UNK         0.3000 
    216 H216       -4.0730  -22.5625  -47.9379 H         1 UNK         0.0600 
    217 H217       -5.8209  -21.6033  -46.5140 H         1 UNK         0.0600 
    218 H218       -5.7672  -23.3425  -46.2830 H         1 UNK         0.0600 
    219 H219       -7.0538  -22.6165  -47.2471 H         1 UNK         0.0600 
    220 H220       -4.1310  -22.6183  -50.5584 H         1 UNK         0.3000 
    221 H221       -4.1270  -21.4621  -52.4230 H         1 UNK         0.0600 
    222 H222       -4.9053  -19.0084  -50.7702 H         1 UNK         0.0600 
    223 H223       -3.2665  -19.5757  -51.0821 H         1 UNK         0.0600 
    224 H224       -4.2566  -18.9859  -52.3993 H         1 UNK         0.0600 
    225 H225       -6.8622  -22.5142  -51.2565 H         1 UNK         0.3000 
    226 H226       -8.8994  -21.0833  -52.6759 H         1 UNK         0.0600 
    227 H227      -10.2912  -23.0678  -52.1596 H         1 UNK         0.0600 
    228 H228       -8.8660  -23.9774  -51.6790 H         1 UNK         0.0600 
    229 H229       -9.3796  -22.5771  -50.7394 H         1 UNK         0.0600 
    230 H230       -6.6116  -23.5926  -53.6276 H         1 UNK         0.3000 
    231 H231       -7.8324  -24.0129  -56.2771 H         1 UNK         0.0600 
    232 H232       -6.7515  -25.8898  -54.9790 H         1 UNK         0.0600 
    233 H233       -5.2009  -25.0651  -55.1303 H         1 UNK         0.0600 
    234 H234       -6.0364  -25.6425  -56.5640 H         1 UNK         0.0600 
    235 H235       -6.9950  -21.2899  -55.5135 H         1 UNK         0.3000 
    236 H236       -6.0639  -19.4572  -56.3169 H         1 UNK         0.0600 
    237 H237       -7.3433  -20.1732  -58.3436 H         1 UNK         0.0600 
    238 H238       -5.9159  -19.2482  -58.7770 H         1 UNK         0.0600 
    239 H239       -5.9132  -20.9975  -58.9632 H         1 UNK         0.0600 
    240 H240       -4.2867  -21.0230  -54.9295 H         1 UNK         0.3000 
    241 H241       -2.1714  -21.2743  -54.3420 H         1 UNK         0.0600 
    242 H242       -3.2900  -22.8572  -56.9375 H         1 UNK         0.3800 
    243 H243       -1.8245  -23.6945  -57.3729 H         1 UNK         0.3800 
    244 H244       -0.3397  -19.8064  -55.2289 H         1 UNK         0.0800 
    245 H245       -1.4102  -19.1867  -56.4468 H         1 UNK         0.0800 
    246 H246        0.0122  -18.9035  -53.0478 H         1 UNK         0.0800 
    247 H247        0.2167  -17.4362  -53.9773 H         1 UNK         0.0800 
@<TRIPOS>BOND
     1    1    2 1    
     2    1  127 1    
     3    1  128 1    
     4    1  129 1    
     5    2    3 2    
     6    2    4 am   BACKBONE|DICT|INTERRES
     7    4    5 1    
     8    4  130 1    
     9    5    6 1    
    10    5   65 1    
    11    5  131 1    
    12    6    7 1    
    13    6  132 1    
    14    6  133 1    
    15    7    8 1    
    16    8    9 1    
    17    8  134 1    
    18    8  135 1    
    19    9   10 ar   
    20    9   14 ar   
    21   10   11 ar   
    22   10  136 1    
    23   11   12 ar   
    24   11  126 1    
    25   12   13 ar   
    26   12  137 1    
    27   13   14 ar   
    28   13   15 1    
    29   14  138 1    
    30   15   16 1    
    31   15  139 1    
    32   15  140 1    
    33   16   17 1    
    34   17   18 1    
    35   17  141 1    
    36   17  142 1    
    37   18   19 1    
    38   18   67 1    
    39   18  143 1    
    40   19   20 am   BACKBONE|DICT|INTERRES
    41   19  144 1    
    42   20   21 2    
    43   20   22 1    
    44   22   23 1    
    45   22   24 1    
    46   22  145 1    
    47   23  146 1    
    48   23  147 1    
    49   23  148 1    
    50   24   25 am   BACKBONE|DICT|INTERRES
    51   24  149 1    
    52   25   26 2    
    53   25   27 1    
    54   27   28 1    
    55   27   29 1    
    56   27  150 1    
    57   28  151 1    
    58   28  152 1    
    59   28  153 1    
    60   29   30 am   BACKBONE|DICT|INTERRES
    61   29  154 1    
    62   30   31 2    
    63   30   32 1    
    64   32   33 1    
    65   32   34 1    
    66   32  155 1    
    67   33  156 1    
    68   33  157 1    
    69   33  158 1    
    70   34   35 am   BACKBONE|DICT|INTERRES
    71   34  159 1    
    72   35   36 2    
    73   35   37 1    
    74   37   38 1    
    75   37   39 1    
    76   37  160 1    
    77   38  161 1    
    78   38  162 1    
    79   38  163 1    
    80   39   40 am   BACKBONE|DICT|INTERRES
    81   39  164 1    
    82   40   41 2    
    83   40   42 1    
    84   42   43 1    
    85   42   44 1    
    86   42  165 1    
    87   43  166 1    
    88   43  167 1    
    89   43  168 1    
    90   44   45 am   BACKBONE|DICT|INTERRES
    91   44  169 1    
    92   45   46 2    
    93   45   47 1    
    94   47   48 1    
    95   47   49 1    
    96   47  170 1    
    97   48  171 1    
    98   48  172 1    
    99   48  173 1    
   100   49   50 am   BACKBONE|DICT|INTERRES
   101   49  174 1    
   102   50   51 2    
   103   50   52 1    
   104   52   53 1    
   105   52   54 1    
   106   52  175 1    
   107   53  176 1    
   108   53  177 1    
   109   53  178 1    
   110   54   55 am   BACKBONE|DICT|INTERRES
   111   54  179 1    
   112   55   56 2    
   113   55   57 1    
   114   57   58 1    
   115   57   59 1    
   116   57  180 1    
   117   58  181 1    
   118   58  182 1    
   119   58  183 1    
   120   59   60 am   BACKBONE|DICT|INTERRES
   121   59  184 1    
   122   60   61 2    
   123   60   62 1    
   124   62   63 1    
   125   62   64 1    
   126   62  185 1    
   127   63  186 1    
   128   63  187 1    
   129   63  188 1    
   130   64   65 am   BACKBONE|DICT|INTERRES
   131   64  189 1    
   132   65   66 2    
   133   67   68 2    
   134   67   69 am   BACKBONE|DICT|INTERRES
   135   69   70 1    
   136   69  190 1    
   137   70   71 1    
   138   70   72 1    
   139   70  191 1    
   140   71  192 1    
   141   71  193 1    
   142   71  194 1    
   143   72   73 2    
   144   72   74 am   BACKBONE|DICT|INTERRES
   145   74   75 1    
   146   74  195 1    
   147   75   76 1    
   148   75   77 1    
   149   75  196 1    
   150   76  197 1    
   151   76  198 1    
   152   76  199 1    
   153   77   78 2    
   154   77   79 am   BACKBONE|DICT|INTERRES
   155   79   80 1    
   156   79  200 1    
   157   80   81 1    
   158   80   82 1    
   159   80  201 1    
   160   81  202 1    
   161   81  203 1    
   162   81  204 1    
   163   82   83 2    
   164   82   84 am   BACKBONE|DICT|INTERRES
   165   84   85 1    
   166   84  205 1    
   167   85   86 1    
   168   85   87 1    
   169   85  206 1    
   170   86  207 1    
   171   86  208 1    
   172   86  209 1    
   173   87   88 2    
   174   87   89 am   BACKBONE|DICT|INTERRES
   175   89   90 1    
   176   89  210 1    
   177   90   91 1    
   178   90   92 1    
   179   90  211 1    
   180   91  212 1    
   181   91  213 1    
   182   91  214 1    
   183   92   93 2    
   184   92   94 am   BACKBONE|DICT|INTERRES
   185   94   95 1    
   186   94  215 1    
   187   95   96 1    
   188   95   97 1    
   189   95  216 1    
   190   96  217 1    
   191   96  218 1    
   192   96  219 1    
   193   97   98 2    
   194   97   99 am   BACKBONE|DICT|INTERRES
   195   99  100 1    
   196   99  220 1    
   197  100  101 1    
   198  100  102 1    
   199  100  221 1    
   200  101  222 1    
   201  101  223 1    
   202  101  224 1    
   203  102  103 2    
   204  102  104 am   BACKBONE|DICT|INTERRES
   205  104  105 1    
   206  104  225 1    
   207  105  106 1    
   208  105  107 1    
   209  105  226 1    
   210  106  227 1    
   211  106  228 1    
   212  106  229 1    
   213  107  108 2    
   214  107  109 am   BACKBONE|DICT|INTERRES
   215  109  110 1    
   216  109  230 1    
   217  110  111 1    
   218  110  112 1    
   219  110  231 1    
   220  111  232 1    
   221  111  233 1    
   222  111  234 1    
   223  112  113 2    
   224  112  114 am   BACKBONE|DICT|INTERRES
   225  114  115 1    
   226  114  235 1    
   227  115  116 1    
   228  115  117 1    
   229  115  236 1    
   230  116  237 1    
   231  116  238 1    
   232  116  239 1    
   233  117  118 2    
   234  117  119 am   BACKBONE|DICT|INTERRES
   235  119  120 1    
   236  119  240 1    
   237  120  121 1    
   238  120  124 1    
   239  120  241 1    
   240  121  122 am   BACKBONE|DICT|INTERRES
   241  121  123 2    
   242  122  242 1    
   243  122  243 1    
   244  124  125 1    
   245  124  244 1    
   246  124  245 1    
   247  125  126 1    
   248  126  246 1    
   249  126  247 1    
@<TRIPOS>SUBSTRUCTURE
     1 UNK         1 GROUP             0       ****    0 ROOT    
