@<TRIPOS>MOLECULE
3R540
247   249    1
SMALL
USER_CHARGES


@<TRIPOS>ATOM
      1 CA         -3.5556  -14.4714  -49.5801 C.3       0 UNK        -0.1800 
      2 C          -2.1825  -14.2659  -48.9569 C.2       0 UNK         0.5000 
      3 O          -2.0202  -13.3866  -48.1113 O.2       0 UNK        -0.5000 
      4 N          -1.1983  -15.0865  -49.3499 N.am      1 UNK        -0.5000 
      5 CA          0.1836  -15.0612  -48.8494 C.3       1 UNK         0.1400 
      6 C6          1.1025  -16.0054  -49.6662 C.3       23 UNK        -0.0398 
      7 S7          2.8732  -15.5906  -49.4895 S.3       23 UNK        -0.2404 
      8 C8          3.6586  -16.7431  -50.6643 C.3       23 UNK        -0.0205 
      9 C9          3.3646  -18.2008  -50.3376 C.ar      23 UNK        -0.0193 
     10 C10         2.6616  -18.9960  -51.2478 C.ar      23 UNK        -0.1150 
     11 C11         2.3363  -20.3242  -50.9388 C.ar      23 UNK        -0.0193 
     12 C12         2.7522  -20.8515  -49.7140 C.ar      23 UNK        -0.1150 
     13 C13         3.4554  -20.0684  -48.7948 C.ar      23 UNK        -0.0193 
     14 C14         3.7738  -18.7479  -49.1183 C.ar      23 UNK        -0.1150 
     15 C15         3.8012  -20.6318  -47.4244 C.3       23 UNK        -0.0205 
     16 S16         2.7558  -19.9437  -46.0915 S.3       23 UNK        -0.2404 
     17 C17         1.0921  -19.8860  -46.8480 C.3       23 UNK        -0.0398 
     18 CA          0.4228  -21.2764  -46.9459 C.3       11 UNK         0.1400 
     19 N           0.1551  -21.8580  -45.6279 N.am      11 UNK        -0.5000 
     20 C          -0.2320  -23.1243  -45.4125 C.2       10 UNK         0.5000 
     21 O          -0.3974  -23.9492  -46.3102 O.2       10 UNK        -0.5000 
     22 CA         -0.5333  -23.5289  -43.9552 C.3       10 UNK         0.1400 
     23 CB          0.7393  -24.0558  -43.2761 C.3       10 UNK        -0.1800 
     24 N          -1.0888  -22.4430  -43.1474 N.am      10 UNK        -0.5000 
     25 C          -2.1928  -21.7376  -43.4326 C.2       9 UNK         0.5000 
     26 O          -2.9340  -21.9841  -44.3853 O.2       9 UNK        -0.5000 
     27 CA         -2.4747  -20.5064  -42.5464 C.3       9 UNK         0.1400 
     28 CB         -3.4953  -20.8581  -41.4547 C.3       9 UNK        -0.1800 
     29 N          -1.2807  -19.9185  -41.9193 N.am      9 UNK        -0.5000 
     30 C          -0.1929  -19.4832  -42.5714 C.2       8 UNK         0.5000 
     31 O          -0.0625  -19.5487  -43.7963 O.2       8 UNK        -0.5000 
     32 CA          0.9589  -18.9404  -41.7144 C.3       8 UNK         0.1400 
     33 CB          1.5964  -20.0564  -40.8661 C.3       8 UNK        -0.1800 
     34 N           1.9644  -18.3717  -42.6043 N.am      8 UNK        -0.5000 
     35 C           2.8228  -17.3965  -42.2968 C.2       7 UNK         0.5000 
     36 O           2.9078  -16.8932  -41.1733 O.2       7 UNK        -0.5000 
     37 CA          3.7385  -16.9261  -43.4425 C.3       7 UNK         0.1400 
     38 CB          2.9219  -16.4415  -44.6508 C.3       7 UNK        -0.1800 
     39 N           4.5901  -15.8229  -43.0074 N.am      7 UNK        -0.5000 
     40 C           5.8910  -15.9156  -42.7064 C.2       6 UNK         0.5000 
     41 O           6.5279  -16.9689  -42.7586 O.2       6 UNK        -0.5000 
     42 CA          6.6244  -14.6172  -42.3074 C.3       6 UNK         0.1400 
     43 CB          7.6250  -14.2093  -43.4013 C.3       6 UNK        -0.1800 
     44 N           5.7172  -13.4929  -42.0713 N.am      6 UNK        -0.5000 
     45 C           5.0829  -13.2483  -40.9175 C.2       5 UNK         0.5000 
     46 O           5.2460  -13.9111  -39.8927 O.2       5 UNK        -0.5000 
     47 CA          4.0897  -12.0677  -40.9105 C.3       5 UNK         0.1400 
     48 CB          4.7642  -10.8024  -40.3584 C.3       5 UNK        -0.1800 
     49 N           3.5079  -11.7644  -42.2243 N.am      5 UNK        -0.5000 
     50 C           2.7021  -12.5878  -42.9075 C.2       4 UNK         0.5000 
     51 O           2.4179  -13.7256  -42.5309 O.2       4 UNK        -0.5000 
     52 CA          2.1695  -12.0709  -44.2564 C.3       4 UNK         0.1400 
     53 CB          3.1226  -12.4677  -45.3943 C.3       4 UNK        -0.1800 
     54 N           0.8302  -12.5881  -44.5437 N.am      4 UNK        -0.5000 
     55 C          -0.2770  -12.2130  -43.8838 C.2       3 UNK         0.5000 
     56 O          -0.2790  -11.3437  -43.0102 O.2       3 UNK        -0.5000 
     57 CA         -1.6132  -12.8886  -44.2571 C.3       3 UNK         0.1400 
     58 CB         -2.4876  -11.9287  -45.0788 C.3       3 UNK        -0.1800 
     59 N          -1.4537  -14.1373  -45.0014 N.am      3 UNK        -0.5000 
     60 C          -1.0687  -15.3023  -44.4603 C.2       2 UNK         0.5000 
     61 O          -0.8729  -15.4590  -43.2552 O.2       2 UNK        -0.5000 
     62 CA         -0.8712  -16.5019  -45.4122 C.3       2 UNK         0.1400 
     63 CB         -2.0658  -17.4609  -45.3049 C.3       2 UNK        -0.1800 
     64 N          -0.6827  -16.1570  -46.8246 N.am      2 UNK        -0.5000 
     65 C           0.2622  -15.3507  -47.3328 C.2       1 UNK         0.5000 
     66 O           1.1147  -14.7871  -46.6489 O.2       1 UNK        -0.5000 
     67 C          -0.8483  -21.1886  -47.8120 C.2       11 UNK         0.5000 
     68 O          -0.7696  -21.3891  -49.0237 O.2       11 UNK        -0.5000 
     69 N          -1.9954  -20.9117  -47.1764 N.am      12 UNK        -0.5000 
     70 CA         -3.2991  -20.9178  -47.8309 C.3       12 UNK         0.1400 
     71 CB         -4.2986  -20.0699  -47.0299 C.3       12 UNK        -0.1800 
     72 C          -3.8090  -22.3533  -48.0124 C.2       12 UNK         0.5000 
     73 O          -4.2676  -22.6946  -49.1028 O.2       12 UNK        -0.5000 
     74 N          -3.7058  -23.1762  -46.9580 N.am      13 UNK        -0.5000 
     75 CA         -4.1522  -24.5737  -46.9335 C.3       13 UNK         0.1400 
     76 CB         -3.9079  -25.1691  -45.5406 C.3       13 UNK        -0.1800 
     77 C          -3.4969  -25.4487  -48.0190 C.2       13 UNK         0.5000 
     78 O          -4.1833  -26.2657  -48.6339 O.2       13 UNK        -0.5000 
     79 N          -2.2052  -25.2065  -48.2852 N.am      14 UNK        -0.5000 
     80 CA         -1.4223  -25.8295  -49.3565 C.3       14 UNK         0.1400 
     81 CB          0.0392  -25.3698  -49.2329 C.3       14 UNK        -0.1800 
     82 C          -1.9464  -25.5456  -50.7805 C.2       14 UNK         0.5000 
     83 O          -1.6285  -26.3047  -51.6967 O.2       14 UNK        -0.5000 
     84 N          -2.7374  -24.4777  -50.9417 N.am      15 UNK        -0.5000 
     85 CA         -3.3536  -24.0535  -52.1957 C.3       15 UNK         0.1400 
     86 CB         -2.8038  -22.6692  -52.5666 C.3       15 UNK        -0.1800 
     87 C          -4.8918  -24.0733  -52.0951 C.2       15 UNK         0.5000 
     88 O          -5.5589  -23.2759  -52.7584 O.2       15 UNK        -0.5000 
     89 N          -5.4296  -24.9878  -51.2725 N.am      16 UNK        -0.5000 
     90 CA         -6.8564  -25.2667  -51.0715 C.3       16 UNK         0.1400 
     91 CB         -7.4824  -25.8377  -52.3623 C.3       16 UNK        -0.1800 
     92 C          -7.6326  -24.0592  -50.5063 C.2       16 UNK         0.5000 
     93 O          -8.6886  -23.7011  -51.0275 O.2       16 UNK        -0.5000 
     94 N          -7.0718  -23.4514  -49.4518 N.am      17 UNK        -0.5000 
     95 CA         -7.5261  -22.2241  -48.7854 C.3       17 UNK         0.1400 
     96 CB         -8.9510  -22.3717  -48.2104 C.3       17 UNK        -0.1800 
     97 C          -7.3435  -20.9862  -49.6875 C.2       17 UNK         0.5000 
     98 O          -8.2290  -20.1334  -49.7665 O.2       17 UNK        -0.5000 
     99 N          -6.1760  -20.9300  -50.3464 N.am      18 UNK        -0.5000 
    100 CA        -5.7184  -19.9026  -51.2873 C.3       18 UNK         0.1400 
    101 CB        -5.4457  -18.5725  -50.5542 C.3       18 UNK        -0.1800 
    102 C         -6.6435  -19.7444  -52.5147 C.2       18 UNK         0.5000 
    103 O         -6.8597  -18.6281  -52.9910 O.2       18 UNK        -0.5000 
    104 N         -7.1926  -20.8691  -52.9896 N.am      19 UNK        -0.5000 
    105 CA        -8.1172  -20.9330  -54.1186 C.3       19 UNK         0.1400 
    106 CB        -9.2304  -21.9419  -53.8006 C.3       19 UNK        -0.1800 
    107 C         -7.3984  -21.3297  -55.4161 C.2       19 UNK         0.5000 
    108 O         -7.7412  -20.8084  -56.4782 O.2       19 UNK        -0.5000 
    109 N         -6.4253  -22.2464  -55.3185 N.am      20 UNK        -0.5000 
    110 CA        -5.6654  -22.7566  -56.4613 C.3       20 UNK         0.1400 
    111 CB        -5.0423  -24.1093  -56.0820 C.3       20 UNK        -0.1800 
    112 C         -4.5748  -21.7768  -56.9302 C.2       20 UNK         0.5000 
    113 O         -4.2713  -21.7260  -58.1226 O.2       20 UNK        -0.5000 
    114 N         -4.0120  -21.0281  -55.9777 N.am      21 UNK        -0.5000 
    115 CA        -2.9053  -20.0845  -56.0951 C.3       21 UNK         0.1400 
    116 CB        -1.6223  -20.8058  -56.5693 C.3       21 UNK        -0.1800 
    117 C         -2.7028  -19.4596  -54.7029 C.2       21 UNK         0.5000 
    118 O         -3.4899  -19.7346  -53.7944 O.2       21 UNK        -0.5000 
    119 N         -1.6353  -18.6687  -54.5419 N.am      22 UNK        -0.5000 
    120 CA        -1.0958  -18.2277  -53.2394 C.3       22 UNK         0.1400 
    121 C         -2.0033  -17.2513  -52.4326 C.2       22 UNK         0.5000 
    122 N         -2.9841  -16.6026  -53.0466 N.am      22 UNK        -0.7600 
    123 O         -1.7930  -17.0477  -51.2407 O.2       22 UNK        -0.5000 
    124 C124       -0.5884  -19.4191  -52.3743 C.3       23 UNK        -0.0398 
    125 S125        0.6691  -20.4119  -53.2551 S.3       23 UNK        -0.2404 
    126 C126        1.5348  -21.2331  -51.8743 C.3       23 UNK        -0.0205 
    127 H127       -3.6244  -15.4245  -50.1039 H         1 UNK         0.0600 
    128 H128       -3.7688  -13.6720  -50.2894 H         1 UNK         0.0600 
    129 H129       -4.3245  -14.4580  -48.8077 H         1 UNK         0.0600 
    130 H130       -1.4060  -15.8036  -50.0462 H         1 UNK         0.3000 
    131 H131        0.5385  -14.0385  -48.9947 H         1 UNK         0.0600 
    132 H132        0.8595  -15.9321  -50.7273 H         1 UNK         0.0800 
    133 H133        0.9370  -17.0486  -49.3903 H         1 UNK         0.0800 
    134 H134        4.7379  -16.5866  -50.6442 H         1 UNK         0.0800 
    135 H135        3.3313  -16.4951  -51.6752 H         1 UNK         0.0800 
    136 H136        2.3566  -18.5647  -52.1895 H         1 UNK         0.1150 
    137 H137        2.4968  -21.8715  -49.4631 H         1 UNK         0.1150 
    138 H138        4.3011  -18.1325  -48.4027 H         1 UNK         0.1150 
    139 H139        3.7019  -21.7183  -47.4220 H         1 UNK         0.0800 
    140 H140        4.8476  -20.4224  -47.1984 H         1 UNK         0.0800 
    141 H141        1.1531  -19.4038  -47.8240 H         1 UNK         0.0800 
    142 H142        0.4772  -19.2121  -46.2528 H         1 UNK         0.0800 
    143 H143        1.1069  -21.9510  -47.4636 H         1 UNK         0.0600 
    144 H144        0.2271  -21.2195  -44.8422 H         1 UNK         0.3000 
    145 H145       -1.2679  -24.3342  -43.9736 H         1 UNK         0.0600 
    146 H146        0.5282  -24.4242  -42.2721 H         1 UNK         0.0600 
    147 H147        1.5033  -23.2810  -43.1969 H         1 UNK         0.0600 
    148 H148        1.1689  -24.8842  -43.8412 H         1 UNK         0.0600 
    149 H149       -0.5470  -22.1596  -42.3451 H         1 UNK         0.3000 
    150 H150       -2.9168  -19.7455  -43.1914 H         1 UNK         0.0600 
    151 H151       -3.0976  -21.5935  -40.7542 H         1 UNK         0.0600 
    152 H152       -4.4045  -21.2764  -41.8892 H         1 UNK         0.0600 
    153 H153       -3.7864  -19.9745  -40.8865 H         1 UNK         0.0600 
    154 H154       -1.3046  -19.8396  -40.9128 H         1 UNK         0.3000 
    155 H155        0.5581  -18.1588  -41.0657 H         1 UNK         0.0600 
    156 H156        0.8757  -20.4913  -40.1730 H         1 UNK         0.0600 
    157 H157        2.4236  -19.6735  -40.2681 H         1 UNK         0.0600 
    158 H158        1.9829  -20.8630  -41.4905 H         1 UNK         0.0600 
    159 H159        1.9027  -18.7127  -43.5562 H         1 UNK         0.3000 
    160 H160        4.3456  -17.7773  -43.7573 H         1 UNK         0.0600 
    161 H161        2.2188  -15.6578  -44.3684 H         1 UNK         0.0600 
    162 H162        2.3457  -17.2492  -45.0977 H         1 UNK         0.0600 
    163 H163        3.5680  -16.0460  -45.4346 H         1 UNK         0.0600 
    164 H164        4.1038  -14.9527  -42.8262 H         1 UNK         0.3000 
    165 H165        7.1860  -14.8254  -41.3943 H         1 UNK         0.0600 
    166 H166        8.1862  -13.3208  -43.1113 H         1 UNK         0.0600 
    167 H167        8.3502  -15.0031  -43.5854 H         1 UNK         0.0600 
    168 H168        7.1236  -13.9973  -44.3465 H         1 UNK         0.0600 
    169 H169        5.5273  -12.8905  -42.8585 H         1 UNK         0.3000 
    170 H170        3.2715  -12.3377  -40.2394 H         1 UNK         0.0600 
    171 H171        5.5770  -10.4657  -41.0032 H         1 UNK         0.0600 
    172 H172        4.0503   -9.9843  -40.2610 H         1 UNK         0.0600 
    173 H173        5.1846  -10.9837  -39.3682 H         1 UNK         0.0600 
    174 H174        3.7100  -10.8498  -42.6025 H         1 UNK         0.3000 
    175 H175        2.1125  -10.9810  -44.2187 H         1 UNK         0.0600 
    176 H176        3.2471  -13.5489  -45.4573 H         1 UNK         0.0600 
    177 H177        2.7535  -12.1189  -46.3590 H         1 UNK         0.0600 
    178 H178        4.1117  -12.0327  -45.2477 H         1 UNK         0.0600 
    179 H179        0.7731  -13.3393  -45.2233 H         1 UNK         0.3000 
    180 H180       -2.1387  -13.1089  -43.3255 H         1 UNK         0.0600 
    181 H181       -3.4469  -12.3820  -45.3293 H         1 UNK         0.0600 
    182 H182       -1.9993  -11.6392  -46.0099 H         1 UNK         0.0600 
    183 H183       -2.6958  -11.0149  -44.5209 H         1 UNK         0.0600 
    184 H184       -1.5862  -14.0821  -46.0041 H         1 UNK         0.3000 
    185 H185        0.0212  -17.0304  -45.0767 H         1 UNK         0.0600 
    186 H186       -2.9765  -17.0173  -45.7088 H         1 UNK         0.0600 
    187 H187       -1.8727  -18.3898  -45.8394 H         1 UNK         0.0600 
    188 H188       -2.2636  -17.7231  -44.2655 H         1 UNK         0.0600 
    189 H189       -1.3639  -16.5321  -47.4681 H         1 UNK         0.3000 
    190 H190       -1.9891  -20.8288  -46.1691 H         1 UNK         0.3000 
    191 H191       -3.2021  -20.4710  -48.8231 H         1 UNK         0.0600 
    192 H192       -3.9825  -19.0283  -46.9880 H         1 UNK         0.0600 
    193 H193       -5.2847  -20.0840  -47.4947 H         1 UNK         0.0600 
    194 H194       -4.4136  -20.4279  -46.0067 H         1 UNK         0.0600 
    195 H195       -3.3409  -22.8030  -46.0859 H         1 UNK         0.3000 
    196 H196       -5.2286  -24.5714  -47.1153 H         1 UNK         0.0600 
    197 H197       -4.3564  -24.5546  -44.7596 H         1 UNK         0.0600 
    198 H198       -2.8437  -25.2623  -45.3289 H         1 UNK         0.0600 
    199 H199       -4.3435  -26.1659  -45.4627 H         1 UNK         0.0600 
    200 H200       -1.7049  -24.5495  -47.6937 H         1 UNK         0.3000 
    201 H201       -1.4575  -26.9104  -49.2075 H         1 UNK         0.0600 
    202 H202        0.4679  -25.6724  -48.2775 H         1 UNK         0.0600 
    203 H203        0.1253  -24.2848  -49.3106 H         1 UNK         0.0600 
    204 H204        0.6586  -25.8069  -50.0171 H         1 UNK         0.0600 
    205 H205       -2.9822  -23.9216  -50.1295 H         1 UNK         0.3000 
    206 H206       -3.0946  -24.7418  -53.0021 H         1 UNK         0.0600 
    207 H207       -1.7163  -22.6820  -52.6407 H         1 UNK         0.0600 
    208 H208       -3.0784  -21.9178  -51.8263 H         1 UNK         0.0600 
    209 H209       -3.1869  -22.3472  -53.5337 H         1 UNK         0.0600 
    210 H210       -4.7961  -25.5612  -50.7290 H         1 UNK         0.3000 
    211 H211       -6.9109  -26.0455  -50.3095 H         1 UNK         0.0600 
    212 H212       -7.4975  -25.1035  -53.1683 H         1 UNK         0.0600 
    213 H213       -8.5120  -26.1535  -52.1902 H         1 UNK         0.0600 
    214 H214       -6.9313  -26.7094  -52.7147 H         1 UNK         0.0600 
    215 H215       -6.1555  -23.7745  -49.1695 H         1 UNK         0.3000 
    216 H216       -6.8581  -22.0788  -47.9359 H         1 UNK         0.0600 
    217 H217       -9.2032  -21.5184  -47.5800 H         1 UNK         0.0600 
    218 H218       -9.0373  -23.2667  -47.5945 H         1 UNK         0.0600 
    219 H219       -9.7068  -22.4276  -48.9939 H         1 UNK         0.0600 
    220 H220       -5.5222  -21.6899  -50.1853 H         1 UNK         0.3000 
    221 H221       -4.7649  -20.2626  -51.6691 H         1 UNK         0.0600 
    222 H222       -6.3612  -18.1330  -50.1581 H         1 UNK         0.0600 
    223 H223       -4.7519  -18.7109  -49.7260 H         1 UNK         0.0600 
    224 H224       -4.9957  -17.8427  -51.2279 H         1 UNK         0.0600 
    225 H225       -6.9145  -21.7525  -52.5767 H         1 UNK         0.3000 
    226 H226       -8.5854  -19.9592  -54.2765 H         1 UNK         0.0600 
    227 H227       -9.7597  -21.6692  -52.8872 H         1 UNK         0.0600 
    228 H228       -9.9653  -21.9801  -54.6055 H         1 UNK         0.0600 
    229 H229       -8.8351  -22.9498  -53.6684 H         1 UNK         0.0600 
    230 H230       -6.1853  -22.6219  -54.4044 H         1 UNK         0.3000 
    231 H231       -6.3513  -22.9214  -57.2950 H         1 UNK         0.0600 
    232 H232       -4.5188  -24.5490  -56.9318 H         1 UNK         0.0600 
    233 H233       -4.3213  -24.0071  -55.2706 H         1 UNK         0.0600 
    234 H234       -5.8050  -24.8209  -55.7646 H         1 UNK         0.0600 
    235 H235       -4.3662  -21.0928  -55.0300 H         1 UNK         0.3000 
    236 H236       -3.1795  -19.2965  -56.7982 H         1 UNK         0.0600 
    237 H237       -1.3227  -21.5859  -55.8680 H         1 UNK         0.0600 
    238 H238       -1.7523  -21.2692  -57.5465 H         1 UNK         0.0600 
    239 H239       -0.7854  -20.1140  -56.6659 H         1 UNK         0.0600 
    240 H240       -1.0516  -18.4707  -55.3413 H         1 UNK         0.3000 
    241 H241       -0.2211  -17.6242  -53.4839 H         1 UNK         0.0600 
    242 H242       -3.5633  -15.9643  -52.5277 H         1 UNK         0.3800 
    243 H243       -3.1702  -16.7699  -54.0221 H         1 UNK         0.3800 
    244 H244       -1.4136  -20.0692  -52.0824 H         1 UNK         0.0800 
    245 H245       -0.1541  -19.0560  -51.4420 H         1 UNK         0.0800 
    246 H246        2.2152  -21.9749  -52.2939 H         1 UNK         0.0800 
    247 H247        0.7944  -21.7873  -51.2945 H         1 UNK         0.0800 
@<TRIPOS>BOND
     1    1    2 1    
     2    1  127 1    
     3    1  128 1    
     4    1  129 1    
     5    2    3 2    
     6    2    4 am   BACKBONE|DICT|INTERRES
     7    4    5 1    
     8    4  130 1    
     9    5    6 1    
    10    5   65 1    
    11    5  131 1    
    12    6    7 1    
    13    6  132 1    
    14    6  133 1    
    15    7    8 1    
    16    8    9 1    
    17    8  134 1    
    18    8  135 1    
    19    9   10 ar   
    20    9   14 ar   
    21   10   11 ar   
    22   10  136 1    
    23   11   12 ar   
    24   11  126 1    
    25   12   13 ar   
    26   12  137 1    
    27   13   14 ar   
    28   13   15 1    
    29   14  138 1    
    30   15   16 1    
    31   15  139 1    
    32   15  140 1    
    33   16   17 1    
    34   17   18 1    
    35   17  141 1    
    36   17  142 1    
    37   18   19 1    
    38   18   67 1    
    39   18  143 1    
    40   19   20 am   BACKBONE|DICT|INTERRES
    41   19  144 1    
    42   20   21 2    
    43   20   22 1    
    44   22   23 1    
    45   22   24 1    
    46   22  145 1    
    47   23  146 1    
    48   23  147 1    
    49   23  148 1    
    50   24   25 am   BACKBONE|DICT|INTERRES
    51   24  149 1    
    52   25   26 2    
    53   25   27 1    
    54   27   28 1    
    55   27   29 1    
    56   27  150 1    
    57   28  151 1    
    58   28  152 1    
    59   28  153 1    
    60   29   30 am   BACKBONE|DICT|INTERRES
    61   29  154 1    
    62   30   31 2    
    63   30   32 1    
    64   32   33 1    
    65   32   34 1    
    66   32  155 1    
    67   33  156 1    
    68   33  157 1    
    69   33  158 1    
    70   34   35 am   BACKBONE|DICT|INTERRES
    71   34  159 1    
    72   35   36 2    
    73   35   37 1    
    74   37   38 1    
    75   37   39 1    
    76   37  160 1    
    77   38  161 1    
    78   38  162 1    
    79   38  163 1    
    80   39   40 am   BACKBONE|DICT|INTERRES
    81   39  164 1    
    82   40   41 2    
    83   40   42 1    
    84   42   43 1    
    85   42   44 1    
    86   42  165 1    
    87   43  166 1    
    88   43  167 1    
    89   43  168 1    
    90   44   45 am   BACKBONE|DICT|INTERRES
    91   44  169 1    
    92   45   46 2    
    93   45   47 1    
    94   47   48 1    
    95   47   49 1    
    96   47  170 1    
    97   48  171 1    
    98   48  172 1    
    99   48  173 1    
   100   49   50 am   BACKBONE|DICT|INTERRES
   101   49  174 1    
   102   50   51 2    
   103   50   52 1    
   104   52   53 1    
   105   52   54 1    
   106   52  175 1    
   107   53  176 1    
   108   53  177 1    
   109   53  178 1    
   110   54   55 am   BACKBONE|DICT|INTERRES
   111   54  179 1    
   112   55   56 2    
   113   55   57 1    
   114   57   58 1    
   115   57   59 1    
   116   57  180 1    
   117   58  181 1    
   118   58  182 1    
   119   58  183 1    
   120   59   60 am   BACKBONE|DICT|INTERRES
   121   59  184 1    
   122   60   61 2    
   123   60   62 1    
   124   62   63 1    
   125   62   64 1    
   126   62  185 1    
   127   63  186 1    
   128   63  187 1    
   129   63  188 1    
   130   64   65 am   BACKBONE|DICT|INTERRES
   131   64  189 1    
   132   65   66 2    
   133   67   68 2    
   134   67   69 am   BACKBONE|DICT|INTERRES
   135   69   70 1    
   136   69  190 1    
   137   70   71 1    
   138   70   72 1    
   139   70  191 1    
   140   71  192 1    
   141   71  193 1    
   142   71  194 1    
   143   72   73 2    
   144   72   74 am   BACKBONE|DICT|INTERRES
   145   74   75 1    
   146   74  195 1    
   147   75   76 1    
   148   75   77 1    
   149   75  196 1    
   150   76  197 1    
   151   76  198 1    
   152   76  199 1    
   153   77   78 2    
   154   77   79 am   BACKBONE|DICT|INTERRES
   155   79   80 1    
   156   79  200 1    
   157   80   81 1    
   158   80   82 1    
   159   80  201 1    
   160   81  202 1    
   161   81  203 1    
   162   81  204 1    
   163   82   83 2    
   164   82   84 am   BACKBONE|DICT|INTERRES
   165   84   85 1    
   166   84  205 1    
   167   85   86 1    
   168   85   87 1    
   169   85  206 1    
   170   86  207 1    
   171   86  208 1    
   172   86  209 1    
   173   87   88 2    
   174   87   89 am   BACKBONE|DICT|INTERRES
   175   89   90 1    
   176   89  210 1    
   177   90   91 1    
   178   90   92 1    
   179   90  211 1    
   180   91  212 1    
   181   91  213 1    
   182   91  214 1    
   183   92   93 2    
   184   92   94 am   BACKBONE|DICT|INTERRES
   185   94   95 1    
   186   94  215 1    
   187   95   96 1    
   188   95   97 1    
   189   95  216 1    
   190   96  217 1    
   191   96  218 1    
   192   96  219 1    
   193   97   98 2    
   194   97   99 am   BACKBONE|DICT|INTERRES
   195   99  100 1    
   196   99  220 1    
   197  100  101 1    
   198  100  102 1    
   199  100  221 1    
   200  101  222 1    
   201  101  223 1    
   202  101  224 1    
   203  102  103 2    
   204  102  104 am   BACKBONE|DICT|INTERRES
   205  104  105 1    
   206  104  225 1    
   207  105  106 1    
   208  105  107 1    
   209  105  226 1    
   210  106  227 1    
   211  106  228 1    
   212  106  229 1    
   213  107  108 2    
   214  107  109 am   BACKBONE|DICT|INTERRES
   215  109  110 1    
   216  109  230 1    
   217  110  111 1    
   218  110  112 1    
   219  110  231 1    
   220  111  232 1    
   221  111  233 1    
   222  111  234 1    
   223  112  113 2    
   224  112  114 am   BACKBONE|DICT|INTERRES
   225  114  115 1    
   226  114  235 1    
   227  115  116 1    
   228  115  117 1    
   229  115  236 1    
   230  116  237 1    
   231  116  238 1    
   232  116  239 1    
   233  117  118 2    
   234  117  119 am   BACKBONE|DICT|INTERRES
   235  119  120 1    
   236  119  240 1    
   237  120  121 1    
   238  120  124 1    
   239  120  241 1    
   240  121  122 am   BACKBONE|DICT|INTERRES
   241  121  123 2    
   242  122  242 1    
   243  122  243 1    
   244  124  125 1    
   245  124  244 1    
   246  124  245 1    
   247  125  126 1    
   248  126  246 1    
   249  126  247 1    
@<TRIPOS>SUBSTRUCTURE
     1 UNK         1 GROUP             0       ****    0 ROOT    
