@<TRIPOS>MOLECULE
3R540
247   249    1
SMALL
USER_CHARGES


@<TRIPOS>ATOM
      1 CA          2.8709  -17.5406  -49.1966 C.3       0 UNK        -0.1800 
      2 C           2.0867  -16.3443  -48.6801 C.2       0 UNK         0.5000 
      3 O           2.0089  -16.1408  -47.4665 O.2       0 UNK        -0.5000 
      4 N           1.5238  -15.5540  -49.6056 N.am      1 UNK        -0.5000 
      5 CA          0.6903  -14.3673  -49.3711 C.3       1 UNK         0.1400 
      6 C6          0.2082  -13.7129  -50.6935 C.3       23 UNK        -0.0398 
      7 S7         -0.6663  -14.8545  -51.8165 S.3       23 UNK        -0.2404 
      8 C8         -2.3162  -14.9432  -51.0365 C.3       23 UNK        -0.0205 
      9 C9         -2.7563  -16.3596  -50.6721 C.ar      23 UNK        -0.0193 
     10 C10        -4.1173  -16.6771  -50.6969 C.ar      23 UNK        -0.1150 
     11 C11        -4.5598  -17.9595  -50.3606 C.ar      23 UNK        -0.0193 
     12 C12        -3.6307  -18.9365  -49.9953 C.ar      23 UNK        -0.1150 
     13 C13        -2.2672  -18.6342  -49.9606 C.ar      23 UNK        -0.0193 
     14 C14        -1.8388  -17.3478  -50.2971 C.ar      23 UNK        -0.1150 
     15 C15        -1.2513  -19.6905  -49.5619 C.3       23 UNK        -0.0205 
     16 S16        -0.3444  -19.2131  -48.0619 S.3       23 UNK        -0.2404 
     17 C17         0.8363  -20.5860  -47.8831 C.3       23 UNK        -0.0398 
     18 CA          0.4253  -21.6503  -46.8373 C.3       11 UNK         0.1400 
     19 N          -0.0023  -21.0867  -45.5510 N.am      11 UNK        -0.5000 
     20 C          -0.1128  -21.8159  -44.4322 C.2       10 UNK         0.5000 
     21 O           0.1447  -23.0179  -44.3730 O.2       10 UNK        -0.5000 
     22 CA         -0.6284  -21.1016  -43.1776 C.3       10 UNK         0.1400 
     23 CB          0.4764  -20.2603  -42.5249 C.3       10 UNK        -0.1800 
     24 N          -1.8074  -20.2780  -43.4410 N.am      10 UNK        -0.5000 
     25 C          -3.0260  -20.7783  -43.6871 C.2       9 UNK         0.5000 
     26 O          -3.2598  -21.9814  -43.7989 O.2       9 UNK        -0.5000 
     27 CA         -4.1768  -19.7687  -43.8385 C.3       9 UNK         0.1400 
     28 CB         -4.7033  -19.3397  -42.4607 C.3       9 UNK        -0.1800 
     29 N          -3.7901  -18.5841  -44.6002 N.am      9 UNK        -0.5000 
     30 C          -3.5471  -18.5941  -45.9179 C.2       8 UNK         0.5000 
     31 O          -3.6467  -19.6000  -46.6188 O.2       8 UNK        -0.5000 
     32 CA         -3.1068  -17.2637  -46.5579 C.3       8 UNK         0.1400 
     33 CB         -4.3334  -16.4695  -47.0318 C.3       8 UNK        -0.1800 
     34 N          -2.2893  -16.4012  -45.7017 N.am      8 UNK        -0.5000 
     35 C          -1.1773  -16.7505  -45.0393 C.2       7 UNK         0.5000 
     36 O          -0.7228  -17.8960  -45.0038 O.2       7 UNK        -0.5000 
     37 CA         -0.4643  -15.6407  -44.2384 C.3       7 UNK         0.1400 
     38 CB         -1.1968  -14.2790  -44.2387 C.3       7 UNK        -0.1800 
     39 N          -0.1909  -16.0633  -42.8644 N.am      7 UNK        -0.5000 
     40 C          -1.0796  -16.5136  -41.9637 C.2       6 UNK         0.5000 
     41 O          -2.2899  -16.6009  -42.1805 O.2       6 UNK        -0.5000 
     42 CA         -0.5106  -16.9681  -40.6075 C.3       6 UNK         0.1400 
     43 CB         -1.3885  -18.0360  -39.9275 C.3       6 UNK        -0.1800 
     44 N           0.8497  -17.4825  -40.7763 N.am      6 UNK        -0.5000 
     45 C           1.9188  -17.0976  -40.0729 C.2       5 UNK         0.5000 
     46 O           1.8727  -16.3051  -39.1313 O.2       5 UNK        -0.5000 
     47 CA          3.2799  -17.6876  -40.4971 C.3       5 UNK         0.1400 
     48 CB          3.5832  -18.9514  -39.6772 C.3       5 UNK        -0.1800 
     49 N           3.4403  -18.0039  -41.9249 N.am      5 UNK        -0.5000 
     50 C           3.2643  -17.1604  -42.9521 C.2       4 UNK         0.5000 
     51 O           2.7387  -16.0492  -42.8454 O.2       4 UNK        -0.5000 
     52 CA          3.7568  -17.6539  -44.3287 C.3       4 UNK         0.1400 
     53 CB          2.7695  -18.6360  -44.9727 C.3       4 UNK        -0.1800 
     54 N           3.9683  -16.5400  -45.2505 N.am      4 UNK        -0.5000 
     55 C           5.0154  -15.7045  -45.2002 C.2       3 UNK         0.5000 
     56 O           5.9620  -15.8409  -44.4236 O.2       3 UNK        -0.5000 
     57 CA          5.0019  -14.5116  -46.1680 C.3       3 UNK         0.1400 
     58 CB          5.5734  -14.9208  -47.5347 C.3       3 UNK        -0.1800 
     59 N           3.6438  -14.0022  -46.3490 N.am      3 UNK        -0.5000 
     60 C           3.1701  -12.8585  -45.8388 C.2       2 UNK         0.5000 
     61 O           3.8482  -12.0865  -45.1587 O.2       2 UNK        -0.5000 
     62 CA          1.6852  -12.5230  -46.1152 C.3       2 UNK         0.1400 
     63 CB          1.4512  -11.0148  -46.3407 C.3       2 UNK        -0.1800 
     64 N           1.0758  -13.3155  -47.1932 N.am      2 UNK        -0.5000 
     65 C           1.4158  -13.3270  -48.4908 C.2       1 UNK         0.5000 
     66 O           2.2844  -12.6077  -48.9871 O.2       1 UNK        -0.5000 
     67 C          -0.5895  -22.6635  -47.4028 C.2       11 UNK         0.5000 
     68 O          -0.1657  -23.6611  -47.9882 O.2       11 UNK        -0.5000 
     69 N          -1.8904  -22.4257  -47.1754 N.am      12 UNK        -0.5000 
     70 CA         -2.9633  -23.3494  -47.5399 C.3       12 UNK         0.1400 
     71 CB         -4.3223  -22.6433  -47.4376 C.3       12 UNK        -0.1800 
     72 C          -2.9431  -24.6290  -46.6855 C.2       12 UNK         0.5000 
     73 O          -3.0676  -25.7211  -47.2391 O.2       12 UNK        -0.5000 
     74 N          -2.7506  -24.4823  -45.3650 N.am      13 UNK        -0.5000 
     75 CA         -2.6412  -25.5930  -44.4138 C.3       13 UNK         0.1400 
     76 CB         -2.6553  -25.0508  -42.9768 C.3       13 UNK        -0.1800 
     77 C          -1.3956  -26.4666  -44.6498 C.2       13 UNK         0.5000 
     78 O          -1.4835  -27.6911  -44.5520 O.2       13 UNK        -0.5000 
     79 N          -0.2686  -25.8256  -44.9876 N.am      14 UNK        -0.5000 
     80 CA          0.9837  -26.4830  -45.3665 C.3       14 UNK         0.1400 
     81 CB          2.1223  -25.4528  -45.2947 C.3       14 UNK        -0.1800 
     82 C           0.9412  -27.1220  -46.7695 C.2       14 UNK         0.5000 
     83 O           1.8065  -27.9420  -47.0787 O.2       14 UNK        -0.5000 
     84 N          -0.0359  -26.7132  -47.5940 N.am      15 UNK        -0.5000 
     85 CA         -0.2062  -27.0357  -49.0147 C.3       15 UNK         0.1400 
     86 CB         -0.5205  -28.5330  -49.2108 C.3       15 UNK        -0.1800 
     87 C           0.9777  -26.5404  -49.8736 C.2       15 UNK         0.5000 
     88 O           1.3632  -27.1941  -50.8446 O.2       15 UNK        -0.5000 
     89 N           1.5380  -25.3875  -49.4859 N.am      16 UNK        -0.5000 
     90 CA          2.6587  -24.7291  -50.1531 C.3       16 UNK         0.1400 
     91 CB          3.3493  -23.7893  -49.1522 C.3       16 UNK        -0.1800 
     92 C           2.2054  -23.9536  -51.4015 C.2       16 UNK         0.5000 
     93 O           2.9565  -23.8709  -52.3738 O.2       16 UNK        -0.5000 
     94 N           0.9823  -23.4165  -51.3527 N.am      17 UNK        -0.5000 
     95 CA          0.3096  -22.6872  -52.4192 C.3       17 UNK         0.1400 
     96 CB          0.9452  -21.2953  -52.6056 C.3       17 UNK        -0.1800 
     97 C          -1.1798  -22.5893  -52.0617 C.2       17 UNK         0.5000 
     98 O          -1.5412  -22.7647  -50.8959 O.2       17 UNK        -0.5000 
     99 N          -2.0138  -22.3108  -53.0652 N.am      18 UNK        -0.5000 
    100 CA        -3.4600  -22.1479  -52.9593 C.3       18 UNK         0.1400 
    101 CB        -4.1395  -23.5081  -52.6990 C.3       18 UNK        -0.1800 
    102 C         -3.9735  -21.5150  -54.2618 C.2       18 UNK         0.5000 
    103 O         -3.2250  -21.4337  -55.2401 O.2       18 UNK        -0.5000 
    104 N         -5.2428  -21.0860  -54.2449 N.am      19 UNK        -0.5000 
    105 CA        -5.9971  -20.4761  -55.3503 C.3       19 UNK         0.1400 
    106 CB        -6.1471  -21.4598  -56.5296 C.3       19 UNK        -0.1800 
    107 C         -5.4741  -19.0928  -55.7984 C.2       19 UNK         0.5000 
    108 O         -5.8457  -18.6150  -56.8721 O.2       19 UNK        -0.5000 
    109 N         -4.6624  -18.4426  -54.9558 N.am      20 UNK        -0.5000 
    110 CA        -4.1104  -17.1043  -55.1567 C.3       20 UNK         0.1400 
    111 CB        -2.7917  -16.9986  -54.3714 C.3       20 UNK        -0.1800 
    112 C         -5.1389  -16.0236  -54.7649 C.2       20 UNK         0.5000 
    113 O         -4.9249  -15.2779  -53.8082 O.2       20 UNK        -0.5000 
    114 N         -6.2549  -15.9897  -55.5092 N.am      21 UNK        -0.5000 
    115 CA        -7.4261  -15.1231  -55.3240 C.3       21 UNK         0.1400 
    116 CB        -7.0644  -13.6446  -55.5793 C.3       21 UNK        -0.1800 
    117 C         -8.1265  -15.3547  -53.9668 C.2       21 UNK         0.5000 
    118 O         -8.5213  -14.3997  -53.2950 O.2       21 UNK        -0.5000 
    119 N         -8.2553  -16.6329  -53.5882 N.am      22 UNK        -0.5000 
    120 CA        -8.8134  -17.0858  -52.3013 C.3       22 UNK         0.1400 
    121 C        -10.3586  -16.9449  -52.1636 C.2       22 UNK         0.5000 
    122 N        -11.1014  -16.6538  -53.2245 N.am      22 UNK        -0.7600 
    123 O        -10.8938  -17.0988  -51.0692 O.2       22 UNK        -0.5000 
    124 C124       -8.3663  -18.5306  -51.9493 C.3       23 UNK        -0.0398 
    125 S125       -6.5611  -18.7703  -52.0548 S.3       23 UNK        -0.2404 
    126 C126       -6.0439  -18.2778  -50.3864 C.3       23 UNK        -0.0205 
    127 H127        3.6322  -17.2232  -49.9091 H         1 UNK         0.0600 
    128 H128        2.2037  -18.2470  -49.6908 H         1 UNK         0.0600 
    129 H129        3.3678  -18.0583  -48.3759 H         1 UNK         0.0600 
    130 H130        1.6538  -15.7852  -50.5800 H         1 UNK         0.3000 
    131 H131       -0.1949  -14.7101  -48.8313 H         1 UNK         0.0600 
    132 H132        1.0576  -13.3099  -51.2482 H         1 UNK         0.0800 
    133 H133       -0.4434  -12.8618  -50.4872 H         1 UNK         0.0800 
    134 H134       -2.3485  -14.3322  -50.1342 H         1 UNK         0.0800 
    135 H135       -3.0335  -14.5031  -51.7315 H         1 UNK         0.0800 
    136 H136       -4.8379  -15.9249  -50.9871 H         1 UNK         0.1150 
    137 H137       -3.9695  -19.9279  -49.7300 H         1 UNK         0.1150 
    138 H138       -0.7833  -17.1241  -50.2548 H         1 UNK         0.1150 
    139 H139       -1.7446  -20.6469  -49.3901 H         1 UNK         0.0800 
    140 H140       -0.5532  -19.8325  -50.3843 H         1 UNK         0.0800 
    141 H141        1.0302  -21.0400  -48.8568 H         1 UNK         0.0800 
    142 H142        1.7855  -20.1445  -47.5798 H         1 UNK         0.0800 
    143 H143        1.3282  -22.2298  -46.6314 H         1 UNK         0.0600 
    144 H144       -0.2530  -20.1039  -45.5401 H         1 UNK         0.3000 
    145 H145       -0.9100  -21.8792  -42.4639 H         1 UNK         0.0600 
    146 H146        0.2298  -20.0490  -41.4864 H         1 UNK         0.0600 
    147 H147        1.4291  -20.7921  -42.5172 H         1 UNK         0.0600 
    148 H148        0.6244  -19.3159  -43.0476 H         1 UNK         0.0600 
    149 H149       -1.6729  -19.2766  -43.4910 H         1 UNK         0.3000 
    150 H150       -4.9893  -20.2682  -44.3708 H         1 UNK         0.0600 
    151 H151       -5.0234  -20.2050  -41.8789 H         1 UNK         0.0600 
    152 H152       -5.5631  -18.6763  -42.5561 H         1 UNK         0.0600 
    153 H153       -3.9408  -18.8185  -41.8808 H         1 UNK         0.0600 
    154 H154       -3.6455  -17.7280  -44.0821 H         1 UNK         0.3000 
    155 H155       -2.5080  -17.5040  -47.4336 H         1 UNK         0.0600 
    156 H156       -4.9251  -16.1031  -46.1923 H         1 UNK         0.0600 
    157 H157       -4.9878  -17.0891  -47.6457 H         1 UNK         0.0600 
    158 H158       -4.0383  -15.6134  -47.6388 H         1 UNK         0.0600 
    159 H159       -2.6007  -15.4450  -45.6216 H         1 UNK         0.3000 
    160 H160        0.5069  -15.5012  -44.7159 H         1 UNK         0.0600 
    161 H161       -2.1919  -14.3487  -43.7975 H         1 UNK         0.0600 
    162 H162       -1.3047  -13.8803  -45.2478 H         1 UNK         0.0600 
    163 H163       -0.6396  -13.5399  -43.6630 H         1 UNK         0.0600 
    164 H164        0.7912  -16.0448  -42.6047 H         1 UNK         0.3000 
    165 H165       -0.5018  -16.0810  -39.9713 H         1 UNK         0.0600 
    166 H166       -1.5553  -18.8981  -40.5731 H         1 UNK         0.0600 
    167 H167       -0.9350  -18.3900  -39.0017 H         1 UNK         0.0600 
    168 H168       -2.3676  -17.6291  -39.6725 H         1 UNK         0.0600 
    169 H169        0.9921  -18.1256  -41.5411 H         1 UNK         0.3000 
    170 H170        4.0362  -16.9386  -40.2540 H         1 UNK         0.0600 
    171 H171        3.5016  -18.7547  -38.6072 H         1 UNK         0.0600 
    172 H172        2.8908  -19.7598  -39.9159 H         1 UNK         0.0600 
    173 H173        4.5961  -19.3099  -39.8617 H         1 UNK         0.0600 
    174 H174        3.8574  -18.9027  -42.1196 H         1 UNK         0.3000 
    175 H175        4.7080  -18.1710  -44.1853 H         1 UNK         0.0600 
    176 H176        2.6234  -19.5186  -44.3514 H         1 UNK         0.0600 
    177 H177        1.7984  -18.1744  -45.1421 H         1 UNK         0.0600 
    178 H178        3.1412  -18.9835  -45.9362 H         1 UNK         0.0600 
    179 H179        3.2226  -16.3604  -45.9138 H         1 UNK         0.3000 
    180 H180        5.6485  -13.7365  -45.7515 H         1 UNK         0.0600 
    181 H181        5.5749  -14.0793  -48.2279 H         1 UNK         0.0600 
    182 H182        6.6037  -15.2655  -47.4381 H         1 UNK         0.0600 
    183 H183        4.9996  -15.7280  -47.9899 H         1 UNK         0.0600 
    184 H184        3.0031  -14.5977  -46.8637 H         1 UNK         0.3000 
    185 H185        1.1544  -12.7983  -45.2040 H         1 UNK         0.0600 
    186 H186        0.3972  -10.8017  -46.5192 H         1 UNK         0.0600 
    187 H187        1.7529  -10.4362  -45.4669 H         1 UNK         0.0600 
    188 H188        2.0194  -10.6381  -47.1914 H         1 UNK         0.0600 
    189 H189        0.3909  -13.9921  -46.8912 H         1 UNK         0.3000 
    190 H190       -2.1624  -21.5707  -46.7081 H         1 UNK         0.3000 
    191 H191       -2.8164  -23.6427  -48.5817 H         1 UNK         0.0600 
    192 H192       -5.1355  -23.3192  -47.7044 H         1 UNK         0.0600 
    193 H193       -4.3729  -21.7920  -48.1163 H         1 UNK         0.0600 
    194 H194       -4.5133  -22.2792  -46.4274 H         1 UNK         0.0600 
    195 H195       -2.6988  -23.5479  -44.9720 H         1 UNK         0.3000 
    196 H196       -3.5190  -26.2296  -44.5429 H         1 UNK         0.0600 
    197 H197       -2.5689  -25.8605  -42.2512 H         1 UNK         0.0600 
    198 H198       -3.5855  -24.5238  -42.7645 H         1 UNK         0.0600 
    199 H199       -1.8305  -24.3598  -42.7994 H         1 UNK         0.0600 
    200 H200       -0.2586  -24.8091  -44.9679 H         1 UNK         0.3000 
    201 H201        1.1915  -27.2769  -44.6464 H         1 UNK         0.0600 
    202 H202        1.9650  -24.6329  -45.9966 H         1 UNK         0.0600 
    203 H203        3.0828  -25.9105  -45.5345 H         1 UNK         0.0600 
    204 H204        2.2063  -25.0263  -44.2950 H         1 UNK         0.0600 
    205 H205       -0.6877  -26.0292  -47.2332 H         1 UNK         0.3000 
    206 H206       -1.0774  -26.4699  -49.3483 H         1 UNK         0.0600 
    207 H207       -1.3604  -28.8426  -48.5887 H         1 UNK         0.0600 
    208 H208       -0.7902  -28.7424  -50.2465 H         1 UNK         0.0600 
    209 H209        0.3329  -29.1643  -48.9622 H         1 UNK         0.0600 
    210 H210        1.0929  -24.8780  -48.7273 H         1 UNK         0.3000 
    211 H211        3.3798  -25.4867  -50.4670 H         1 UNK         0.0600 
    212 H212        2.6730  -23.0117  -48.7966 H         1 UNK         0.0600 
    213 H213        4.2077  -23.2953  -49.6090 H         1 UNK         0.0600 
    214 H214        3.7135  -24.3385  -48.2837 H         1 UNK         0.0600 
    215 H215        0.4062  -23.5550  -50.5294 H         1 UNK         0.3000 
    216 H216        0.3967  -23.2564  -53.3470 H         1 UNK         0.0600 
    217 H217        0.3469  -20.6661  -53.2657 H         1 UNK         0.0600 
    218 H218        1.9366  -21.3740  -53.0516 H         1 UNK         0.0600 
    219 H219        1.0560  -20.7721  -51.6567 H         1 UNK         0.0600 
    220 H220       -1.6591  -22.1443  -53.9999 H         1 UNK         0.3000 
    221 H221       -3.6781  -21.4627  -52.1369 H         1 UNK         0.0600 
    222 H222       -3.9183  -24.2227  -53.4926 H         1 UNK         0.0600 
    223 H223       -3.8137  -23.9458  -51.7555 H         1 UNK         0.0600 
    224 H224       -5.2236  -23.4058  -52.6420 H         1 UNK         0.0600 
    225 H225       -5.7609  -21.1767  -53.3814 H         1 UNK         0.3000 
    226 H226       -6.9975  -20.2931  -54.9558 H         1 UNK         0.0600 
    227 H227       -6.5307  -22.4231  -56.1934 H         1 UNK         0.0600 
    228 H228       -6.8466  -21.0765  -57.2733 H         1 UNK         0.0600 
    229 H229       -5.1980  -21.6343  -57.0368 H         1 UNK         0.0600 
    230 H230       -4.4607  -18.8769  -54.0673 H         1 UNK         0.3000 
    231 H231       -3.8763  -16.9642  -56.2141 H         1 UNK         0.0600 
    232 H232       -2.0530  -17.7069  -54.7467 H         1 UNK         0.0600 
    233 H233       -2.9396  -17.2055  -53.3125 H         1 UNK         0.0600 
    234 H234       -2.3587  -16.0011  -54.4564 H         1 UNK         0.0600 
    235 H235       -6.3285  -16.6796  -56.2496 H         1 UNK         0.3000 
    236 H236       -8.1464  -15.4179  -56.0885 H         1 UNK         0.0600 
    237 H237       -6.3872  -13.2540  -54.8192 H         1 UNK         0.0600 
    238 H238       -6.5872  -13.5176  -56.5509 H         1 UNK         0.0600 
    239 H239       -7.9570  -13.0180  -55.5731 H         1 UNK         0.0600 
    240 H240       -7.8887  -17.3539  -54.1901 H         1 UNK         0.3000 
    241 H241       -8.3969  -16.4297  -51.5347 H         1 UNK         0.0600 
    242 H242      -10.6762  -16.5205  -54.1278 H         1 UNK         0.3800 
    243 H243      -12.1000  -16.5610  -53.1218 H         1 UNK         0.3800 
    244 H244       -8.8355  -19.2443  -52.6284 H         1 UNK         0.0800 
    245 H245       -8.6981  -18.8058  -50.9464 H         1 UNK         0.0800 
    246 H246       -6.6087  -17.4014  -50.0652 H         1 UNK         0.0800 
    247 H247       -6.2787  -19.0753  -49.6796 H         1 UNK         0.0800 
@<TRIPOS>BOND
     1    1    2 1    
     2    1  127 1    
     3    1  128 1    
     4    1  129 1    
     5    2    3 2    
     6    2    4 am   BACKBONE|DICT|INTERRES
     7    4    5 1    
     8    4  130 1    
     9    5    6 1    
    10    5   65 1    
    11    5  131 1    
    12    6    7 1    
    13    6  132 1    
    14    6  133 1    
    15    7    8 1    
    16    8    9 1    
    17    8  134 1    
    18    8  135 1    
    19    9   10 ar   
    20    9   14 ar   
    21   10   11 ar   
    22   10  136 1    
    23   11   12 ar   
    24   11  126 1    
    25   12   13 ar   
    26   12  137 1    
    27   13   14 ar   
    28   13   15 1    
    29   14  138 1    
    30   15   16 1    
    31   15  139 1    
    32   15  140 1    
    33   16   17 1    
    34   17   18 1    
    35   17  141 1    
    36   17  142 1    
    37   18   19 1    
    38   18   67 1    
    39   18  143 1    
    40   19   20 am   BACKBONE|DICT|INTERRES
    41   19  144 1    
    42   20   21 2    
    43   20   22 1    
    44   22   23 1    
    45   22   24 1    
    46   22  145 1    
    47   23  146 1    
    48   23  147 1    
    49   23  148 1    
    50   24   25 am   BACKBONE|DICT|INTERRES
    51   24  149 1    
    52   25   26 2    
    53   25   27 1    
    54   27   28 1    
    55   27   29 1    
    56   27  150 1    
    57   28  151 1    
    58   28  152 1    
    59   28  153 1    
    60   29   30 am   BACKBONE|DICT|INTERRES
    61   29  154 1    
    62   30   31 2    
    63   30   32 1    
    64   32   33 1    
    65   32   34 1    
    66   32  155 1    
    67   33  156 1    
    68   33  157 1    
    69   33  158 1    
    70   34   35 am   BACKBONE|DICT|INTERRES
    71   34  159 1    
    72   35   36 2    
    73   35   37 1    
    74   37   38 1    
    75   37   39 1    
    76   37  160 1    
    77   38  161 1    
    78   38  162 1    
    79   38  163 1    
    80   39   40 am   BACKBONE|DICT|INTERRES
    81   39  164 1    
    82   40   41 2    
    83   40   42 1    
    84   42   43 1    
    85   42   44 1    
    86   42  165 1    
    87   43  166 1    
    88   43  167 1    
    89   43  168 1    
    90   44   45 am   BACKBONE|DICT|INTERRES
    91   44  169 1    
    92   45   46 2    
    93   45   47 1    
    94   47   48 1    
    95   47   49 1    
    96   47  170 1    
    97   48  171 1    
    98   48  172 1    
    99   48  173 1    
   100   49   50 am   BACKBONE|DICT|INTERRES
   101   49  174 1    
   102   50   51 2    
   103   50   52 1    
   104   52   53 1    
   105   52   54 1    
   106   52  175 1    
   107   53  176 1    
   108   53  177 1    
   109   53  178 1    
   110   54   55 am   BACKBONE|DICT|INTERRES
   111   54  179 1    
   112   55   56 2    
   113   55   57 1    
   114   57   58 1    
   115   57   59 1    
   116   57  180 1    
   117   58  181 1    
   118   58  182 1    
   119   58  183 1    
   120   59   60 am   BACKBONE|DICT|INTERRES
   121   59  184 1    
   122   60   61 2    
   123   60   62 1    
   124   62   63 1    
   125   62   64 1    
   126   62  185 1    
   127   63  186 1    
   128   63  187 1    
   129   63  188 1    
   130   64   65 am   BACKBONE|DICT|INTERRES
   131   64  189 1    
   132   65   66 2    
   133   67   68 2    
   134   67   69 am   BACKBONE|DICT|INTERRES
   135   69   70 1    
   136   69  190 1    
   137   70   71 1    
   138   70   72 1    
   139   70  191 1    
   140   71  192 1    
   141   71  193 1    
   142   71  194 1    
   143   72   73 2    
   144   72   74 am   BACKBONE|DICT|INTERRES
   145   74   75 1    
   146   74  195 1    
   147   75   76 1    
   148   75   77 1    
   149   75  196 1    
   150   76  197 1    
   151   76  198 1    
   152   76  199 1    
   153   77   78 2    
   154   77   79 am   BACKBONE|DICT|INTERRES
   155   79   80 1    
   156   79  200 1    
   157   80   81 1    
   158   80   82 1    
   159   80  201 1    
   160   81  202 1    
   161   81  203 1    
   162   81  204 1    
   163   82   83 2    
   164   82   84 am   BACKBONE|DICT|INTERRES
   165   84   85 1    
   166   84  205 1    
   167   85   86 1    
   168   85   87 1    
   169   85  206 1    
   170   86  207 1    
   171   86  208 1    
   172   86  209 1    
   173   87   88 2    
   174   87   89 am   BACKBONE|DICT|INTERRES
   175   89   90 1    
   176   89  210 1    
   177   90   91 1    
   178   90   92 1    
   179   90  211 1    
   180   91  212 1    
   181   91  213 1    
   182   91  214 1    
   183   92   93 2    
   184   92   94 am   BACKBONE|DICT|INTERRES
   185   94   95 1    
   186   94  215 1    
   187   95   96 1    
   188   95   97 1    
   189   95  216 1    
   190   96  217 1    
   191   96  218 1    
   192   96  219 1    
   193   97   98 2    
   194   97   99 am   BACKBONE|DICT|INTERRES
   195   99  100 1    
   196   99  220 1    
   197  100  101 1    
   198  100  102 1    
   199  100  221 1    
   200  101  222 1    
   201  101  223 1    
   202  101  224 1    
   203  102  103 2    
   204  102  104 am   BACKBONE|DICT|INTERRES
   205  104  105 1    
   206  104  225 1    
   207  105  106 1    
   208  105  107 1    
   209  105  226 1    
   210  106  227 1    
   211  106  228 1    
   212  106  229 1    
   213  107  108 2    
   214  107  109 am   BACKBONE|DICT|INTERRES
   215  109  110 1    
   216  109  230 1    
   217  110  111 1    
   218  110  112 1    
   219  110  231 1    
   220  111  232 1    
   221  111  233 1    
   222  111  234 1    
   223  112  113 2    
   224  112  114 am   BACKBONE|DICT|INTERRES
   225  114  115 1    
   226  114  235 1    
   227  115  116 1    
   228  115  117 1    
   229  115  236 1    
   230  116  237 1    
   231  116  238 1    
   232  116  239 1    
   233  117  118 2    
   234  117  119 am   BACKBONE|DICT|INTERRES
   235  119  120 1    
   236  119  240 1    
   237  120  121 1    
   238  120  124 1    
   239  120  241 1    
   240  121  122 am   BACKBONE|DICT|INTERRES
   241  121  123 2    
   242  122  242 1    
   243  122  243 1    
   244  124  125 1    
   245  124  244 1    
   246  124  245 1    
   247  125  126 1    
   248  126  246 1    
   249  126  247 1    
@<TRIPOS>SUBSTRUCTURE
     1 UNK         1 GROUP             0       ****    0 ROOT    
