@<TRIPOS>MOLECULE
3R540
247   249    1
SMALL
USER_CHARGES


@<TRIPOS>ATOM
      1 CA         -6.2875  -14.9958  -49.8068 C.3       0 UNK        -0.1800 
      2 C          -5.1997  -14.0198  -49.3806 C.2       0 UNK         0.5000 
      3 O          -5.5108  -12.9113  -48.9434 O.2       0 UNK        -0.5000 
      4 N          -3.9297  -14.4149  -49.5295 N.am      1 UNK        -0.5000 
      5 CA         -2.7465  -13.6188  -49.1860 C.3       1 UNK         0.1400 
      6 C6         -1.4480  -14.2368  -49.7629 C.3       23 UNK        -0.0398 
      7 S7         -1.5198  -14.3821  -51.5816 S.3       23 UNK        -0.2404 
      8 C8          0.1780  -14.8949  -51.9920 C.3       23 UNK        -0.0205 
      9 C9          0.4932  -16.3027  -51.5072 C.ar      23 UNK        -0.0193 
     10 C10        -0.1139  -17.4086  -52.1101 C.ar      23 UNK        -0.1150 
     11 C11         0.1719  -18.7017  -51.6650 C.ar      23 UNK        -0.0193 
     12 C12         1.0972  -18.8852  -50.6342 C.ar      23 UNK        -0.1150 
     13 C13         1.7148  -17.7885  -50.0171 C.ar      23 UNK        -0.0193 
     14 C14         1.4012  -16.5007  -50.4628 C.ar      23 UNK        -0.1150 
     15 C15         2.7296  -17.9364  -48.8789 C.3       23 UNK        -0.0205 
     16 S16         2.7720  -19.5598  -48.0396 S.3       23 UNK        -0.2404 
     17 C17         1.1065  -19.6172  -47.3059 C.3       23 UNK        -0.0398 
     18 CA          0.5950  -21.0616  -47.1391 C.3       11 UNK         0.1400 
     19 N           1.3069  -21.7477  -46.0609 N.am      11 UNK        -0.5000 
     20 C           1.2645  -23.0647  -45.8292 C.2       10 UNK         0.5000 
     21 O           0.6897  -23.8731  -46.5567 O.2       10 UNK        -0.5000 
     22 CA          1.9307  -23.5370  -44.5285 C.3       10 UNK         0.1400 
     23 CB          3.4421  -23.7297  -44.7229 C.3       10 UNK        -0.1800 
     24 N           1.6994  -22.5861  -43.4406 N.am      10 UNK        -0.5000 
     25 C           0.5356  -22.4371  -42.7895 C.2       9 UNK         0.5000 
     26 O          -0.4709  -23.0918  -43.0632 O.2       9 UNK        -0.5000 
     27 CA          0.4655  -21.3603  -41.6794 C.3       9 UNK         0.1400 
     28 CB         -0.3582  -21.8190  -40.4597 C.3       9 UNK        -0.1800 
     29 N           1.7775  -20.8441  -41.2727 N.am      9 UNK        -0.5000 
     30 C           2.7935  -21.5255  -40.7207 C.2       8 UNK         0.5000 
     31 O           2.6934  -22.6812  -40.3067 O.2       8 UNK        -0.5000 
     32 CA          4.1671  -20.8182  -40.6662 C.3       8 UNK         0.1400 
     33 CB          5.3181  -21.7863  -41.0112 C.3       8 UNK        -0.1800 
     34 N           4.2770  -19.6055  -41.4907 N.am      8 UNK        -0.5000 
     35 C           4.1091  -19.4636  -42.8147 C.2       7 UNK         0.5000 
     36 O           3.7542  -20.3832  -43.5564 O.2       7 UNK        -0.5000 
     37 CA          4.3379  -18.0411  -43.3811 C.3       7 UNK         0.1400 
     38 CB          3.9762  -17.9341  -44.8727 C.3       7 UNK        -0.1800 
     39 N           3.5886  -17.0159  -42.6488 N.am      7 UNK        -0.5000 
     40 C           3.8651  -16.5430  -41.4251 C.2       6 UNK         0.5000 
     41 O           4.8514  -16.8840  -40.7710 O.2       6 UNK        -0.5000 
     42 CA          2.8362  -15.5832  -40.8014 C.3       6 UNK         0.1400 
     43 CB          3.1816  -14.1205  -41.1217 C.3       6 UNK        -0.1800 
     44 N           1.4711  -15.8771  -41.2425 N.am      6 UNK        -0.5000 
     45 C           0.7552  -16.9404  -40.8460 C.2       5 UNK         0.5000 
     46 O           1.1562  -17.7700  -40.0298 O.2       5 UNK        -0.5000 
     47 CA         -0.6315  -17.1208  -41.4902 C.3       5 UNK         0.1400 
     48 CB         -1.6996  -16.3436  -40.7069 C.3       5 UNK        -0.1800 
     49 N          -0.6498  -16.6907  -42.8880 N.am      5 UNK        -0.5000 
     50 C          -0.0999  -17.3825  -43.8941 C.2       4 UNK         0.5000 
     51 O           0.4138  -18.4952  -43.7657 O.2       4 UNK        -0.5000 
     52 CA         -0.1155  -16.7159  -45.2805 C.3       4 UNK         0.1400 
     53 CB         -1.3534  -17.1557  -46.0629 C.3       4 UNK        -0.1800 
     54 N          -0.0524  -15.2544  -45.2724 N.am      4 UNK        -0.5000 
     55 C           0.9806  -14.5432  -44.7982 C.2       3 UNK         0.5000 
     56 O           1.9284  -15.0578  -44.2048 O.2       3 UNK        -0.5000 
     57 CA          0.9837  -13.0187  -45.0337 C.3       3 UNK         0.1400 
     58 CB          2.1543  -12.6244  -45.9488 C.3       3 UNK        -0.1800 
     59 N          -0.2571  -12.5060  -45.6190 N.am      3 UNK        -0.5000 
     60 C          -1.4041  -12.3230  -44.9525 C.2       2 UNK         0.5000 
     61 O          -1.5387  -12.5583  -43.7512 O.2       2 UNK        -0.5000 
     62 CA         -2.6082  -11.8125  -45.7702 C.3       2 UNK         0.1400 
     63 CB         -2.7255  -10.2853  -45.6514 C.3       2 UNK        -0.1800 
     64 N          -2.5825  -12.1802  -47.1925 N.am      2 UNK        -0.5000 
     65 C          -2.6434  -13.4361  -47.6572 C.2       1 UNK         0.5000 
     66 O          -2.6126  -14.4278  -46.9286 O.2       1 UNK        -0.5000 
     67 C          -0.9260  -21.0651  -46.8909 C.2       11 UNK         0.5000 
     68 O          -1.6951  -21.2240  -47.8375 O.2       11 UNK        -0.5000 
     69 N          -1.3383  -20.9149  -45.6224 N.am      12 UNK        -0.5000 
     70 CA         -2.7438  -20.8866  -45.2084 C.3       12 UNK         0.1400 
     71 CB         -2.8413  -20.4584  -43.7369 C.3       12 UNK        -0.1800 
     72 C          -3.4850  -22.2169  -45.4486 C.2       12 UNK         0.5000 
     73 O          -4.7030  -22.2058  -45.6280 O.2       12 UNK        -0.5000 
     74 N          -2.7412  -23.3304  -45.5016 N.am      13 UNK        -0.5000 
     75 CA         -3.2503  -24.6534  -45.8631 C.3       13 UNK         0.1400 
     76 CB         -2.1726  -25.7075  -45.5709 C.3       13 UNK        -0.1800 
     77 C          -3.7228  -24.7489  -47.3293 C.2       13 UNK         0.5000 
     78 O          -4.5835  -25.5776  -47.6278 O.2       13 UNK        -0.5000 
     79 N          -3.2015  -23.8851  -48.2147 N.am      14 UNK        -0.5000 
     80 CA         -3.5913  -23.7806  -49.6229 C.3       14 UNK         0.1400 
     81 CB         -2.3936  -23.2613  -50.4390 C.3       14 UNK        -0.1800 
     82 C          -4.8523  -22.9059  -49.7864 C.2       14 UNK         0.5000 
     83 O          -4.8320  -21.9142  -50.5191 O.2       14 UNK        -0.5000 
     84 N          -5.9206  -23.2794  -49.0665 N.am      15 UNK        -0.5000 
     85 CA         -7.2386  -22.6372  -49.0194 C.3       15 UNK         0.1400 
     86 CB         -7.9793  -22.8475  -50.3572 C.3       15 UNK        -0.1800 
     87 C          -7.1542  -21.1518  -48.6137 C.2       15 UNK         0.5000 
     88 O          -7.6233  -20.2851  -49.3502 O.2       15 UNK        -0.5000 
     89 N          -6.4908  -20.8764  -47.4798 N.am      16 UNK        -0.5000 
     90 CA         -6.1777  -19.5376  -46.9569 C.3       16 UNK         0.1400 
     91 CB         -7.4634  -18.7809  -46.5615 C.3       16 UNK        -0.1800 
     92 C          -5.2687  -18.7220  -47.9037 C.2       16 UNK         0.5000 
     93 O          -5.3424  -17.4941  -47.9191 O.2       16 UNK        -0.5000 
     94 N          -4.4477  -19.4357  -48.6894 N.am      17 UNK        -0.5000 
     95 CA         -3.5841  -18.9538  -49.7708 C.3       17 UNK         0.1400 
     96 CB         -2.5064  -17.9950  -49.2358 C.3       17 UNK        -0.1800 
     97 C          -4.3514  -18.3821  -50.9817 C.2       17 UNK         0.5000 
     98 O          -3.7612  -17.6595  -51.7851 O.2       17 UNK        -0.5000 
     99 N          -5.6444  -18.7129  -51.1131 N.am      18 UNK        -0.5000 
    100 CA        -6.4774  -18.3064  -52.2450 C.3       18 UNK         0.1400 
    101 CB        -7.9450  -18.2248  -51.7989 C.3       18 UNK        -0.1800 
    102 C         -6.3299  -19.2485  -53.4544 C.2       18 UNK         0.5000 
    103 O         -6.7279  -18.8652  -54.5557 O.2       18 UNK        -0.5000 
    104 N         -5.7828  -20.4568  -53.2476 N.am      19 UNK        -0.5000 
    105 CA        -5.5252  -21.4315  -54.3066 C.3       19 UNK         0.1400 
    106 CB        -5.1598  -22.7856  -53.6804 C.3       19 UNK        -0.1800 
    107 C         -4.4072  -20.9533  -55.2514 C.2       19 UNK         0.5000 
    108 O         -3.3213  -20.5983  -54.7844 O.2       19 UNK        -0.5000 
    109 N         -4.6889  -20.9683  -56.5605 N.am      20 UNK        -0.5000 
    110 CA        -3.7217  -20.6659  -57.6143 C.3       20 UNK         0.1400 
    111 CB        -4.4787  -20.3662  -58.9189 C.3       20 UNK        -0.1800 
    112 C         -2.7453  -21.8393  -57.8130 C.2       20 UNK         0.5000 
    113 O         -3.1509  -22.9972  -57.6785 O.2       20 UNK        -0.5000 
    114 N         -1.4888  -21.5125  -58.1494 N.am      21 UNK        -0.5000 
    115 CA        -0.3702  -22.4404  -58.3750 C.3       21 UNK         0.1400 
    116 CB        -0.5931  -23.2581  -59.6650 C.3       21 UNK        -0.1800 
    117 C         -0.0599  -23.3221  -57.1440 C.2       21 UNK         0.5000 
    118 O          0.2064  -24.5181  -57.2831 O.2       21 UNK        -0.5000 
    119 N         -0.1293  -22.7076  -55.9566 N.am      22 UNK        -0.5000 
    120 CA         0.1353  -23.3296  -54.6530 C.3       22 UNK         0.1400 
    121 C          1.5981  -23.8321  -54.4670 C.2       22 UNK         0.5000 
    122 N          1.8156  -24.7989  -53.5856 N.am      22 UNK        -0.7600 
    123 O          2.5389  -23.3433  -55.0892 O.2       22 UNK        -0.5000 
    124 C124       -0.3191  -22.4054  -53.4928 C.3       23 UNK        -0.0398 
    125 S125        0.5192  -20.7829  -53.4463 S.3       23 UNK        -0.2404 
    126 C126       -0.5409  -19.9046  -52.2615 C.3       23 UNK        -0.0205 
    127 H127       -5.8675  -15.8975  -50.2508 H         1 UNK         0.0600 
    128 H128       -6.8863  -15.2908  -48.9451 H         1 UNK         0.0600 
    129 H129       -6.9461  -14.5322  -50.5411 H         1 UNK         0.0600 
    130 H130       -3.7397  -15.3384  -49.8911 H         1 UNK         0.3000 
    131 H131       -2.8748  -12.6335  -49.6395 H         1 UNK         0.0600 
    132 H132       -1.2652  -15.2254  -49.3382 H         1 UNK         0.0800 
    133 H133       -0.5844  -13.6225  -49.5022 H         1 UNK         0.0800 
    134 H134        0.8838  -14.1712  -51.5812 H         1 UNK         0.0800 
    135 H135        0.3020  -14.8588  -53.0752 H         1 UNK         0.0800 
    136 H136       -0.8302  -17.2590  -52.9061 H         1 UNK         0.1150 
    137 H137        1.3203  -19.8927  -50.3160 H         1 UNK         0.1150 
    138 H138        1.8729  -15.6465  -49.9973 H         1 UNK         0.1150 
    139 H139        3.7234  -17.7367  -49.2812 H         1 UNK         0.0800 
    140 H140        2.5434  -17.1702  -48.1243 H         1 UNK         0.0800 
    141 H141        1.1480  -19.1297  -46.3350 H         1 UNK         0.0800 
    142 H142        0.4255  -19.0285  -47.9215 H         1 UNK         0.0800 
    143 H143        0.7681  -21.6054  -48.0708 H         1 UNK         0.0600 
    144 H144        1.8327  -21.1670  -45.4221 H         1 UNK         0.3000 
    145 H145        1.4936  -24.4990  -44.2523 H         1 UNK         0.0600 
    146 H146        3.9122  -24.0976  -43.8105 H         1 UNK         0.0600 
    147 H147        3.6442  -24.4571  -45.5102 H         1 UNK         0.0600 
    148 H148        3.9364  -22.7979  -45.0008 H         1 UNK         0.0600 
    149 H149        2.4673  -21.9634  -43.2127 H         1 UNK         0.3000 
    150 H150       -0.0603  -20.5145  -42.1219 H         1 UNK         0.0600 
    151 H151       -1.3862  -22.0454  -40.7449 H         1 UNK         0.0600 
    152 H152       -0.3987  -21.0407  -39.6974 H         1 UNK         0.0600 
    153 H153        0.0567  -22.7175  -40.0025 H         1 UNK         0.0600 
    154 H154        1.9726  -19.8967  -41.5660 H         1 UNK         0.3000 
    155 H155        4.2992  -20.4956  -39.6324 H         1 UNK         0.0600 
    156 H156        5.3492  -22.6275  -40.3176 H         1 UNK         0.0600 
    157 H157        6.2851  -21.2865  -40.9522 H         1 UNK         0.0600 
    158 H158        5.2130  -22.1953  -42.0171 H         1 UNK         0.0600 
    159 H159        4.5420  -18.7636  -40.9860 H         1 UNK         0.3000 
    160 H160        5.4035  -17.8262  -43.2810 H         1 UNK         0.0600 
    161 H161        2.9208  -18.1446  -45.0415 H         1 UNK         0.0600 
    162 H162        4.5530  -18.6408  -45.4706 H         1 UNK         0.0600 
    163 H163        4.1828  -16.9361  -45.2603 H         1 UNK         0.0600 
    164 H164        2.7819  -16.6291  -43.1255 H         1 UNK         0.3000 
    165 H165        2.8792  -15.7098  -39.7173 H         1 UNK         0.0600 
    166 H166        4.1716  -13.8645  -40.7422 H         1 UNK         0.0600 
    167 H167        3.1852  -13.9268  -42.1944 H         1 UNK         0.0600 
    168 H168        2.4702  -13.4362  -40.6590 H         1 UNK         0.0600 
    169 H169        1.0924  -15.2770  -41.9606 H         1 UNK         0.3000 
    170 H170       -0.8853  -18.1825  -41.4473 H         1 UNK         0.0600 
    171 H171       -1.7210  -16.6554  -39.6616 H         1 UNK         0.0600 
    172 H172       -1.5129  -15.2689  -40.7261 H         1 UNK         0.0600 
    173 H173       -2.6940  -16.5190  -41.1178 H         1 UNK         0.0600 
    174 H174       -1.0608  -15.7903  -43.0898 H         1 UNK         0.3000 
    175 H175        0.7718  -17.0514  -45.8161 H         1 UNK         0.0600 
    176 H176       -2.2747  -16.8038  -45.5970 H         1 UNK         0.0600 
    177 H177       -1.3151  -16.7585  -47.0753 H         1 UNK         0.0600 
    178 H178       -1.4172  -18.2389  -46.1343 H         1 UNK         0.0600 
    179 H179       -0.8121  -14.7703  -45.7363 H         1 UNK         0.3000 
    180 H180        1.1353  -12.5427  -44.0623 H         1 UNK         0.0600 
    181 H181        2.0625  -13.0768  -46.9373 H         1 UNK         0.0600 
    182 H182        2.2086  -11.5430  -46.0768 H         1 UNK         0.0600 
    183 H183        3.1079  -12.9466  -45.5279 H         1 UNK         0.0600 
    184 H184       -0.2381  -12.2873  -46.6041 H         1 UNK         0.3000 
    185 H185       -3.5048  -12.2566  -45.3325 H         1 UNK         0.0600 
    186 H186       -3.6294   -9.9195  -46.1390 H         1 UNK         0.0600 
    187 H187       -2.7750   -9.9764  -44.6062 H         1 UNK         0.0600 
    188 H188       -1.8708   -9.7798  -46.1030 H         1 UNK         0.0600 
    189 H189       -2.6160  -11.4139  -47.8498 H         1 UNK         0.3000 
    190 H190       -0.6476  -20.7955  -44.8963 H         1 UNK         0.3000 
    191 H191       -3.2411  -20.1258  -45.8124 H         1 UNK         0.0600 
    192 H192       -3.8833  -20.3487  -43.4338 H         1 UNK         0.0600 
    193 H193       -2.3531  -19.4987  -43.5681 H         1 UNK         0.0600 
    194 H194       -2.3861  -21.1916  -43.0718 H         1 UNK         0.0600 
    195 H195       -1.7504  -23.2592  -45.3149 H         1 UNK         0.3000 
    196 H196       -4.1119  -24.8636  -45.2261 H         1 UNK         0.0600 
    197 H197       -2.5588  -26.7142  -45.7352 H         1 UNK         0.0600 
    198 H198       -1.8344  -25.6529  -44.5357 H         1 UNK         0.0600 
    199 H199       -1.3029  -25.5832  -46.2160 H         1 UNK         0.0600 
    200 H200       -2.5470  -23.1841  -47.8871 H         1 UNK         0.3000 
    201 H201       -3.8365  -24.7751  -50.0011 H         1 UNK         0.0600 
    202 H202       -1.5075  -23.8749  -50.2761 H         1 UNK         0.0600 
    203 H203       -2.1407  -22.2336  -50.1810 H         1 UNK         0.0600 
    204 H204       -2.6116  -23.2850  -51.5061 H         1 UNK         0.0600 
    205 H205       -5.8100  -24.1012  -48.4826 H         1 UNK         0.3000 
    206 H206       -7.8086  -23.1425  -48.2386 H         1 UNK         0.0600 
    207 H207       -8.0439  -23.9056  -50.6107 H         1 UNK         0.0600 
    208 H208       -8.9985  -22.4635  -50.3031 H         1 UNK         0.0600 
    209 H209       -7.4821  -22.3354  -51.1818 H         1 UNK         0.0600 
    210 H210       -6.0898  -21.6414  -46.9444 H         1 UNK         0.3000 
    211 H211       -5.6036  -19.6897  -46.0431 H         1 UNK         0.0600 
    212 H212       -8.0574  -18.5032  -47.4327 H         1 UNK         0.0600 
    213 H213       -7.2251  -17.8614  -46.0257 H         1 UNK         0.0600 
    214 H214       -8.0903  -19.3842  -45.9049 H         1 UNK         0.0600 
    215 H215       -4.4981  -20.4422  -48.6184 H         1 UNK         0.3000 
    216 H216       -3.0647  -19.8339  -50.1514 H         1 UNK         0.0600 
    217 H217       -2.9365  -17.1149  -48.7599 H         1 UNK         0.0600 
    218 H218       -1.8536  -17.6401  -50.0297 H         1 UNK         0.0600 
    219 H219       -1.8756  -18.5065  -48.5124 H         1 UNK         0.0600 
    220 H220       -6.0822  -19.3105  -50.4200 H         1 UNK         0.3000 
    221 H221       -6.1763  -17.3072  -52.5669 H         1 UNK         0.0600 
    222 H222       -8.3602  -19.2120  -51.5951 H         1 UNK         0.0600 
    223 H223       -8.0545  -17.6190  -50.8989 H         1 UNK         0.0600 
    224 H224       -8.5606  -17.7696  -52.5755 H         1 UNK         0.0600 
    225 H225       -5.4599  -20.6995  -52.3185 H         1 UNK         0.3000 
    226 H226       -6.4474  -21.5612  -54.8773 H         1 UNK         0.0600 
    227 H227       -5.9489  -23.1450  -53.0198 H         1 UNK         0.0600 
    228 H228       -5.0077  -23.5425  -54.4508 H         1 UNK         0.0600 
    229 H229       -4.2395  -22.7198  -53.1006 H         1 UNK         0.0600 
    230 H230       -5.5915  -21.3033  -56.8668 H         1 UNK         0.3000 
    231 H231       -3.1577  -19.7748  -57.3271 H         1 UNK         0.0600 
    232 H232       -5.0654  -21.2245  -59.2513 H         1 UNK         0.0600 
    233 H233       -5.1575  -19.5214  -58.7966 H         1 UNK         0.0600 
    234 H234       -3.7864  -20.1113  -59.7227 H         1 UNK         0.0600 
    235 H235       -1.2592  -20.5319  -58.2388 H         1 UNK         0.3000 
    236 H236        0.5145  -21.8217  -58.5304 H         1 UNK         0.0600 
    237 H237       -0.7898  -22.6056  -60.5156 H         1 UNK         0.0600 
    238 H238        0.2891  -23.8512  -59.9093 H         1 UNK         0.0600 
    239 H239       -1.4328  -23.9466  -59.5696 H         1 UNK         0.0600 
    240 H240       -0.3424  -21.7213  -55.9331 H         1 UNK         0.3000 
    241 H241       -0.4967  -24.2188  -54.6164 H         1 UNK         0.0600 
    242 H242        2.7581  -25.1284  -53.4469 H         1 UNK         0.3800 
    243 H243        1.0651  -25.2217  -53.0624 H         1 UNK         0.3800 
    244 H244       -0.1708  -22.8989  -52.5310 H         1 UNK         0.0800 
    245 H245       -1.3932  -22.2322  -53.5733 H         1 UNK         0.0800 
    246 H246       -1.4656  -19.6023  -52.7565 H         1 UNK         0.0800 
    247 H247       -0.8302  -20.5801  -51.4556 H         1 UNK         0.0800 
@<TRIPOS>BOND
     1    1    2 1    
     2    1  127 1    
     3    1  128 1    
     4    1  129 1    
     5    2    3 2    
     6    2    4 am   BACKBONE|DICT|INTERRES
     7    4    5 1    
     8    4  130 1    
     9    5    6 1    
    10    5   65 1    
    11    5  131 1    
    12    6    7 1    
    13    6  132 1    
    14    6  133 1    
    15    7    8 1    
    16    8    9 1    
    17    8  134 1    
    18    8  135 1    
    19    9   10 ar   
    20    9   14 ar   
    21   10   11 ar   
    22   10  136 1    
    23   11   12 ar   
    24   11  126 1    
    25   12   13 ar   
    26   12  137 1    
    27   13   14 ar   
    28   13   15 1    
    29   14  138 1    
    30   15   16 1    
    31   15  139 1    
    32   15  140 1    
    33   16   17 1    
    34   17   18 1    
    35   17  141 1    
    36   17  142 1    
    37   18   19 1    
    38   18   67 1    
    39   18  143 1    
    40   19   20 am   BACKBONE|DICT|INTERRES
    41   19  144 1    
    42   20   21 2    
    43   20   22 1    
    44   22   23 1    
    45   22   24 1    
    46   22  145 1    
    47   23  146 1    
    48   23  147 1    
    49   23  148 1    
    50   24   25 am   BACKBONE|DICT|INTERRES
    51   24  149 1    
    52   25   26 2    
    53   25   27 1    
    54   27   28 1    
    55   27   29 1    
    56   27  150 1    
    57   28  151 1    
    58   28  152 1    
    59   28  153 1    
    60   29   30 am   BACKBONE|DICT|INTERRES
    61   29  154 1    
    62   30   31 2    
    63   30   32 1    
    64   32   33 1    
    65   32   34 1    
    66   32  155 1    
    67   33  156 1    
    68   33  157 1    
    69   33  158 1    
    70   34   35 am   BACKBONE|DICT|INTERRES
    71   34  159 1    
    72   35   36 2    
    73   35   37 1    
    74   37   38 1    
    75   37   39 1    
    76   37  160 1    
    77   38  161 1    
    78   38  162 1    
    79   38  163 1    
    80   39   40 am   BACKBONE|DICT|INTERRES
    81   39  164 1    
    82   40   41 2    
    83   40   42 1    
    84   42   43 1    
    85   42   44 1    
    86   42  165 1    
    87   43  166 1    
    88   43  167 1    
    89   43  168 1    
    90   44   45 am   BACKBONE|DICT|INTERRES
    91   44  169 1    
    92   45   46 2    
    93   45   47 1    
    94   47   48 1    
    95   47   49 1    
    96   47  170 1    
    97   48  171 1    
    98   48  172 1    
    99   48  173 1    
   100   49   50 am   BACKBONE|DICT|INTERRES
   101   49  174 1    
   102   50   51 2    
   103   50   52 1    
   104   52   53 1    
   105   52   54 1    
   106   52  175 1    
   107   53  176 1    
   108   53  177 1    
   109   53  178 1    
   110   54   55 am   BACKBONE|DICT|INTERRES
   111   54  179 1    
   112   55   56 2    
   113   55   57 1    
   114   57   58 1    
   115   57   59 1    
   116   57  180 1    
   117   58  181 1    
   118   58  182 1    
   119   58  183 1    
   120   59   60 am   BACKBONE|DICT|INTERRES
   121   59  184 1    
   122   60   61 2    
   123   60   62 1    
   124   62   63 1    
   125   62   64 1    
   126   62  185 1    
   127   63  186 1    
   128   63  187 1    
   129   63  188 1    
   130   64   65 am   BACKBONE|DICT|INTERRES
   131   64  189 1    
   132   65   66 2    
   133   67   68 2    
   134   67   69 am   BACKBONE|DICT|INTERRES
   135   69   70 1    
   136   69  190 1    
   137   70   71 1    
   138   70   72 1    
   139   70  191 1    
   140   71  192 1    
   141   71  193 1    
   142   71  194 1    
   143   72   73 2    
   144   72   74 am   BACKBONE|DICT|INTERRES
   145   74   75 1    
   146   74  195 1    
   147   75   76 1    
   148   75   77 1    
   149   75  196 1    
   150   76  197 1    
   151   76  198 1    
   152   76  199 1    
   153   77   78 2    
   154   77   79 am   BACKBONE|DICT|INTERRES
   155   79   80 1    
   156   79  200 1    
   157   80   81 1    
   158   80   82 1    
   159   80  201 1    
   160   81  202 1    
   161   81  203 1    
   162   81  204 1    
   163   82   83 2    
   164   82   84 am   BACKBONE|DICT|INTERRES
   165   84   85 1    
   166   84  205 1    
   167   85   86 1    
   168   85   87 1    
   169   85  206 1    
   170   86  207 1    
   171   86  208 1    
   172   86  209 1    
   173   87   88 2    
   174   87   89 am   BACKBONE|DICT|INTERRES
   175   89   90 1    
   176   89  210 1    
   177   90   91 1    
   178   90   92 1    
   179   90  211 1    
   180   91  212 1    
   181   91  213 1    
   182   91  214 1    
   183   92   93 2    
   184   92   94 am   BACKBONE|DICT|INTERRES
   185   94   95 1    
   186   94  215 1    
   187   95   96 1    
   188   95   97 1    
   189   95  216 1    
   190   96  217 1    
   191   96  218 1    
   192   96  219 1    
   193   97   98 2    
   194   97   99 am   BACKBONE|DICT|INTERRES
   195   99  100 1    
   196   99  220 1    
   197  100  101 1    
   198  100  102 1    
   199  100  221 1    
   200  101  222 1    
   201  101  223 1    
   202  101  224 1    
   203  102  103 2    
   204  102  104 am   BACKBONE|DICT|INTERRES
   205  104  105 1    
   206  104  225 1    
   207  105  106 1    
   208  105  107 1    
   209  105  226 1    
   210  106  227 1    
   211  106  228 1    
   212  106  229 1    
   213  107  108 2    
   214  107  109 am   BACKBONE|DICT|INTERRES
   215  109  110 1    
   216  109  230 1    
   217  110  111 1    
   218  110  112 1    
   219  110  231 1    
   220  111  232 1    
   221  111  233 1    
   222  111  234 1    
   223  112  113 2    
   224  112  114 am   BACKBONE|DICT|INTERRES
   225  114  115 1    
   226  114  235 1    
   227  115  116 1    
   228  115  117 1    
   229  115  236 1    
   230  116  237 1    
   231  116  238 1    
   232  116  239 1    
   233  117  118 2    
   234  117  119 am   BACKBONE|DICT|INTERRES
   235  119  120 1    
   236  119  240 1    
   237  120  121 1    
   238  120  124 1    
   239  120  241 1    
   240  121  122 am   BACKBONE|DICT|INTERRES
   241  121  123 2    
   242  122  242 1    
   243  122  243 1    
   244  124  125 1    
   245  124  244 1    
   246  124  245 1    
   247  125  126 1    
   248  126  246 1    
   249  126  247 1    
@<TRIPOS>SUBSTRUCTURE
     1 UNK         1 GROUP             0       ****    0 ROOT    
