@<TRIPOS>MOLECULE
3R540
247   249    1
SMALL
USER_CHARGES


@<TRIPOS>ATOM
      1 CA          4.2563  -14.5105  -50.9743 C.3       0 UNK        -0.1800 
      2 C           3.4559  -14.1165  -49.7409 C.2       0 UNK         0.5000 
      3 O           2.9089  -13.0153  -49.7041 O.2       0 UNK        -0.5000 
      4 N           3.3971  -15.0202  -48.7503 N.am      1 UNK        -0.5000 
      5 CA          2.6875  -14.9265  -47.4644 C.3       1 UNK         0.1400 
      6 C6          1.2131  -15.4229  -47.5099 C.3       23 UNK        -0.0398 
      7 S7          0.0292  -14.4564  -48.5144 S.3       23 UNK        -0.2404 
      8 C8         -0.0236  -15.3676  -50.0938 C.3       23 UNK        -0.0205 
      9 C9         -0.5415  -16.7924  -49.9546 C.ar      23 UNK        -0.0193 
     10 C10        -1.8754  -17.0326  -49.6072 C.ar      23 UNK        -0.1150 
     11 C11        -2.3604  -18.3404  -49.5011 C.ar      23 UNK        -0.0193 
     12 C12        -1.4905  -19.4079  -49.7418 C.ar      23 UNK        -0.1150 
     13 C13        -0.1677  -19.1834  -50.1256 C.ar      23 UNK        -0.0193 
     14 C14         0.3070  -17.8729  -50.2160 C.ar      23 UNK        -0.1150 
     15 C15         0.7361  -20.3638  -50.4498 C.3       23 UNK        -0.0205 
     16 S16         2.0593  -20.6051  -49.2243 S.3       23 UNK        -0.2404 
     17 C17         1.1560  -20.5677  -47.6406 C.3       23 UNK        -0.0398 
     18 CA          0.8068  -21.9613  -47.0765 C.3       11 UNK         0.1400 
     19 N           0.6359  -21.8867  -45.6262 N.am      11 UNK        -0.5000 
     20 C           0.5516  -22.9318  -44.7971 C.2       10 UNK         0.5000 
     21 O           0.6236  -24.1021  -45.1659 O.2       10 UNK        -0.5000 
     22 CA          0.2989  -22.6069  -43.3155 C.3       10 UNK         0.1400 
     23 CB          1.6028  -22.2065  -42.6091 C.3       10 UNK        -0.1800 
     24 N          -0.6907  -21.5406  -43.1583 N.am      10 UNK        -0.5000 
     25 C          -1.9979  -21.6862  -43.4144 C.2       9 UNK         0.5000 
     26 O          -2.5088  -22.7494  -43.7690 O.2       9 UNK        -0.5000 
     27 CA         -2.8711  -20.4230  -43.2875 C.3       9 UNK         0.1400 
     28 CB         -3.2537  -20.1760  -41.8209 C.3       9 UNK        -0.1800 
     29 N          -2.2295  -19.2250  -43.8372 N.am      9 UNK        -0.5000 
     30 C          -1.9353  -19.0670  -45.1364 C.2       8 UNK         0.5000 
     31 O          -2.1913  -19.9050  -45.9953 O.2       8 UNK        -0.5000 
     32 CA         -1.1853  -17.7930  -45.5547 C.3       8 UNK         0.1400 
     33 CB         -2.1704  -16.6454  -45.8132 C.3       8 UNK        -0.1800 
     34 N          -0.1641  -17.3727  -44.5953 N.am      8 UNK        -0.5000 
     35 C           0.8927  -18.1117  -44.2280 C.2       7 UNK         0.5000 
     36 O           1.0816  -19.2682  -44.6013 O.2       7 UNK        -0.5000 
     37 CA          1.9041  -17.4563  -43.2799 C.3       7 UNK         0.1400 
     38 CB          2.8287  -16.5048  -44.0529 C.3       7 UNK        -0.1800 
     39 N           1.2238  -16.7361  -42.2068 N.am      7 UNK        -0.5000 
     40 C           0.8814  -17.2930  -41.0372 C.2       6 UNK         0.5000 
     41 O           1.1819  -18.4418  -40.7107 O.2       6 UNK        -0.5000 
     42 CA          0.0437  -16.4319  -40.0731 C.3       6 UNK         0.1400 
     43 CB          0.9588  -15.6185  -39.1457 C.3       6 UNK        -0.1800 
     44 N          -0.8787  -15.5226  -40.7545 N.am      6 UNK        -0.5000 
     45 C          -1.9098  -15.9086  -41.5198 C.2       5 UNK         0.5000 
     46 O          -2.1966  -17.0841  -41.7465 O.2       5 UNK        -0.5000 
     47 CA         -2.7332  -14.7891  -42.1845 C.3       5 UNK         0.1400 
     48 CB         -3.8541  -14.3215  -41.2445 C.3       5 UNK        -0.1800 
     49 N          -1.9486  -13.6262  -42.6118 N.am      5 UNK        -0.5000 
     50 C          -0.8595  -13.6493  -43.3932 C.2       4 UNK         0.5000 
     51 O          -0.3388  -14.6864  -43.8103 O.2       4 UNK        -0.5000 
     52 CA         -0.2210  -12.2991  -43.7669 C.3       4 UNK         0.1400 
     53 CB         -0.8695  -11.0649  -43.0988 C.3       4 UNK        -0.1800 
     54 N           1.2224  -12.3328  -43.5328 N.am      4 UNK        -0.5000 
     55 C           1.8569  -12.4835  -42.3600 C.2       3 UNK         0.5000 
     56 O           1.2724  -12.5645  -41.2784 O.2       3 UNK        -0.5000 
     57 CA          3.3985  -12.5876  -42.3890 C.3       3 UNK         0.1400 
     58 CB          3.8889  -13.7747  -41.5424 C.3       3 UNK        -0.1800 
     59 N           3.9438  -12.7011  -43.7476 N.am      3 UNK        -0.5000 
     60 C           4.2201  -11.6595  -44.5454 C.2       2 UNK         0.5000 
     61 O           4.1000  -10.4851  -44.1951 O.2       2 UNK        -0.5000 
     62 CA          4.6824  -11.9692  -45.9850 C.3       2 UNK         0.1400 
     63 CB          6.2159  -11.9346  -46.0723 C.3       2 UNK        -0.1800 
     64 N           4.2052  -13.2402  -46.5434 N.am      2 UNK        -0.5000 
     65 C           2.9216  -13.5969  -46.7057 C.2       1 UNK         0.5000 
     66 O           1.9758  -12.9291  -46.2879 O.2       1 UNK        -0.5000 
     67 C          -0.4162  -22.6026  -47.7756 C.2       11 UNK         0.5000 
     68 O          -0.2451  -23.3696  -48.7265 O.2       11 UNK        -0.5000 
     69 N          -1.6269  -22.3251  -47.2690 N.am      12 UNK        -0.5000 
     70 CA         -2.8791  -22.9521  -47.6927 C.3       12 UNK         0.1400 
     71 CB         -4.0790  -22.2286  -47.0646 C.3       12 UNK        -0.1800 
     72 C          -2.9280  -24.4551  -47.3724 C.2       12 UNK         0.5000 
     73 O          -3.3944  -25.2375  -48.1993 O.2       12 UNK        -0.5000 
     74 N          -2.4208  -24.8395  -46.1934 N.am      13 UNK        -0.5000 
     75 CA         -2.2715  -26.2391  -45.7941 C.3       13 UNK         0.1400 
     76 CB         -1.9668  -26.3169  -44.2902 C.3       13 UNK        -0.1800 
     77 C          -1.1941  -26.9698  -46.6195 C.2       13 UNK         0.5000 
     78 O          -1.3732  -28.1440  -46.9454 O.2       13 UNK        -0.5000 
     79 N          -0.1046  -26.2615  -46.9469 N.am      14 UNK        -0.5000 
     80 CA          1.0170  -26.7689  -47.7325 C.3       14 UNK         0.1400 
     81 CB          2.2145  -25.8149  -47.6033 C.3       14 UNK        -0.1800 
     82 C           0.6719  -27.0051  -49.2136 C.2       14 UNK         0.5000 
     83 O           1.0364  -28.0556  -49.7448 O.2       14 UNK        -0.5000 
     84 N           0.0017  -26.0393  -49.8608 N.am      15 UNK        -0.5000 
     85 CA         -0.2866  -26.0967  -51.2970 C.3       15 UNK         0.1400 
     86 CB          0.9597  -25.6814  -52.1029 C.3       15 UNK        -0.1800 
     87 C          -1.4981  -25.2585  -51.7317 C.2       15 UNK         0.5000 
     88 O          -2.2541  -25.7189  -52.5874 O.2       15 UNK        -0.5000 
     89 N          -1.6378  -24.0361  -51.1922 N.am      16 UNK        -0.5000 
     90 CA         -2.6428  -23.0230  -51.5692 C.3       16 UNK         0.1400 
     91 CB         -4.0761  -23.5277  -51.2952 C.3       16 UNK        -0.1800 
     92 C          -2.5108  -22.4908  -53.0158 C.2       16 UNK         0.5000 
     93 O          -3.4561  -21.8963  -53.5337 O.2       16 UNK        -0.5000 
     94 N          -1.3494  -22.7105  -53.6478 N.am      17 UNK        -0.5000 
     95 CA         -1.1083  -22.4937  -55.0781 C.3       17 UNK         0.1400 
     96 CB          0.2040  -23.1973  -55.4592 C.3       17 UNK        -0.1800 
     97 C          -1.0776  -21.0184  -55.5254 C.2       17 UNK         0.5000 
     98 O          -1.1844  -20.7507  -56.7228 O.2       17 UNK        -0.5000 
     99 N          -0.9183  -20.0898  -54.5744 N.am      18 UNK        -0.5000 
    100 CA        -0.8435  -18.6477  -54.8209 C.3       18 UNK         0.1400 
    101 CB        -0.1935  -17.9802  -53.6013 C.3       18 UNK        -0.1800 
    102 C         -2.2074  -17.9889  -55.1126 C.2       18 UNK         0.5000 
    103 O         -2.2324  -16.8313  -55.5339 O.2       18 UNK        -0.5000 
    104 N         -3.3084  -18.7054  -54.8624 N.am      19 UNK        -0.5000 
    105 CA        -4.6777  -18.2162  -54.9808 C.3       19 UNK         0.1400 
    106 CB        -5.1346  -17.7208  -53.5950 C.3       19 UNK        -0.1800 
    107 C         -5.5888  -19.3309  -55.5182 C.2       19 UNK         0.5000 
    108 O         -5.1277  -20.4465  -55.7720 O.2       19 UNK        -0.5000 
    109 N         -6.8855  -19.0259  -55.6562 N.am      20 UNK        -0.5000 
    110 CA        -7.9460  -19.9757  -56.0035 C.3       20 UNK         0.1400 
    111 CB        -9.1529  -19.1935  -56.5515 C.3       20 UNK        -0.1800 
    112 C         -8.3083  -20.8493  -54.7841 C.2       20 UNK         0.5000 
    113 O         -9.3794  -20.6875  -54.1947 O.2       20 UNK        -0.5000 
    114 N         -7.3540  -21.6991  -54.3768 N.am      21 UNK        -0.5000 
    115 CA        -7.3660  -22.5678  -53.1921 C.3       21 UNK         0.1400 
    116 CB        -8.4295  -23.6748  -53.3421 C.3       21 UNK        -0.1800 
    117 C         -7.4967  -21.7978  -51.8569 C.2       21 UNK         0.5000 
    118 O         -7.9137  -22.3781  -50.8535 O.2       21 UNK        -0.5000 
    119 N         -7.1436  -20.5044  -51.8771 N.am      22 UNK        -0.5000 
    120 CA        -7.2676  -19.5363  -50.7723 C.3       22 UNK         0.1400 
    121 C         -8.7388  -19.2412  -50.3430 C.2       22 UNK         0.5000 
    122 N         -9.7356  -19.5091  -51.1805 N.am      22 UNK        -0.7600 
    123 O         -8.9848  -18.7308  -49.2535 O.2       22 UNK        -0.5000 
    124 C124       -6.3250  -19.8545  -49.5771 C.3       23 UNK        -0.0398 
    125 S125       -4.5786  -19.9291  -50.1032 S.3       23 UNK        -0.2404 
    126 C126       -3.8170  -18.5918  -49.1214 C.3       23 UNK        -0.0205 
    127 H127        5.0703  -13.8036  -51.1352 H         1 UNK         0.0600 
    128 H128        3.6148  -14.4999  -51.8555 H         1 UNK         0.0600 
    129 H129        4.6861  -15.5081  -50.8800 H         1 UNK         0.0600 
    130 H130        3.8975  -15.8878  -48.8836 H         1 UNK         0.3000 
    131 H131        3.2059  -15.6598  -46.8473 H         1 UNK         0.0600 
    132 H132        0.8148  -15.4481  -46.4948 H         1 UNK         0.0800 
    133 H133        1.1952  -16.4608  -47.8413 H         1 UNK         0.0800 
    134 H134       -0.6709  -14.8262  -50.7848 H         1 UNK         0.0800 
    135 H135        0.9679  -15.3616  -50.5462 H         1 UNK         0.0800 
    136 H136       -2.5333  -16.1961  -49.4179 H         1 UNK         0.1150 
    137 H137       -1.8503  -20.4197  -49.6374 H         1 UNK         0.1150 
    138 H138        1.3339  -17.6980  -50.5047 H         1 UNK         0.1150 
    139 H139        0.1568  -21.2841  -50.5307 H         1 UNK         0.0800 
    140 H140        1.1905  -20.2073  -51.4290 H         1 UNK         0.0800 
    141 H141        0.2767  -19.9266  -47.6777 H         1 UNK         0.0800 
    142 H142        1.8376  -20.0640  -46.9546 H         1 UNK         0.0800 
    143 H143        1.6605  -22.6181  -47.2524 H         1 UNK         0.0600 
    144 H144        0.6129  -20.9521  -45.2246 H         1 UNK         0.3000 
    145 H145       -0.0854  -23.5094  -42.8351 H         1 UNK         0.0600 
    146 H146        1.4362  -22.0286  -41.5465 H         1 UNK         0.0600 
    147 H147        2.3496  -22.9969  -42.6936 H         1 UNK         0.0600 
    148 H148        2.0345  -21.3003  -43.0351 H         1 UNK         0.0600 
    149 H149       -0.3414  -20.6241  -42.9176 H         1 UNK         0.3000 
    150 H150       -3.7893  -20.5996  -43.8517 H         1 UNK         0.0600 
    151 H151       -3.7374  -21.0529  -41.3887 H         1 UNK         0.0600 
    152 H152       -3.9514  -19.3432  -41.7319 H         1 UNK         0.0600 
    153 H153       -2.3797  -19.9458  -41.2100 H         1 UNK         0.0600 
    154 H154       -2.0143  -18.4793  -43.1821 H         1 UNK         0.3000 
    155 H155       -0.6742  -18.0068  -46.4956 H         1 UNK         0.0600 
    156 H156       -2.7447  -16.4042  -44.9210 H         1 UNK         0.0600 
    157 H157       -2.8804  -16.9123  -46.5965 H         1 UNK         0.0600 
    158 H158       -1.6554  -15.7418  -46.1384 H         1 UNK         0.0600 
    159 H159       -0.2429  -16.4195  -44.2457 H         1 UNK         0.3000 
    160 H160        2.5259  -18.2513  -42.8623 H         1 UNK         0.0600 
    161 H161        2.3077  -15.6015  -44.3714 H         1 UNK         0.0600 
    162 H162        3.2308  -16.9953  -44.9398 H         1 UNK         0.0600 
    163 H163        3.6838  -16.2114  -43.4463 H         1 UNK         0.0600 
    164 H164        0.8681  -15.8144  -42.4281 H         1 UNK         0.3000 
    165 H165       -0.5511  -17.1106  -39.4583 H         1 UNK         0.0600 
    166 H166        0.3804  -15.0684  -38.4033 H         1 UNK         0.0600 
    167 H167        1.6460  -16.2699  -38.6042 H         1 UNK         0.0600 
    168 H168        1.5591  -14.8990  -39.7035 H         1 UNK         0.0600 
    169 H169       -0.6964  -14.5334  -40.6567 H         1 UNK         0.3000 
    170 H170       -3.2007  -15.2098  -43.0744 H         1 UNK         0.0600 
    171 H171       -4.4710  -15.1619  -40.9232 H         1 UNK         0.0600 
    172 H172       -3.4552  -13.8453  -40.3479 H         1 UNK         0.0600 
    173 H173       -4.5133  -13.6081  -41.7394 H         1 UNK         0.0600 
    174 H174       -2.2853  -12.7266  -42.3011 H         1 UNK         0.3000 
    175 H175       -0.3507  -12.1958  -44.8450 H         1 UNK         0.0600 
    176 H176       -0.8309  -11.1122  -42.0101 H         1 UNK         0.0600 
    177 H177       -0.3634  -10.1493  -43.4052 H         1 UNK         0.0600 
    178 H178       -1.9149  -10.9617  -43.3919 H         1 UNK         0.0600 
    179 H179        1.7757  -12.3611  -44.3828 H         1 UNK         0.3000 
    180 H180        3.7869  -11.6769  -41.9286 H         1 UNK         0.0600 
    181 H181        3.3835  -14.7006  -41.8106 H         1 UNK         0.0600 
    182 H182        3.6922  -13.6000  -40.4839 H         1 UNK         0.0600 
    183 H183        4.9630  -13.9275  -41.6487 H         1 UNK         0.0600 
    184 H184        4.0672  -13.6329  -44.1141 H         1 UNK         0.3000 
    185 H185        4.2899  -11.1739  -46.6220 H         1 UNK         0.0600 
    186 H186        6.6091  -10.9898  -45.6941 H         1 UNK         0.0600 
    187 H187        6.6696  -12.7362  -45.4880 H         1 UNK         0.0600 
    188 H188        6.5557  -12.0351  -47.1033 H         1 UNK         0.0600 
    189 H189        4.9163  -13.8475  -46.9245 H         1 UNK         0.3000 
    190 H190       -1.7105  -21.6043  -46.5560 H         1 UNK         0.3000 
    191 H191       -2.9515  -22.8343  -48.7708 H         1 UNK         0.0600 
    192 H192       -4.1053  -21.1806  -47.3586 H         1 UNK         0.0600 
    193 H193       -5.0187  -22.6768  -47.3894 H         1 UNK         0.0600 
    194 H194       -4.0518  -22.2694  -45.9758 H         1 UNK         0.0600 
    195 H195       -2.0876  -24.1358  -45.5463 H         1 UNK         0.3000 
    196 H196       -3.2235  -26.7447  -45.9692 H         1 UNK         0.0600 
    197 H197       -1.9034  -27.3544  -43.9598 H         1 UNK         0.0600 
    198 H198       -2.7500  -25.8354  -43.7043 H         1 UNK         0.0600 
    199 H199       -1.0212  -25.8363  -44.0408 H         1 UNK         0.0600 
    200 H200       -0.0024  -25.3296  -46.5576 H         1 UNK         0.3000 
    201 H201        1.3119  -27.7293  -47.3042 H         1 UNK         0.0600 
    202 H202        2.5013  -25.6778  -46.5606 H         1 UNK         0.0600 
    203 H203        1.9958  -24.8341  -48.0243 H         1 UNK         0.0600 
    204 H204        3.0841  -26.2090  -48.1305 H         1 UNK         0.0600 
    205 H205       -0.2607  -25.1952  -49.3603 H         1 UNK         0.3000 
    206 H206       -0.5302  -27.1290  -51.5588 H         1 UNK         0.0600 
    207 H207        1.7915  -26.3641  -51.9296 H         1 UNK         0.0600 
    208 H208        0.7567  -25.6906  -53.1745 H         1 UNK         0.0600 
    209 H209        1.2922  -24.6771  -51.8374 H         1 UNK         0.0600 
    210 H210       -0.9829  -23.7497  -50.4703 H         1 UNK         0.3000 
    211 H211       -2.4618  -22.1658  -50.9236 H         1 UNK         0.0600 
    212 H212       -4.4062  -24.2420  -52.0498 H         1 UNK         0.0600 
    213 H213       -4.7807  -22.6978  -51.3014 H         1 UNK         0.0600 
    214 H214       -4.1652  -24.0130  -50.3268 H         1 UNK         0.0600 
    215 H215       -0.6219  -23.1908  -53.1409 H         1 UNK         0.3000 
    216 H216       -1.9215  -22.9732  -55.6271 H         1 UNK         0.0600 
    217 H217        1.0538  -22.7865  -54.9124 H         1 UNK         0.0600 
    218 H218        0.1535  -24.2661  -55.2508 H         1 UNK         0.0600 
    219 H219        0.4146  -23.0873  -56.5239 H         1 UNK         0.0600 
    220 H220       -0.8548  -20.3936  -53.6148 H         1 UNK         0.3000 
    221 H221       -0.2015  -18.4756  -55.6874 H         1 UNK         0.0600 
    222 H222       -0.8355  -18.0667  -52.7249 H         1 UNK         0.0600 
    223 H223        0.7720  -18.4275  -53.3645 H         1 UNK         0.0600 
    224 H224       -0.0248  -16.9171  -53.7772 H         1 UNK         0.0600 
    225 H225       -3.2209  -19.6795  -54.5965 H         1 UNK         0.3000 
    226 H226       -4.7252  -17.3918  -55.6951 H         1 UNK         0.0600 
    227 H227       -5.0882  -18.5193  -52.8544 H         1 UNK         0.0600 
    228 H228       -4.4985  -16.9092  -53.2409 H         1 UNK         0.0600 
    229 H229       -6.1560  -17.3399  -53.6135 H         1 UNK         0.0600 
    230 H230       -7.1916  -18.0915  -55.4259 H         1 UNK         0.3000 
    231 H231       -7.5907  -20.6392  -56.7950 H         1 UNK         0.0600 
    232 H232       -8.8839  -18.6307  -57.4455 H         1 UNK         0.0600 
    233 H233       -9.5466  -18.4887  -55.8179 H         1 UNK         0.0600 
    234 H234       -9.9637  -19.8695  -56.8261 H         1 UNK         0.0600 
    235 H235       -6.4770  -21.6777  -54.8901 H         1 UNK         0.3000 
    236 H236       -6.3889  -23.0509  -53.1681 H         1 UNK         0.0600 
    237 H237       -8.3440  -24.4117  -52.5427 H         1 UNK         0.0600 
    238 H238       -9.4417  -23.2710  -53.3071 H         1 UNK         0.0600 
    239 H239       -8.3130  -24.2083  -54.2854 H         1 UNK         0.0600 
    240 H240       -6.8079  -20.1309  -52.7507 H         1 UNK         0.3000 
    241 H241       -6.9304  -18.5864  -51.1875 H         1 UNK         0.0600 
    242 H242      -10.6828  -19.3060  -50.9026 H         1 UNK         0.3800 
    243 H243       -9.5578  -19.9223  -52.0873 H         1 UNK         0.3800 
    244 H244       -6.4253  -19.1011  -48.7946 H         1 UNK         0.0800 
    245 H245       -6.5916  -20.8060  -49.1156 H         1 UNK         0.0800 
    246 H246       -4.4028  -17.6815  -49.2573 H         1 UNK         0.0800 
    247 H247       -3.8660  -18.8468  -48.0624 H         1 UNK         0.0800 
@<TRIPOS>BOND
     1    1    2 1    
     2    1  127 1    
     3    1  128 1    
     4    1  129 1    
     5    2    3 2    
     6    2    4 am   BACKBONE|DICT|INTERRES
     7    4    5 1    
     8    4  130 1    
     9    5    6 1    
    10    5   65 1    
    11    5  131 1    
    12    6    7 1    
    13    6  132 1    
    14    6  133 1    
    15    7    8 1    
    16    8    9 1    
    17    8  134 1    
    18    8  135 1    
    19    9   10 ar   
    20    9   14 ar   
    21   10   11 ar   
    22   10  136 1    
    23   11   12 ar   
    24   11  126 1    
    25   12   13 ar   
    26   12  137 1    
    27   13   14 ar   
    28   13   15 1    
    29   14  138 1    
    30   15   16 1    
    31   15  139 1    
    32   15  140 1    
    33   16   17 1    
    34   17   18 1    
    35   17  141 1    
    36   17  142 1    
    37   18   19 1    
    38   18   67 1    
    39   18  143 1    
    40   19   20 am   BACKBONE|DICT|INTERRES
    41   19  144 1    
    42   20   21 2    
    43   20   22 1    
    44   22   23 1    
    45   22   24 1    
    46   22  145 1    
    47   23  146 1    
    48   23  147 1    
    49   23  148 1    
    50   24   25 am   BACKBONE|DICT|INTERRES
    51   24  149 1    
    52   25   26 2    
    53   25   27 1    
    54   27   28 1    
    55   27   29 1    
    56   27  150 1    
    57   28  151 1    
    58   28  152 1    
    59   28  153 1    
    60   29   30 am   BACKBONE|DICT|INTERRES
    61   29  154 1    
    62   30   31 2    
    63   30   32 1    
    64   32   33 1    
    65   32   34 1    
    66   32  155 1    
    67   33  156 1    
    68   33  157 1    
    69   33  158 1    
    70   34   35 am   BACKBONE|DICT|INTERRES
    71   34  159 1    
    72   35   36 2    
    73   35   37 1    
    74   37   38 1    
    75   37   39 1    
    76   37  160 1    
    77   38  161 1    
    78   38  162 1    
    79   38  163 1    
    80   39   40 am   BACKBONE|DICT|INTERRES
    81   39  164 1    
    82   40   41 2    
    83   40   42 1    
    84   42   43 1    
    85   42   44 1    
    86   42  165 1    
    87   43  166 1    
    88   43  167 1    
    89   43  168 1    
    90   44   45 am   BACKBONE|DICT|INTERRES
    91   44  169 1    
    92   45   46 2    
    93   45   47 1    
    94   47   48 1    
    95   47   49 1    
    96   47  170 1    
    97   48  171 1    
    98   48  172 1    
    99   48  173 1    
   100   49   50 am   BACKBONE|DICT|INTERRES
   101   49  174 1    
   102   50   51 2    
   103   50   52 1    
   104   52   53 1    
   105   52   54 1    
   106   52  175 1    
   107   53  176 1    
   108   53  177 1    
   109   53  178 1    
   110   54   55 am   BACKBONE|DICT|INTERRES
   111   54  179 1    
   112   55   56 2    
   113   55   57 1    
   114   57   58 1    
   115   57   59 1    
   116   57  180 1    
   117   58  181 1    
   118   58  182 1    
   119   58  183 1    
   120   59   60 am   BACKBONE|DICT|INTERRES
   121   59  184 1    
   122   60   61 2    
   123   60   62 1    
   124   62   63 1    
   125   62   64 1    
   126   62  185 1    
   127   63  186 1    
   128   63  187 1    
   129   63  188 1    
   130   64   65 am   BACKBONE|DICT|INTERRES
   131   64  189 1    
   132   65   66 2    
   133   67   68 2    
   134   67   69 am   BACKBONE|DICT|INTERRES
   135   69   70 1    
   136   69  190 1    
   137   70   71 1    
   138   70   72 1    
   139   70  191 1    
   140   71  192 1    
   141   71  193 1    
   142   71  194 1    
   143   72   73 2    
   144   72   74 am   BACKBONE|DICT|INTERRES
   145   74   75 1    
   146   74  195 1    
   147   75   76 1    
   148   75   77 1    
   149   75  196 1    
   150   76  197 1    
   151   76  198 1    
   152   76  199 1    
   153   77   78 2    
   154   77   79 am   BACKBONE|DICT|INTERRES
   155   79   80 1    
   156   79  200 1    
   157   80   81 1    
   158   80   82 1    
   159   80  201 1    
   160   81  202 1    
   161   81  203 1    
   162   81  204 1    
   163   82   83 2    
   164   82   84 am   BACKBONE|DICT|INTERRES
   165   84   85 1    
   166   84  205 1    
   167   85   86 1    
   168   85   87 1    
   169   85  206 1    
   170   86  207 1    
   171   86  208 1    
   172   86  209 1    
   173   87   88 2    
   174   87   89 am   BACKBONE|DICT|INTERRES
   175   89   90 1    
   176   89  210 1    
   177   90   91 1    
   178   90   92 1    
   179   90  211 1    
   180   91  212 1    
   181   91  213 1    
   182   91  214 1    
   183   92   93 2    
   184   92   94 am   BACKBONE|DICT|INTERRES
   185   94   95 1    
   186   94  215 1    
   187   95   96 1    
   188   95   97 1    
   189   95  216 1    
   190   96  217 1    
   191   96  218 1    
   192   96  219 1    
   193   97   98 2    
   194   97   99 am   BACKBONE|DICT|INTERRES
   195   99  100 1    
   196   99  220 1    
   197  100  101 1    
   198  100  102 1    
   199  100  221 1    
   200  101  222 1    
   201  101  223 1    
   202  101  224 1    
   203  102  103 2    
   204  102  104 am   BACKBONE|DICT|INTERRES
   205  104  105 1    
   206  104  225 1    
   207  105  106 1    
   208  105  107 1    
   209  105  226 1    
   210  106  227 1    
   211  106  228 1    
   212  106  229 1    
   213  107  108 2    
   214  107  109 am   BACKBONE|DICT|INTERRES
   215  109  110 1    
   216  109  230 1    
   217  110  111 1    
   218  110  112 1    
   219  110  231 1    
   220  111  232 1    
   221  111  233 1    
   222  111  234 1    
   223  112  113 2    
   224  112  114 am   BACKBONE|DICT|INTERRES
   225  114  115 1    
   226  114  235 1    
   227  115  116 1    
   228  115  117 1    
   229  115  236 1    
   230  116  237 1    
   231  116  238 1    
   232  116  239 1    
   233  117  118 2    
   234  117  119 am   BACKBONE|DICT|INTERRES
   235  119  120 1    
   236  119  240 1    
   237  120  121 1    
   238  120  124 1    
   239  120  241 1    
   240  121  122 am   BACKBONE|DICT|INTERRES
   241  121  123 2    
   242  122  242 1    
   243  122  243 1    
   244  124  125 1    
   245  124  244 1    
   246  124  245 1    
   247  125  126 1    
   248  126  246 1    
   249  126  247 1    
@<TRIPOS>SUBSTRUCTURE
     1 UNK         1 GROUP             0       ****    0 ROOT    
