@<TRIPOS>MOLECULE
3R540
247   249    1
SMALL
USER_CHARGES


@<TRIPOS>ATOM
      1 CA          0.5189  -10.7333  -44.2027 C.3       0 UNK        -0.1800 
      2 C           0.7624  -10.9290  -45.6920 C.2       0 UNK         0.5000 
      3 O           1.6400  -10.2789  -46.2597 O.2       0 UNK        -0.5000 
      4 N          -0.0066  -11.8279  -46.3218 N.am      1 UNK        -0.5000 
      5 CA          0.0123  -12.1165  -47.7642 C.3       1 UNK         0.1400 
      6 C6         -1.1464  -13.0694  -48.1451 C.3       23 UNK        -0.0398 
      7 S7         -1.6150  -12.9866  -49.9059 S.3       23 UNK        -0.2404 
      8 C8         -2.3132  -14.6481  -50.1609 C.3       23 UNK        -0.0205 
      9 C9         -1.2635  -15.6551  -50.6091 C.ar      23 UNK        -0.0193 
     10 C10        -1.1080  -15.9396  -51.9685 C.ar      23 UNK        -0.1150 
     11 C11        -0.2103  -16.9216  -52.3982 C.ar      23 UNK        -0.0193 
     12 C12         0.5772  -17.5853  -51.4504 C.ar      23 UNK        -0.1150 
     13 C13         0.4194  -17.3233  -50.0881 C.ar      23 UNK        -0.0193 
     14 C14        -0.4962  -16.3529  -49.6724 C.ar      23 UNK        -0.1150 
     15 C15         1.1704  -18.1559  -49.0651 C.3       23 UNK        -0.0205 
     16 S16         0.0720  -19.4455  -48.4220 S.3       23 UNK        -0.2404 
     17 C17         1.1504  -20.9124  -48.4026 C.3       23 UNK        -0.0398 
     18 CA          0.6234  -22.0769  -47.5276 C.3       11 UNK         0.1400 
     19 N           0.6909  -21.7965  -46.0898 N.am      11 UNK        -0.5000 
     20 C           0.5746  -22.7485  -45.1520 C.2       10 UNK         0.5000 
     21 O           0.4126  -23.9416  -45.4102 O.2       10 UNK        -0.5000 
     22 CA          0.6140  -22.3038  -43.6817 C.3       10 UNK         0.1400 
     23 CB          2.0626  -22.0784  -43.2246 C.3       10 UNK        -0.1800 
     24 N          -0.1884  -21.1110  -43.4107 N.am      10 UNK        -0.5000 
     25 C          -1.5170  -21.0297  -43.5729 C.2       9 UNK         0.5000 
     26 O          -2.2102  -21.9492  -44.0085 O.2       9 UNK        -0.5000 
     27 CA         -2.1810  -19.6916  -43.2016 C.3       9 UNK         0.1400 
     28 CB         -2.3283  -19.5540  -41.6787 C.3       9 UNK        -0.1800 
     29 N          -1.4425  -18.5463  -43.7301 N.am      9 UNK        -0.5000 
     30 C          -1.3715  -18.2364  -45.0313 C.2       8 UNK         0.5000 
     31 O          -2.0037  -18.8320  -45.9024 O.2       8 UNK        -0.5000 
     32 CA         -0.4155  -17.0926  -45.4278 C.3       8 UNK         0.1400 
     33 CB         -1.1052  -15.7251  -45.3126 C.3       8 UNK        -0.1800 
     34 N           0.8201  -17.0805  -44.6430 N.am      8 UNK        -0.5000 
     35 C           1.7386  -18.0586  -44.6515 C.2       7 UNK         0.5000 
     36 O           1.6712  -19.0653  -45.3574 O.2       7 UNK        -0.5000 
     37 CA          2.9027  -17.9087  -43.6573 C.3       7 UNK         0.1400 
     38 CB          3.9849  -16.9679  -44.2079 C.3       7 UNK        -0.1800 
     39 N           2.4476  -17.4292  -42.3516 N.am      7 UNK        -0.5000 
     40 C           1.6889  -18.1449  -41.5084 C.2       6 UNK         0.5000 
     41 O           1.3224  -19.2974  -41.7296 O.2       6 UNK        -0.5000 
     42 CA          1.2184  -17.4365  -40.2260 C.3       6 UNK         0.1400 
     43 CB          2.3075  -17.4922  -39.1445 C.3       6 UNK        -0.1800 
     44 N           0.8418  -16.0436  -40.4656 N.am      6 UNK        -0.5000 
     45 C          -0.1862  -15.6531  -41.2333 C.2       5 UNK         0.5000 
     46 O          -0.9645  -16.4324  -41.7803 O.2       5 UNK        -0.5000 
     47 CA         -0.3318  -14.1393  -41.4719 C.3       5 UNK         0.1400 
     48 CB         -1.2226  -13.5025  -40.3956 C.3       5 UNK        -0.1800 
     49 N           0.9637  -13.4563  -41.5002 N.am      5 UNK        -0.5000 
     50 C           1.8759  -13.6182  -42.4656 C.2       4 UNK         0.5000 
     51 O           1.7021  -14.3181  -43.4689 O.2       4 UNK        -0.5000 
     52 CA          3.2178  -12.9114  -42.2537 C.3       4 UNK         0.1400 
     53 CB          4.2146  -13.8368  -41.5345 C.3       4 UNK        -0.1800 
     54 N           3.7388  -12.5294  -43.5566 N.am      4 UNK        -0.5000 
     55 C           4.5941  -11.5318  -43.8004 C.2       3 UNK         0.5000 
     56 O           5.0928  -10.8392  -42.9119 O.2       3 UNK        -0.5000 
     57 CA          4.9201  -11.2119  -45.2750 C.3       3 UNK         0.1400 
     58 CB          6.4392  -11.2087  -45.5433 C.3       3 UNK        -0.1800 
     59 N           4.1997  -12.0345  -46.2577 N.am      3 UNK        -0.5000 
     60 C           4.3705  -13.3330  -46.5499 C.2       2 UNK         0.5000 
     61 O           5.1882  -14.0617  -45.9889 O.2       2 UNK        -0.5000 
     62 CA          3.4293  -13.9032  -47.6262 C.3       2 UNK         0.1400 
     63 CB          3.4105  -15.4395  -47.6756 C.3       2 UNK        -0.1800 
     64 N           2.0677  -13.4127  -47.4093 N.am      2 UNK        -0.5000 
     65 C           1.3781  -12.6446  -48.2624 C.2       1 UNK         0.5000 
     66 O           1.7948  -12.3087  -49.3716 O.2       1 UNK        -0.5000 
     67 C          -0.7763  -22.5748  -47.9546 C.2       11 UNK         0.5000 
     68 O          -0.8641  -23.5234  -48.7333 O.2       11 UNK        -0.5000 
     69 N          -1.8346  -21.9743  -47.3887 N.am      12 UNK        -0.5000 
     70 CA         -3.2261  -22.3552  -47.6243 C.3       12 UNK         0.1400 
     71 CB         -4.1619  -21.2904  -47.0349 C.3       12 UNK        -0.1800 
     72 C          -3.5507  -23.7484  -47.0634 C.2       12 UNK         0.5000 
     73 O          -4.2528  -24.5154  -47.7211 O.2       12 UNK        -0.5000 
     74 N          -3.0030  -24.0702  -45.8830 N.am      13 UNK        -0.5000 
     75 CA         -3.0915  -25.3921  -45.2639 C.3       13 UNK         0.1400 
     76 CB         -2.5569  -25.3247  -43.8254 C.3       13 UNK        -0.1800 
     77 C          -2.3553  -26.4748  -46.0753 C.2       13 UNK         0.5000 
     78 O          -2.8790  -27.5798  -46.2188 O.2       13 UNK        -0.5000 
     79 N          -1.1737  -26.1336  -46.6099 N.am      14 UNK        -0.5000 
     80 CA         -0.3713  -27.0014  -47.4733 C.3       14 UNK         0.1400 
     81 CB          1.0359  -26.4073  -47.6388 C.3       14 UNK        -0.1800 
     82 C          -1.0288  -27.2503  -48.8438 C.2       14 UNK         0.5000 
     83 O          -1.0403  -28.3900  -49.3110 O.2       14 UNK        -0.5000 
     84 N          -1.5768  -26.1899  -49.4544 N.am      15 UNK        -0.5000 
     85 CA         -2.3198  -26.2466  -50.7157 C.3       15 UNK         0.1400 
     86 CB         -2.5216  -24.8193  -51.2498 C.3       15 UNK        -0.1800 
     87 C          -3.6775  -26.9614  -50.5810 C.2       15 UNK         0.5000 
     88 O          -4.1240  -27.5975  -51.5361 O.2       15 UNK        -0.5000 
     89 N          -4.3020  -26.8293  -49.4015 N.am      16 UNK        -0.5000 
     90 CA         -5.6167  -27.3441  -49.0050 C.3       16 UNK         0.1400 
     91 CB         -5.6508  -28.8856  -49.0546 C.3       16 UNK        -0.1800 
     92 C          -6.7911  -26.6902  -49.7659 C.2       16 UNK         0.5000 
     93 O          -7.8936  -27.2406  -49.7797 O.2       16 UNK        -0.5000 
     94 N          -6.5456  -25.5205  -50.3664 N.am      17 UNK        -0.5000 
     95 CA         -7.4852  -24.7233  -51.1433 C.3       17 UNK         0.1400 
     96 CB         -7.7777  -25.4034  -52.4957 C.3       17 UNK        -0.1800 
     97 C          -6.8698  -23.3368  -51.3700 C.2       17 UNK         0.5000 
     98 O          -5.6450  -23.1959  -51.3336 O.2       17 UNK        -0.5000 
     99 N          -7.7274  -22.3519  -51.6586 N.am      18 UNK        -0.5000 
    100 CA        -7.3559  -20.9731  -51.9966 C.3       18 UNK         0.1400 
    101 CB        -8.4261  -20.0238  -51.4301 C.3       18 UNK        -0.1800 
    102 C         -7.1596  -20.7682  -53.5165 C.2       18 UNK         0.5000 
    103 O         -7.2145  -19.6326  -53.9927 O.2       18 UNK        -0.5000 
    104 N         -6.9553  -21.8662  -54.2596 N.am      19 UNK        -0.5000 
    105 CA        -6.7064  -21.8951  -55.7008 C.3       19 UNK         0.1400 
    106 CB        -6.5909  -23.3572  -56.1569 C.3       19 UNK        -0.1800 
    107 C         -5.4388  -21.1067  -56.0755 C.2       19 UNK         0.5000 
    108 O         -4.4067  -21.2732  -55.4203 O.2       19 UNK        -0.5000 
    109 N         -5.5576  -20.2426  -57.0948 N.am      20 UNK        -0.5000 
    110 CA        -4.5353  -19.2967  -57.5678 C.3       20 UNK         0.1400 
    111 CB        -3.3682  -20.0522  -58.2376 C.3       20 UNK        -0.1800 
    112 C         -4.0602  -18.3203  -56.4667 C.2       20 UNK         0.5000 
    113 O         -2.8902  -17.9375  -56.4431 O.2       20 UNK        -0.5000 
    114 N         -4.9714  -17.9867  -55.5397 N.am      21 UNK        -0.5000 
    115 CA        -4.8028  -17.2284  -54.2930 C.3       21 UNK         0.1400 
    116 CB        -4.2453  -15.8144  -54.5484 C.3       21 UNK        -0.1800 
    117 C         -3.9954  -17.9638  -53.2031 C.2       21 UNK         0.5000 
    118 O         -4.2870  -17.7736  -52.0221 O.2       21 UNK        -0.5000 
    119 N         -3.0118  -18.7788  -53.6021 N.am      22 UNK        -0.5000 
    120 CA        -2.1559  -19.5698  -52.7101 C.3       22 UNK         0.1400 
    121 C         -2.9120  -20.7167  -51.9830 C.2       22 UNK         0.5000 
    122 N         -3.8328  -21.4115  -52.6377 N.am      22 UNK        -0.7600 
    123 O         -2.6591  -20.9758  -50.8122 O.2       22 UNK        -0.5000 
    124 C124       -0.9126  -20.1412  -53.4442 C.3       23 UNK        -0.0398 
    125 S125        0.2805  -19.0117  -54.2724 S.3       23 UNK        -0.2404 
    126 C126       -0.1614  -17.2764  -53.8825 C.3       23 UNK        -0.0205 
    127 H127        1.4656  -10.7028  -43.6645 H         1 UNK         0.0600 
    128 H128       -0.0866  -11.5368  -43.7827 H         1 UNK         0.0600 
    129 H129        0.0018   -9.7895  -44.0308 H         1 UNK         0.0600 
    130 H130       -0.7078  -12.3203  -45.7876 H         1 UNK         0.3000 
    131 H131       -0.1591  -11.1605  -48.2640 H         1 UNK         0.0600 
    132 H132       -0.9077  -14.0937  -47.8636 H         1 UNK         0.0800 
    133 H133       -2.0428  -12.8093  -47.5802 H         1 UNK         0.0800 
    134 H134       -2.8048  -14.9949  -49.2506 H         1 UNK         0.0800 
    135 H135       -3.1006  -14.5799  -50.9134 H         1 UNK         0.0800 
    136 H136       -1.7211  -15.4223  -52.6930 H         1 UNK         0.1150 
    137 H137        1.2718  -18.3513  -51.7630 H         1 UNK         0.1150 
    138 H138       -0.6392  -16.1789  -48.6169 H         1 UNK         0.1150 
    139 H139        2.0641  -18.5954  -49.5103 H         1 UNK         0.0800 
    140 H140        1.5029  -17.5388  -48.2320 H         1 UNK         0.0800 
    141 H141        2.1415  -20.6166  -48.0558 H         1 UNK         0.0800 
    142 H142        1.2783  -21.2500  -49.4324 H         1 UNK         0.0800 
    143 H143        1.3054  -22.9118  -47.7039 H         1 UNK         0.0600 
    144 H144        0.8432  -20.8301  -45.8136 H         1 UNK         0.3000 
    145 H145        0.1978  -23.1175  -43.0843 H         1 UNK         0.0600 
    146 H146        2.1119  -21.8826  -42.1535 H         1 UNK         0.0600 
    147 H147        2.6766  -22.9582  -43.4209 H         1 UNK         0.0600 
    148 H148        2.5209  -21.2354  -43.7420 H         1 UNK         0.0600 
    149 H149        0.3056  -20.3216  -43.0044 H         1 UNK         0.3000 
    150 H150       -3.1820  -19.6837  -43.6381 H         1 UNK         0.0600 
    151 H151       -2.8940  -20.3894  -41.2645 H         1 UNK         0.0600 
    152 H152       -2.8593  -18.6387  -41.4165 H         1 UNK         0.0600 
    153 H153       -1.3602  -19.5319  -41.1780 H         1 UNK         0.0600 
    154 H154       -0.9650  -17.9552  -43.0575 H         1 UNK         0.3000 
    155 H155       -0.1383  -17.2397  -46.4713 H         1 UNK         0.0600 
    156 H156       -1.4612  -15.5376  -44.2999 H         1 UNK         0.0600 
    157 H157       -0.4259  -14.9169  -45.5824 H         1 UNK         0.0600 
    158 H158       -1.9673  -15.6686  -45.9781 H         1 UNK         0.0600 
    159 H159        0.9747  -16.2763  -44.0470 H         1 UNK         0.3000 
    160 H160        3.3524  -18.8941  -43.5194 H         1 UNK         0.0600 
    161 H161        3.6108  -15.9544  -44.3526 H         1 UNK         0.0600 
    162 H162        4.3534  -17.3200  -45.1722 H         1 UNK         0.0600 
    163 H163        4.8409  -16.9147  -43.5354 H         1 UNK         0.0600 
    164 H164        2.6731  -16.4762  -42.1124 H         1 UNK         0.3000 
    165 H165        0.3386  -17.9667  -39.8551 H         1 UNK         0.0600 
    166 H166        1.9553  -17.0595  -38.2080 H         1 UNK         0.0600 
    167 H167        2.5969  -18.5232  -38.9361 H         1 UNK         0.0600 
    168 H168        3.2064  -16.9534  -39.4468 H         1 UNK         0.0600 
    169 H169        1.4231  -15.3352  -40.0441 H         1 UNK         0.3000 
    170 H170       -0.8144  -13.9992  -42.4414 H         1 UNK         0.0600 
    171 H171       -2.2027  -13.9807  -40.3682 H         1 UNK         0.0600 
    172 H172       -0.7842  -13.5946  -39.4012 H         1 UNK         0.0600 
    173 H173       -1.3848  -12.4430  -40.5951 H         1 UNK         0.0600 
    174 H174        1.1759  -12.8600  -40.7129 H         1 UNK         0.3000 
    175 H175        3.0502  -12.0142  -41.6539 H         1 UNK         0.0600 
    176 H176        4.4302  -14.7296  -42.1222 H         1 UNK         0.0600 
    177 H177        5.1600  -13.3274  -41.3475 H         1 UNK         0.0600 
    178 H178        3.8262  -14.1611  -40.5684 H         1 UNK         0.0600 
    179 H179        3.3642  -13.0600  -44.3309 H         1 UNK         0.3000 
    180 H180        4.5622  -10.1942  -45.4377 H         1 UNK         0.0600 
    181 H181        6.8951  -12.1740  -45.3222 H         1 UNK         0.0600 
    182 H182        6.9422  -10.4658  -44.9233 H         1 UNK         0.0600 
    183 H183        6.6567  -10.9627  -46.5825 H         1 UNK         0.0600 
    184 H184        3.4529  -11.5450  -46.7369 H         1 UNK         0.3000 
    185 H185        3.8231  -13.5492  -48.5809 H         1 UNK         0.0600 
    186 H186        4.4174  -15.8533  -47.7421 H         1 UNK         0.0600 
    187 H187        2.9283  -15.8679  -46.7969 H         1 UNK         0.0600 
    188 H188        2.8708  -15.7755  -48.5596 H         1 UNK         0.0600 
    189 H189        1.6635  -13.6044  -46.5035 H         1 UNK         0.3000 
    190 H190       -1.6753  -21.1898  -46.7702 H         1 UNK         0.3000 
    191 H191       -3.3894  -22.3907  -48.7028 H         1 UNK         0.0600 
    192 H192       -4.0261  -21.1833  -45.9583 H         1 UNK         0.0600 
    193 H193       -5.2067  -21.5474  -47.2135 H         1 UNK         0.0600 
    194 H194       -3.9828  -20.3172  -47.4927 H         1 UNK         0.0600 
    195 H195       -2.4872  -23.3592  -45.3729 H         1 UNK         0.3000 
    196 H196       -4.1466  -25.6702  -45.2199 H         1 UNK         0.0600 
    197 H197       -2.6368  -26.2947  -43.3333 H         1 UNK         0.0600 
    198 H198       -3.1223  -24.6088  -43.2286 H         1 UNK         0.0600 
    199 H199       -1.5085  -25.0272  -43.7975 H         1 UNK         0.0600 
    200 H200       -0.7847  -25.2212  -46.3932 H         1 UNK         0.3000 
    201 H201       -0.2700  -27.9675  -46.9744 H         1 UNK         0.0600 
    202 H202        1.5323  -26.2966  -46.6746 H         1 UNK         0.0600 
    203 H203        1.0075  -25.4266  -48.1137 H         1 UNK         0.0600 
    204 H204        1.6622  -27.0530  -48.2555 H         1 UNK         0.0600 
    205 H205       -1.4573  -25.2677  -49.0404 H         1 UNK         0.3000 
    206 H206       -1.7212  -26.8017  -51.4407 H         1 UNK         0.0600 
    207 H207       -1.5668  -24.3280  -51.4376 H         1 UNK         0.0600 
    208 H208       -3.0761  -24.8232  -52.1891 H         1 UNK         0.0600 
    209 H209       -3.0784  -24.2004  -50.5446 H         1 UNK         0.0600 
    210 H210       -3.8789  -26.2082  -48.7192 H         1 UNK         0.3000 
    211 H211       -5.7408  -27.0506  -47.9617 H         1 UNK         0.0600 
    212 H212       -5.6177  -29.2606  -50.0777 H         1 UNK         0.0600 
    213 H213       -6.5620  -29.2714  -48.5963 H         1 UNK         0.0600 
    214 H214       -4.8089  -29.3146  -48.5108 H         1 UNK         0.0600 
    215 H215       -5.6258  -25.1049  -50.2791 H         1 UNK         0.3000 
    216 H216       -8.4100  -24.6103  -50.5740 H         1 UNK         0.0600 
    217 H217       -6.8637  -25.5583  -53.0708 H         1 UNK         0.0600 
    218 H218       -8.4518  -24.7998  -53.1046 H         1 UNK         0.0600 
    219 H219       -8.2540  -26.3744  -52.3612 H         1 UNK         0.0600 
    220 H220       -8.7149  -22.5623  -51.6977 H         1 UNK         0.3000 
    221 H221       -6.4068  -20.7234  -51.5177 H         1 UNK         0.0600 
    222 H222       -8.5493  -20.1656  -50.3563 H         1 UNK         0.0600 
    223 H223       -9.3956  -20.1818  -51.9040 H         1 UNK         0.0600 
    224 H224       -8.1490  -18.9803  -51.5856 H         1 UNK         0.0600 
    225 H225       -6.8955  -22.7503  -53.7793 H         1 UNK         0.3000 
    226 H226       -7.5686  -21.4435  -56.1954 H         1 UNK         0.0600 
    227 H227       -7.5022  -23.9136  -55.9367 H         1 UNK         0.0600 
    228 H228       -6.4247  -23.4185  -57.2332 H         1 UNK         0.0600 
    229 H229       -5.7598  -23.8664  -55.6667 H         1 UNK         0.0600 
    230 H230       -6.4512  -20.1777  -57.5629 H         1 UNK         0.3000 
    231 H231       -5.0126  -18.6815  -58.3318 H         1 UNK         0.0600 
    232 H232       -2.7983  -20.6392  -57.5165 H         1 UNK         0.0600 
    233 H233       -2.6746  -19.3584  -58.7141 H         1 UNK         0.0600 
    234 H234       -3.7292  -20.7299  -59.0111 H         1 UNK         0.0600 
    235 H235       -5.8810  -18.4213  -55.6263 H         1 UNK         0.3000 
    236 H236       -5.8113  -17.1099  -53.8935 H         1 UNK         0.0600 
    237 H237       -4.2448  -15.2281  -53.6287 H         1 UNK         0.0600 
    238 H238       -3.2199  -15.8364  -54.9163 H         1 UNK         0.0600 
    239 H239       -4.8525  -15.2767  -55.2764 H         1 UNK         0.0600 
    240 H240       -2.8228  -18.8486  -54.5942 H         1 UNK         0.3000 
    241 H241       -1.8138  -18.9101  -51.9148 H         1 UNK         0.0600 
    242 H242       -4.3414  -22.1381  -52.1418 H         1 UNK         0.3800 
    243 H243       -4.0105  -21.2537  -53.6272 H         1 UNK         0.3800 
    244 H244       -1.2423  -20.8546  -54.2018 H         1 UNK         0.0800 
    245 H245       -0.3214  -20.7261  -52.7369 H         1 UNK         0.0800 
    246 H246       -1.1114  -17.0441  -54.3636 H         1 UNK         0.0800 
    247 H247        0.5762  -16.6279  -54.3561 H         1 UNK         0.0800 
@<TRIPOS>BOND
     1    1    2 1    
     2    1  127 1    
     3    1  128 1    
     4    1  129 1    
     5    2    3 2    
     6    2    4 am   BACKBONE|DICT|INTERRES
     7    4    5 1    
     8    4  130 1    
     9    5    6 1    
    10    5   65 1    
    11    5  131 1    
    12    6    7 1    
    13    6  132 1    
    14    6  133 1    
    15    7    8 1    
    16    8    9 1    
    17    8  134 1    
    18    8  135 1    
    19    9   10 ar   
    20    9   14 ar   
    21   10   11 ar   
    22   10  136 1    
    23   11   12 ar   
    24   11  126 1    
    25   12   13 ar   
    26   12  137 1    
    27   13   14 ar   
    28   13   15 1    
    29   14  138 1    
    30   15   16 1    
    31   15  139 1    
    32   15  140 1    
    33   16   17 1    
    34   17   18 1    
    35   17  141 1    
    36   17  142 1    
    37   18   19 1    
    38   18   67 1    
    39   18  143 1    
    40   19   20 am   BACKBONE|DICT|INTERRES
    41   19  144 1    
    42   20   21 2    
    43   20   22 1    
    44   22   23 1    
    45   22   24 1    
    46   22  145 1    
    47   23  146 1    
    48   23  147 1    
    49   23  148 1    
    50   24   25 am   BACKBONE|DICT|INTERRES
    51   24  149 1    
    52   25   26 2    
    53   25   27 1    
    54   27   28 1    
    55   27   29 1    
    56   27  150 1    
    57   28  151 1    
    58   28  152 1    
    59   28  153 1    
    60   29   30 am   BACKBONE|DICT|INTERRES
    61   29  154 1    
    62   30   31 2    
    63   30   32 1    
    64   32   33 1    
    65   32   34 1    
    66   32  155 1    
    67   33  156 1    
    68   33  157 1    
    69   33  158 1    
    70   34   35 am   BACKBONE|DICT|INTERRES
    71   34  159 1    
    72   35   36 2    
    73   35   37 1    
    74   37   38 1    
    75   37   39 1    
    76   37  160 1    
    77   38  161 1    
    78   38  162 1    
    79   38  163 1    
    80   39   40 am   BACKBONE|DICT|INTERRES
    81   39  164 1    
    82   40   41 2    
    83   40   42 1    
    84   42   43 1    
    85   42   44 1    
    86   42  165 1    
    87   43  166 1    
    88   43  167 1    
    89   43  168 1    
    90   44   45 am   BACKBONE|DICT|INTERRES
    91   44  169 1    
    92   45   46 2    
    93   45   47 1    
    94   47   48 1    
    95   47   49 1    
    96   47  170 1    
    97   48  171 1    
    98   48  172 1    
    99   48  173 1    
   100   49   50 am   BACKBONE|DICT|INTERRES
   101   49  174 1    
   102   50   51 2    
   103   50   52 1    
   104   52   53 1    
   105   52   54 1    
   106   52  175 1    
   107   53  176 1    
   108   53  177 1    
   109   53  178 1    
   110   54   55 am   BACKBONE|DICT|INTERRES
   111   54  179 1    
   112   55   56 2    
   113   55   57 1    
   114   57   58 1    
   115   57   59 1    
   116   57  180 1    
   117   58  181 1    
   118   58  182 1    
   119   58  183 1    
   120   59   60 am   BACKBONE|DICT|INTERRES
   121   59  184 1    
   122   60   61 2    
   123   60   62 1    
   124   62   63 1    
   125   62   64 1    
   126   62  185 1    
   127   63  186 1    
   128   63  187 1    
   129   63  188 1    
   130   64   65 am   BACKBONE|DICT|INTERRES
   131   64  189 1    
   132   65   66 2    
   133   67   68 2    
   134   67   69 am   BACKBONE|DICT|INTERRES
   135   69   70 1    
   136   69  190 1    
   137   70   71 1    
   138   70   72 1    
   139   70  191 1    
   140   71  192 1    
   141   71  193 1    
   142   71  194 1    
   143   72   73 2    
   144   72   74 am   BACKBONE|DICT|INTERRES
   145   74   75 1    
   146   74  195 1    
   147   75   76 1    
   148   75   77 1    
   149   75  196 1    
   150   76  197 1    
   151   76  198 1    
   152   76  199 1    
   153   77   78 2    
   154   77   79 am   BACKBONE|DICT|INTERRES
   155   79   80 1    
   156   79  200 1    
   157   80   81 1    
   158   80   82 1    
   159   80  201 1    
   160   81  202 1    
   161   81  203 1    
   162   81  204 1    
   163   82   83 2    
   164   82   84 am   BACKBONE|DICT|INTERRES
   165   84   85 1    
   166   84  205 1    
   167   85   86 1    
   168   85   87 1    
   169   85  206 1    
   170   86  207 1    
   171   86  208 1    
   172   86  209 1    
   173   87   88 2    
   174   87   89 am   BACKBONE|DICT|INTERRES
   175   89   90 1    
   176   89  210 1    
   177   90   91 1    
   178   90   92 1    
   179   90  211 1    
   180   91  212 1    
   181   91  213 1    
   182   91  214 1    
   183   92   93 2    
   184   92   94 am   BACKBONE|DICT|INTERRES
   185   94   95 1    
   186   94  215 1    
   187   95   96 1    
   188   95   97 1    
   189   95  216 1    
   190   96  217 1    
   191   96  218 1    
   192   96  219 1    
   193   97   98 2    
   194   97   99 am   BACKBONE|DICT|INTERRES
   195   99  100 1    
   196   99  220 1    
   197  100  101 1    
   198  100  102 1    
   199  100  221 1    
   200  101  222 1    
   201  101  223 1    
   202  101  224 1    
   203  102  103 2    
   204  102  104 am   BACKBONE|DICT|INTERRES
   205  104  105 1    
   206  104  225 1    
   207  105  106 1    
   208  105  107 1    
   209  105  226 1    
   210  106  227 1    
   211  106  228 1    
   212  106  229 1    
   213  107  108 2    
   214  107  109 am   BACKBONE|DICT|INTERRES
   215  109  110 1    
   216  109  230 1    
   217  110  111 1    
   218  110  112 1    
   219  110  231 1    
   220  111  232 1    
   221  111  233 1    
   222  111  234 1    
   223  112  113 2    
   224  112  114 am   BACKBONE|DICT|INTERRES
   225  114  115 1    
   226  114  235 1    
   227  115  116 1    
   228  115  117 1    
   229  115  236 1    
   230  116  237 1    
   231  116  238 1    
   232  116  239 1    
   233  117  118 2    
   234  117  119 am   BACKBONE|DICT|INTERRES
   235  119  120 1    
   236  119  240 1    
   237  120  121 1    
   238  120  124 1    
   239  120  241 1    
   240  121  122 am   BACKBONE|DICT|INTERRES
   241  121  123 2    
   242  122  242 1    
   243  122  243 1    
   244  124  125 1    
   245  124  244 1    
   246  124  245 1    
   247  125  126 1    
   248  126  246 1    
   249  126  247 1    
@<TRIPOS>SUBSTRUCTURE
     1 UNK         1 GROUP             0       ****    0 ROOT    
