@<TRIPOS>MOLECULE
3R540
247   249    1
SMALL
USER_CHARGES


@<TRIPOS>ATOM
      1 CA         -5.6936  -16.2161  -44.5880 C.3       0 UNK        -0.1800 
      2 C          -5.3608  -14.7580  -44.8739 C.2       0 UNK         0.5000 
      3 O          -5.9196  -13.8623  -44.2418 O.2       0 UNK        -0.5000 
      4 N          -4.4430  -14.5207  -45.8189 N.am      1 UNK        -0.5000 
      5 CA         -3.9919  -13.1915  -46.2556 C.3       1 UNK         0.1400 
      6 C6         -3.3379  -13.2522  -47.6596 C.3       23 UNK        -0.0398 
      7 S7         -4.5207  -13.7238  -48.9697 S.3       23 UNK        -0.2404 
      8 C8         -3.9813  -15.4037  -49.4319 C.3       23 UNK        -0.0205 
      9 C9         -2.5479  -15.4472  -49.9460 C.ar      23 UNK        -0.0193 
     10 C10        -2.1803  -14.7422  -51.0953 C.ar      23 UNK        -0.1150 
     11 C11        -0.8600  -14.7691  -51.5546 C.ar      23 UNK        -0.0193 
     12 C12         0.0928  -15.5298  -50.8687 C.ar      23 UNK        -0.1150 
     13 C13        -0.2641  -16.2438  -49.7207 C.ar      23 UNK        -0.0193 
     14 C14        -1.5842  -16.1939  -49.2654 C.ar      23 UNK        -0.1150 
     15 C15         0.7818  -17.0277  -48.9412 C.3       23 UNK        -0.0205 
     16 S16         0.8737  -18.7762  -49.4365 S.3       23 UNK        -0.2404 
     17 C17        -0.7096  -19.4192  -48.8024 C.3       23 UNK        -0.0398 
     18 CA         -0.6470  -20.9319  -48.4724 C.3       11 UNK         0.1400 
     19 N           0.0966  -21.1960  -47.2418 N.am      11 UNK        -0.5000 
     20 C           0.8589  -22.2750  -47.0218 C.2       10 UNK         0.5000 
     21 O           1.0751  -23.1421  -47.8678 O.2       10 UNK        -0.5000 
     22 CA          1.4814  -22.4248  -45.6172 C.3       10 UNK         0.1400 
     23 CB          2.9854  -22.1188  -45.6362 C.3       10 UNK        -0.1800 
     24 N           0.8314  -21.5863  -44.6072 N.am      10 UNK        -0.5000 
     25 C          -0.3769  -21.8583  -44.0956 C.2       9 UNK         0.5000 
     26 O          -1.0430  -22.8401  -44.4173 O.2       9 UNK        -0.5000 
     27 CA         -0.9743  -20.8400  -43.1102 C.3       9 UNK         0.1400 
     28 CB         -0.5700  -21.1880  -41.6717 C.3       9 UNK        -0.1800 
     29 N          -0.6166  -19.4552  -43.4274 N.am      9 UNK        -0.5000 
     30 C          -1.0104  -18.8270  -44.5460 C.2       8 UNK         0.5000 
     31 O          -1.6841  -19.3842  -45.4147 O.2       8 UNK        -0.5000 
     32 CA         -0.5560  -17.3734  -44.7905 C.3       8 UNK         0.1400 
     33 CB         -1.7054  -16.4939  -45.3236 C.3       8 UNK        -0.1800 
     34 N           0.1331  -16.7421  -43.6628 N.am      8 UNK        -0.5000 
     35 C          -0.3585  -16.3957  -42.4648 C.2       7 UNK         0.5000 
     36 O          -1.5493  -16.4622  -42.1600 O.2       7 UNK        -0.5000 
     37 CA          0.6901  -15.9178  -41.4356 C.3       7 UNK         0.1400 
     38 CB          0.1712  -15.9499  -39.9828 C.3       7 UNK        -0.1800 
     39 N           1.9636  -16.6458  -41.5664 N.am      7 UNK        -0.5000 
     40 C           2.1394  -17.9667  -41.4062 C.2       6 UNK         0.5000 
     41 O           1.2368  -18.7296  -41.0666 O.2       6 UNK        -0.5000 
     42 CA          3.5389  -18.5263  -41.7334 C.3       6 UNK         0.1400 
     43 CB          3.6136  -20.0640  -41.6141 C.3       6 UNK        -0.1800 
     44 N           4.0279  -18.0940  -43.0466 N.am      6 UNK        -0.5000 
     45 C           3.4762  -18.3194  -44.2472 C.2       5 UNK         0.5000 
     46 O           2.4128  -18.9232  -44.4108 O.2       5 UNK        -0.5000 
     47 CA          4.2432  -17.7447  -45.4618 C.3       5 UNK         0.1400 
     48 CB          3.5716  -18.0912  -46.8016 C.3       5 UNK        -0.1800 
     49 N           4.3771  -16.2891  -45.3927 N.am      5 UNK        -0.5000 
     50 C           5.1738  -15.5909  -44.5724 C.2       4 UNK         0.5000 
     51 O           5.9697  -16.1155  -43.7919 O.2       4 UNK        -0.5000 
     52 CA          5.0411  -14.0520  -44.6016 C.3       4 UNK         0.1400 
     53 CB          6.2324  -13.4271  -45.3439 C.3       4 UNK        -0.1800 
     54 N           3.7955  -13.5506  -45.1985 N.am      4 UNK        -0.5000 
     55 C           2.5609  -13.8039  -44.7445 C.2       3 UNK         0.5000 
     56 O           2.3299  -14.5371  -43.7814 O.2       3 UNK        -0.5000 
     57 CA          1.4004  -13.1960  -45.5542 C.3       3 UNK         0.1400 
     58 CB          1.2286  -13.9500  -46.8832 C.3       3 UNK        -0.1800 
     59 N           0.1287  -13.2580  -44.8376 N.am      3 UNK        -0.5000 
     60 C          -0.2161  -12.5209  -43.7743 C.2       2 UNK         0.5000 
     61 O           0.5101  -11.6606  -43.2736 O.2       2 UNK        -0.5000 
     62 CA         -1.6186  -12.8041  -43.1877 C.3       2 UNK         0.1400 
     63 CB         -2.1662  -11.6396  -42.3365 C.3       2 UNK        -0.1800 
     64 N          -2.5937  -13.2241  -44.2065 N.am      2 UNK        -0.5000 
     65 C          -3.0364  -12.5025  -45.2507 C.2       1 UNK         0.5000 
     66 O          -2.7006  -11.3363  -45.4598 O.2       1 UNK        -0.5000 
     67 C          -2.0700  -21.5107  -48.3709 C.2       11 UNK         0.5000 
     68 O          -2.4829  -22.2589  -49.2585 O.2       11 UNK        -0.5000 
     69 N          -2.8046  -21.1106  -47.3243 N.am      12 UNK        -0.5000 
     70 CA         -4.2406  -21.3383  -47.1908 C.3       12 UNK         0.1400 
     71 CB         -4.8939  -20.0736  -46.6058 C.3       12 UNK        -0.1800 
     72 C          -4.5620  -22.5724  -46.3359 C.2       12 UNK         0.5000 
     73 O          -5.2129  -23.4948  -46.8279 O.2       12 UNK        -0.5000 
     74 N          -4.1271  -22.5631  -45.0673 N.am      13 UNK        -0.5000 
     75 CA         -4.4868  -23.5752  -44.0654 C.3       13 UNK         0.1400 
     76 CB         -4.0332  -23.1202  -42.6702 C.3       13 UNK        -0.1800 
     77 C          -3.9470  -24.9804  -44.3859 C.2       13 UNK         0.5000 
     78 O          -4.6173  -25.9718  -44.0926 O.2       13 UNK        -0.5000 
     79 N          -2.7737  -25.0410  -45.0265 N.am      14 UNK        -0.5000 
     80 CA         -2.1246  -26.2425  -45.5502 C.3       14 UNK         0.1400 
     81 CB         -0.6396  -25.9219  -45.7995 C.3       14 UNK        -0.1800 
     82 C          -2.8302  -26.7957  -46.8099 C.2       14 UNK         0.5000 
     83 O          -2.2004  -26.9398  -47.8574 O.2       14 UNK        -0.5000 
     84 N          -4.1335  -27.0828  -46.6857 N.am      15 UNK        -0.5000 
     85 CA         -5.0255  -27.6790  -47.6873 C.3       15 UNK         0.1400 
     86 CB         -4.6583  -29.1620  -47.9041 C.3       15 UNK        -0.1800 
     87 C          -5.1112  -26.8863  -49.0112 C.2       15 UNK         0.5000 
     88 O          -5.2478  -27.4897  -50.0773 O.2       15 UNK        -0.5000 
     89 N          -5.0323  -25.5496  -48.9169 N.am      16 UNK        -0.5000 
     90 CA         -5.0549  -24.5827  -50.0192 C.3       16 UNK         0.1400 
     91 CB         -6.4569  -24.5200  -50.6600 C.3       16 UNK        -0.1800 
     92 C          -3.9275  -24.8033  -51.0503 C.2       16 UNK         0.5000 
     93 O          -4.1620  -24.6853  -52.2545 O.2       16 UNK        -0.5000 
     94 N          -2.7161  -25.1039  -50.5580 N.am      17 UNK        -0.5000 
     95 CA         -1.5004  -25.3583  -51.3399 C.3       17 UNK         0.1400 
     96 CB         -0.3356  -25.6467  -50.3808 C.3       17 UNK        -0.1800 
     97 C          -1.1069  -24.2388  -52.3255 C.2       17 UNK         0.5000 
     98 O          -0.4772  -24.5302  -53.3431 O.2       17 UNK        -0.5000 
     99 N          -1.4998  -22.9915  -52.0307 N.am      18 UNK        -0.5000 
    100 CA        -1.3233  -21.8396  -52.9175 C.3       18 UNK         0.1400 
    101 CB        -1.5285  -20.5490  -52.1149 C.3       18 UNK        -0.1800 
    102 C         -2.2381  -21.8424  -54.1583 C.2       18 UNK         0.5000 
    103 O         -1.9948  -21.0492  -55.0707 O.2       18 UNK        -0.5000 
    104 N         -3.2862  -22.6830  -54.1596 N.am      19 UNK        -0.5000 
    105 CA        -4.2704  -22.8887  -55.2321 C.3       19 UNK         0.1400 
    106 CB        -3.5946  -23.5547  -56.4485 C.3       19 UNK        -0.1800 
    107 C         -5.0568  -21.6166  -55.6213 C.2       19 UNK         0.5000 
    108 O         -5.5342  -21.5135  -56.7523 O.2       19 UNK        -0.5000 
    109 N         -5.1457  -20.6593  -54.6832 N.am      20 UNK        -0.5000 
    110 CA        -5.6695  -19.2954  -54.8416 C.3       20 UNK         0.1400 
    111 CB        -7.1844  -19.3157  -55.1349 C.3       20 UNK        -0.1800 
    112 C         -4.8753  -18.4396  -55.8582 C.2       20 UNK         0.5000 
    113 O         -5.3988  -17.4419  -56.3566 O.2       20 UNK        -0.5000 
    114 N         -3.6263  -18.8357  -56.1381 N.am      21 UNK        -0.5000 
    115 CA        -2.7233  -18.2160  -57.1082 C.3       21 UNK         0.1400 
    116 CB        -2.5061  -19.2080  -58.2651 C.3       21 UNK        -0.1800 
    117 C         -1.3877  -17.8032  -56.4586 C.2       21 UNK         0.5000 
    118 O         -0.4300  -17.5172  -57.1788 O.2       21 UNK        -0.5000 
    119 N         -1.3421  -17.7856  -55.1180 N.am      22 UNK        -0.5000 
    120 CA        -0.1686  -17.4617  -54.2829 C.3       22 UNK         0.1400 
    121 C          0.9736  -18.5243  -54.3409 C.2       22 UNK         0.5000 
    122 N          0.7305  -19.7343  -54.8313 N.am      22 UNK        -0.7600 
    123 O          2.0955  -18.2603  -53.9172 O.2       22 UNK        -0.5000 
    124 C124        0.3657  -16.0161  -54.4991 C.3       23 UNK        -0.0398 
    125 S125       -0.9236  -14.7323  -54.3326 S.3       23 UNK        -0.2404 
    126 C126       -0.4628  -13.9356  -52.7636 C.3       23 UNK        -0.0205 
    127 H127       -5.1386  -16.8953  -45.2360 H         1 UNK         0.0600 
    128 H128       -6.7578  -16.3953  -44.7408 H         1 UNK         0.0600 
    129 H129       -5.4502  -16.4601  -43.5539 H         1 UNK         0.0600 
    130 H130       -4.0451  -15.3000  -46.3198 H         1 UNK         0.3000 
    131 H131       -4.8705  -12.5463  -46.3259 H         1 UNK         0.0600 
    132 H132       -2.4815  -13.9272  -47.6553 H         1 UNK         0.0800 
    133 H133       -2.9425  -12.2751  -47.9434 H         1 UNK         0.0800 
    134 H134       -4.6441  -15.7811  -50.2117 H         1 UNK         0.0800 
    135 H135       -4.1112  -16.0673  -48.5760 H         1 UNK         0.0800 
    136 H136       -2.9197  -14.1550  -51.6218 H         1 UNK         0.1150 
    137 H137        1.1163  -15.5512  -51.2157 H         1 UNK         0.1150 
    138 H138       -1.8628  -16.7354  -48.3758 H         1 UNK         0.1150 
    139 H139        0.5663  -16.9695  -47.8757 H         1 UNK         0.0800 
    140 H140        1.7637  -16.5725  -49.0787 H         1 UNK         0.0800 
    141 H141       -1.4694  -19.2043  -49.5557 H         1 UNK         0.0800 
    142 H142       -1.0000  -18.8538  -47.9173 H         1 UNK         0.0800 
    143 H143       -0.1576  -21.4394  -49.3067 H         1 UNK         0.0600 
    144 H144       -0.0571  -20.5562  -46.4757 H         1 UNK         0.3000 
    145 H145        1.3621  -23.4701  -45.3244 H         1 UNK         0.0600 
    146 H146        3.1787  -21.0843  -45.9096 H         1 UNK         0.0600 
    147 H147        3.5057  -22.7524  -46.3555 H         1 UNK         0.0600 
    148 H148        3.4361  -22.2956  -44.6595 H         1 UNK         0.0600 
    149 H149        1.3082  -20.7310  -44.3394 H         1 UNK         0.3000 
    150 H150       -2.0610  -20.9131  -43.1770 H         1 UNK         0.0600 
    151 H151       -0.9346  -22.1772  -41.3929 H         1 UNK         0.0600 
    152 H152        0.5134  -21.1971  -41.5494 H         1 UNK         0.0600 
    153 H153       -0.9856  -20.4752  -40.9593 H         1 UNK         0.0600 
    154 H154       -0.0280  -18.9718  -42.7586 H         1 UNK         0.3000 
    155 H155        0.1914  -17.4456  -45.5805 H         1 UNK         0.0600 
    156 H156       -2.4703  -16.3253  -44.5669 H         1 UNK         0.0600 
    157 H157       -2.2032  -16.9646  -46.1704 H         1 UNK         0.0600 
    158 H158       -1.3390  -15.5281  -45.6653 H         1 UNK         0.0600 
    159 H159        1.1318  -16.6315  -43.7795 H         1 UNK         0.3000 
    160 H160        0.8992  -14.8747  -41.6736 H         1 UNK         0.0600 
    161 H161       -0.1464  -16.9490  -39.6835 H         1 UNK         0.0600 
    162 H162       -0.6867  -15.2874  -39.8618 H         1 UNK         0.0600 
    163 H163        0.9378  -15.6173  -39.2831 H         1 UNK         0.0600 
    164 H164        2.7393  -16.0936  -41.9079 H         1 UNK         0.3000 
    165 H165        4.2192  -18.1040  -40.9926 H         1 UNK         0.0600 
    166 H166        3.3439  -20.3915  -40.6095 H         1 UNK         0.0600 
    167 H167        2.9378  -20.5608  -42.3111 H         1 UNK         0.0600 
    168 H168        4.6224  -20.4256  -41.8126 H         1 UNK         0.0600 
    169 H169        4.8763  -17.5343  -43.0392 H         1 UNK         0.3000 
    170 H170        5.2418  -18.1861  -45.4598 H         1 UNK         0.0600 
    171 H171        4.1008  -17.6406  -47.6414 H         1 UNK         0.0600 
    172 H172        3.5583  -19.1656  -46.9756 H         1 UNK         0.0600 
    173 H173        2.5405  -17.7426  -46.8286 H         1 UNK         0.0600 
    174 H174        3.7516  -15.7607  -45.9809 H         1 UNK         0.3000 
    175 H175        5.0681  -13.7112  -43.5647 H         1 UNK         0.0600 
    176 H176        7.1791  -13.7495  -44.9081 H         1 UNK         0.0600 
    177 H177        6.2427  -13.7104  -46.3972 H         1 UNK         0.0600 
    178 H178        6.2064  -12.3387  -45.2878 H         1 UNK         0.0600 
    179 H179        3.9024  -12.9555  -46.0076 H         1 UNK         0.3000 
    180 H180        1.6315  -12.1493  -45.7620 H         1 UNK         0.0600 
    181 H181        1.0240  -15.0065  -46.7132 H         1 UNK         0.0600 
    182 H182        2.1257  -13.8837  -47.4997 H         1 UNK         0.0600 
    183 H183        0.4060  -13.5401  -47.4703 H         1 UNK         0.0600 
    184 H184       -0.5269  -13.9522  -45.1561 H         1 UNK         0.3000 
    185 H185       -1.4968  -13.6554  -42.5184 H         1 UNK         0.0600 
    186 H186       -1.5157  -11.4400  -41.4841 H         1 UNK         0.0600 
    187 H187       -2.2425  -10.7156  -42.9100 H         1 UNK         0.0600 
    188 H188       -3.1549  -11.8720  -41.9408 H         1 UNK         0.0600 
    189 H189       -2.9569  -14.1607  -44.1040 H         1 UNK         0.3000 
    190 H190       -2.3817  -20.5038  -46.6243 H         1 UNK         0.3000 
    191 H191       -4.6796  -21.4995  -48.1778 H         1 UNK         0.0600 
    192 H192       -4.7535  -19.2195  -47.2685 H         1 UNK         0.0600 
    193 H193       -5.9683  -20.2111  -46.4774 H         1 UNK         0.0600 
    194 H194       -4.4772  -19.8078  -45.6336 H         1 UNK         0.0600 
    195 H195       -3.5581  -21.7918  -44.7543 H         1 UNK         0.3000 
    196 H196       -5.5768  -23.6430  -44.0536 H         1 UNK         0.0600 
    197 H197       -2.9481  -23.1171  -42.5783 H         1 UNK         0.0600 
    198 H198       -4.4179  -23.7926  -41.9025 H         1 UNK         0.0600 
    199 H199       -4.3984  -22.1199  -42.4373 H         1 UNK         0.0600 
    200 H200       -2.2646  -24.1700  -45.1455 H         1 UNK         0.3000 
    201 H201       -2.1739  -27.0212  -44.7867 H         1 UNK         0.0600 
    202 H202       -0.5202  -25.1422  -46.5528 H         1 UNK         0.0600 
    203 H203       -0.1511  -25.5820  -44.8862 H         1 UNK         0.0600 
    204 H204       -0.0991  -26.8029  -46.1477 H         1 UNK         0.0600 
    205 H205       -4.5564  -26.8756  -45.7847 H         1 UNK         0.3000 
    206 H206       -6.0270  -27.6483  -47.2564 H         1 UNK         0.0600 
    207 H207       -4.6308  -29.7038  -46.9587 H         1 UNK         0.0600 
    208 H208       -5.3912  -29.6606  -48.5394 H         1 UNK         0.0600 
    209 H209       -3.6833  -29.2696  -48.3808 H         1 UNK         0.0600 
    210 H210       -4.9485  -25.1346  -47.9941 H         1 UNK         0.3000 
    211 H211       -4.8607  -23.6077  -49.5722 H         1 UNK         0.0600 
    212 H212       -7.2240  -24.3309  -49.9090 H         1 UNK         0.0600 
    213 H213       -6.5166  -23.7143  -51.3926 H         1 UNK         0.0600 
    214 H214       -6.7102  -25.4481  -51.1732 H         1 UNK         0.0600 
    215 H215       -2.6242  -25.2054  -49.5563 H         1 UNK         0.3000 
    216 H216       -1.6828  -26.2554  -51.9344 H         1 UNK         0.0600 
    217 H217       -0.1937  -24.8338  -49.6676 H         1 UNK         0.0600 
    218 H218        0.6020  -25.7764  -50.9232 H         1 UNK         0.0600 
    219 H219       -0.5059  -26.5635  -49.8177 H         1 UNK         0.0600 
    220 H220       -1.9869  -22.8324  -51.1541 H         1 UNK         0.3000 
    221 H221       -0.2955  -21.8484  -53.2849 H         1 UNK         0.0600 
    222 H222       -2.4580  -20.5655  -51.5451 H         1 UNK         0.0600 
    223 H223       -0.6993  -20.4055  -51.4266 H         1 UNK         0.0600 
    224 H224       -1.5568  -19.6715  -52.7598 H         1 UNK         0.0600 
    225 H225       -3.4116  -23.2945  -53.3569 H         1 UNK         0.3000 
    226 H226       -5.0069  -23.5897  -54.8369 H         1 UNK         0.0600 
    227 H227       -3.0499  -24.4517  -56.1534 H         1 UNK         0.0600 
    228 H228       -4.3321  -23.8555  -57.1933 H         1 UNK         0.0600 
    229 H229       -2.8907  -22.8806  -56.9380 H         1 UNK         0.0600 
    230 H230       -4.7257  -20.8609  -53.7872 H         1 UNK         0.3000 
    231 H231       -5.5321  -18.8086  -53.8751 H         1 UNK         0.0600 
    232 H232       -7.4010  -19.7105  -56.1278 H         1 UNK         0.0600 
    233 H233       -7.6061  -18.3111  -55.0859 H         1 UNK         0.0600 
    234 H234       -7.7191  -19.9255  -54.4068 H         1 UNK         0.0600 
    235 H235       -3.2660  -19.6760  -55.6951 H         1 UNK         0.3000 
    236 H236       -3.1644  -17.3042  -57.5151 H         1 UNK         0.0600 
    237 H237       -2.0199  -20.1219  -57.9208 H         1 UNK         0.0600 
    238 H238       -3.4540  -19.4881  -58.7253 H         1 UNK         0.0600 
    239 H239       -1.8821  -18.7749  -59.0476 H         1 UNK         0.0600 
    240 H240       -2.1852  -18.0243  -54.6190 H         1 UNK         0.3000 
    241 H241       -0.5278  -17.5082  -53.2543 H         1 UNK         0.0600 
    242 H242        1.4797  -20.4061  -54.8722 H         1 UNK         0.3800 
    243 H243       -0.1927  -19.9863  -55.1615 H         1 UNK         0.3800 
    244 H244        0.8127  -15.9188  -55.4891 H         1 UNK         0.0800 
    245 H245        1.1695  -15.8007  -53.7939 H         1 UNK         0.0800 
    246 H246       -0.9620  -12.9671  -52.7076 H         1 UNK         0.0800 
    247 H247        0.6068  -13.7202  -52.7543 H         1 UNK         0.0800 
@<TRIPOS>BOND
     1    1    2 1    
     2    1  127 1    
     3    1  128 1    
     4    1  129 1    
     5    2    3 2    
     6    2    4 am   BACKBONE|DICT|INTERRES
     7    4    5 1    
     8    4  130 1    
     9    5    6 1    
    10    5   65 1    
    11    5  131 1    
    12    6    7 1    
    13    6  132 1    
    14    6  133 1    
    15    7    8 1    
    16    8    9 1    
    17    8  134 1    
    18    8  135 1    
    19    9   10 ar   
    20    9   14 ar   
    21   10   11 ar   
    22   10  136 1    
    23   11   12 ar   
    24   11  126 1    
    25   12   13 ar   
    26   12  137 1    
    27   13   14 ar   
    28   13   15 1    
    29   14  138 1    
    30   15   16 1    
    31   15  139 1    
    32   15  140 1    
    33   16   17 1    
    34   17   18 1    
    35   17  141 1    
    36   17  142 1    
    37   18   19 1    
    38   18   67 1    
    39   18  143 1    
    40   19   20 am   BACKBONE|DICT|INTERRES
    41   19  144 1    
    42   20   21 2    
    43   20   22 1    
    44   22   23 1    
    45   22   24 1    
    46   22  145 1    
    47   23  146 1    
    48   23  147 1    
    49   23  148 1    
    50   24   25 am   BACKBONE|DICT|INTERRES
    51   24  149 1    
    52   25   26 2    
    53   25   27 1    
    54   27   28 1    
    55   27   29 1    
    56   27  150 1    
    57   28  151 1    
    58   28  152 1    
    59   28  153 1    
    60   29   30 am   BACKBONE|DICT|INTERRES
    61   29  154 1    
    62   30   31 2    
    63   30   32 1    
    64   32   33 1    
    65   32   34 1    
    66   32  155 1    
    67   33  156 1    
    68   33  157 1    
    69   33  158 1    
    70   34   35 am   BACKBONE|DICT|INTERRES
    71   34  159 1    
    72   35   36 2    
    73   35   37 1    
    74   37   38 1    
    75   37   39 1    
    76   37  160 1    
    77   38  161 1    
    78   38  162 1    
    79   38  163 1    
    80   39   40 am   BACKBONE|DICT|INTERRES
    81   39  164 1    
    82   40   41 2    
    83   40   42 1    
    84   42   43 1    
    85   42   44 1    
    86   42  165 1    
    87   43  166 1    
    88   43  167 1    
    89   43  168 1    
    90   44   45 am   BACKBONE|DICT|INTERRES
    91   44  169 1    
    92   45   46 2    
    93   45   47 1    
    94   47   48 1    
    95   47   49 1    
    96   47  170 1    
    97   48  171 1    
    98   48  172 1    
    99   48  173 1    
   100   49   50 am   BACKBONE|DICT|INTERRES
   101   49  174 1    
   102   50   51 2    
   103   50   52 1    
   104   52   53 1    
   105   52   54 1    
   106   52  175 1    
   107   53  176 1    
   108   53  177 1    
   109   53  178 1    
   110   54   55 am   BACKBONE|DICT|INTERRES
   111   54  179 1    
   112   55   56 2    
   113   55   57 1    
   114   57   58 1    
   115   57   59 1    
   116   57  180 1    
   117   58  181 1    
   118   58  182 1    
   119   58  183 1    
   120   59   60 am   BACKBONE|DICT|INTERRES
   121   59  184 1    
   122   60   61 2    
   123   60   62 1    
   124   62   63 1    
   125   62   64 1    
   126   62  185 1    
   127   63  186 1    
   128   63  187 1    
   129   63  188 1    
   130   64   65 am   BACKBONE|DICT|INTERRES
   131   64  189 1    
   132   65   66 2    
   133   67   68 2    
   134   67   69 am   BACKBONE|DICT|INTERRES
   135   69   70 1    
   136   69  190 1    
   137   70   71 1    
   138   70   72 1    
   139   70  191 1    
   140   71  192 1    
   141   71  193 1    
   142   71  194 1    
   143   72   73 2    
   144   72   74 am   BACKBONE|DICT|INTERRES
   145   74   75 1    
   146   74  195 1    
   147   75   76 1    
   148   75   77 1    
   149   75  196 1    
   150   76  197 1    
   151   76  198 1    
   152   76  199 1    
   153   77   78 2    
   154   77   79 am   BACKBONE|DICT|INTERRES
   155   79   80 1    
   156   79  200 1    
   157   80   81 1    
   158   80   82 1    
   159   80  201 1    
   160   81  202 1    
   161   81  203 1    
   162   81  204 1    
   163   82   83 2    
   164   82   84 am   BACKBONE|DICT|INTERRES
   165   84   85 1    
   166   84  205 1    
   167   85   86 1    
   168   85   87 1    
   169   85  206 1    
   170   86  207 1    
   171   86  208 1    
   172   86  209 1    
   173   87   88 2    
   174   87   89 am   BACKBONE|DICT|INTERRES
   175   89   90 1    
   176   89  210 1    
   177   90   91 1    
   178   90   92 1    
   179   90  211 1    
   180   91  212 1    
   181   91  213 1    
   182   91  214 1    
   183   92   93 2    
   184   92   94 am   BACKBONE|DICT|INTERRES
   185   94   95 1    
   186   94  215 1    
   187   95   96 1    
   188   95   97 1    
   189   95  216 1    
   190   96  217 1    
   191   96  218 1    
   192   96  219 1    
   193   97   98 2    
   194   97   99 am   BACKBONE|DICT|INTERRES
   195   99  100 1    
   196   99  220 1    
   197  100  101 1    
   198  100  102 1    
   199  100  221 1    
   200  101  222 1    
   201  101  223 1    
   202  101  224 1    
   203  102  103 2    
   204  102  104 am   BACKBONE|DICT|INTERRES
   205  104  105 1    
   206  104  225 1    
   207  105  106 1    
   208  105  107 1    
   209  105  226 1    
   210  106  227 1    
   211  106  228 1    
   212  106  229 1    
   213  107  108 2    
   214  107  109 am   BACKBONE|DICT|INTERRES
   215  109  110 1    
   216  109  230 1    
   217  110  111 1    
   218  110  112 1    
   219  110  231 1    
   220  111  232 1    
   221  111  233 1    
   222  111  234 1    
   223  112  113 2    
   224  112  114 am   BACKBONE|DICT|INTERRES
   225  114  115 1    
   226  114  235 1    
   227  115  116 1    
   228  115  117 1    
   229  115  236 1    
   230  116  237 1    
   231  116  238 1    
   232  116  239 1    
   233  117  118 2    
   234  117  119 am   BACKBONE|DICT|INTERRES
   235  119  120 1    
   236  119  240 1    
   237  120  121 1    
   238  120  124 1    
   239  120  241 1    
   240  121  122 am   BACKBONE|DICT|INTERRES
   241  121  123 2    
   242  122  242 1    
   243  122  243 1    
   244  124  125 1    
   245  124  244 1    
   246  124  245 1    
   247  125  126 1    
   248  126  246 1    
   249  126  247 1    
@<TRIPOS>SUBSTRUCTURE
     1 UNK         1 GROUP             0       ****    0 ROOT    
