@<TRIPOS>MOLECULE
3R540
247   249    1
SMALL
USER_CHARGES


@<TRIPOS>ATOM
      1 CA          3.3781  -14.8831  -46.4049 C.3       0 UNK        -0.1800 
      2 C           4.0077  -13.8800  -47.3667 C.2       0 UNK         0.5000 
      3 O           5.1675  -14.0480  -47.7374 O.2       0 UNK        -0.5000 
      4 N           3.3016  -12.8299  -47.8030 N.am      1 UNK        -0.5000 
      5 CA          1.9389  -12.4430  -47.4325 C.3       1 UNK         0.1400 
      6 C6          0.9260  -12.6521  -48.5875 C.3       23 UNK        -0.0398 
      7 S7          0.6224  -14.4124  -48.9477 S.3       23 UNK        -0.2404 
      8 C8          1.6945  -14.6465  -50.3973 C.3       23 UNK        -0.0205 
      9 C9          1.6718  -16.0917  -50.8611 C.ar      23 UNK        -0.0193 
     10 C10         0.8075  -16.4899  -51.8853 C.ar      23 UNK        -0.1150 
     11 C11         0.7750  -17.8217  -52.3088 C.ar      23 UNK        -0.0193 
     12 C12         1.6271  -18.7513  -51.7065 C.ar      23 UNK        -0.1150 
     13 C13         2.4676  -18.3728  -50.6567 C.ar      23 UNK        -0.0193 
     14 C14         2.5016  -17.0363  -50.2506 C.ar      23 UNK        -0.1150 
     15 C15         3.2864  -19.4270  -49.9251 C.3       23 UNK        -0.0205 
     16 S16         2.7002  -19.6957  -48.2166 S.3       23 UNK        -0.2404 
     17 C17         0.8936  -19.8977  -48.4197 C.3       23 UNK        -0.0398 
     18 CA          0.3411  -21.1918  -47.7831 C.3       11 UNK         0.1400 
     19 N           0.4791  -21.2173  -46.3232 N.am      11 UNK        -0.5000 
     20 C           0.2033  -22.2802  -45.5540 C.2       10 UNK         0.5000 
     21 O          -0.1376  -23.3747  -46.0019 O.2       10 UNK        -0.5000 
     22 CA          0.2586  -22.0775  -44.0288 C.3       10 UNK         0.1400 
     23 CB          1.7014  -22.1622  -43.5094 C.3       10 UNK        -0.1800 
     24 N          -0.3584  -20.8185  -43.6062 N.am      10 UNK        -0.5000 
     25 C          -1.6602  -20.5327  -43.7558 C.2       9 UNK         0.5000 
     26 O          -2.4803  -21.3227  -44.2210 O.2       9 UNK        -0.5000 
     27 CA         -2.1247  -19.1194  -43.3610 C.3       9 UNK         0.1400 
     28 CB         -2.3656  -19.0284  -41.8472 C.3       9 UNK        -0.1800 
     29 N          -1.1895  -18.0753  -43.7775 N.am      9 UNK        -0.5000 
     30 C          -0.8727  -17.7953  -45.0501 C.2       8 UNK         0.5000 
     31 O          -1.3758  -18.3604  -46.0213 O.2       8 UNK        -0.5000 
     32 CA          0.2427  -16.7549  -45.2695 C.3       8 UNK         0.1400 
     33 CB         -0.2951  -15.3256  -45.1052 C.3       8 UNK        -0.1800 
     34 N           1.3811  -16.9594  -44.3703 N.am      8 UNK        -0.5000 
     35 C           2.1221  -18.0770  -44.3353 C.2       7 UNK         0.5000 
     36 O           1.9469  -19.0370  -45.0821 O.2       7 UNK        -0.5000 
     37 CA          3.1906  -18.1682  -43.2355 C.3       7 UNK         0.1400 
     38 CB          4.4619  -17.4031  -43.6309 C.3       7 UNK        -0.1800 
     39 N           2.6798  -17.6764  -41.9564 N.am      7 UNK        -0.5000 
     40 C           1.7693  -18.3262  -41.2162 C.2       6 UNK         0.5000 
     41 O           1.3093  -19.4283  -41.5136 O.2       6 UNK        -0.5000 
     42 CA          1.2574  -17.6083  -39.9537 C.3       6 UNK         0.1400 
     43 CB          2.1948  -17.8682  -38.7653 C.3       6 UNK        -0.1800 
     44 N           1.1076  -16.1654  -40.1468 N.am      6 UNK        -0.5000 
     45 C           0.2196  -15.5993  -40.9763 C.2       5 UNK         0.5000 
     46 O          -0.6028  -16.2360  -41.6327 O.2       5 UNK        -0.5000 
     47 CA          0.2979  -14.0703  -41.1385 C.3       5 UNK         0.1400 
     48 CB         -0.5910  -13.3683  -40.1020 C.3       5 UNK        -0.1800 
     49 N           1.6614  -13.5453  -41.0397 N.am      5 UNK        -0.5000 
     50 C           2.6704  -13.8535  -41.8633 C.2       4 UNK         0.5000 
     51 O           2.5559  -14.6443  -42.8022 O.2       4 UNK        -0.5000 
     52 CA          4.0181  -13.1528  -41.5847 C.3       4 UNK         0.1400 
     53 CB          5.1454  -13.6561  -42.5036 C.3       4 UNK        -0.1800 
     54 N           3.9110  -11.7013  -41.7301 N.am      4 UNK        -0.5000 
     55 C           3.3277  -10.8583  -40.8657 C.2       3 UNK         0.5000 
     56 O           2.8643  -11.2112  -39.7800 O.2       3 UNK        -0.5000 
     57 CA          3.2142   -9.3820  -41.2996 C.3       3 UNK         0.1400 
     58 CB          4.3392   -8.5481  -40.6679 C.3       3 UNK        -0.1800 
     59 N           3.2427   -9.1990  -42.7552 N.am      3 UNK        -0.5000 
     60 C           2.2950   -9.6267  -43.6013 C.2       2 UNK         0.5000 
     61 O           1.2602  -10.1862  -43.2341 O.2       2 UNK        -0.5000 
     62 CA          2.5512   -9.4488  -45.1069 C.3       2 UNK         0.1400 
     63 CB          3.9302   -8.8492  -45.4614 C.3       2 UNK        -0.1800 
     64 N           2.3984  -10.7566  -45.7364 N.am      2 UNK        -0.5000 
     65 C           2.0184  -10.9707  -46.9988 C.2       1 UNK         0.5000 
     66 O           1.7923  -10.0709  -47.8102 O.2       1 UNK        -0.5000 
     67 C          -1.1219  -21.4118  -48.2217 C.2       11 UNK         0.5000 
     68 O          -1.3661  -22.2018  -49.1334 O.2       11 UNK        -0.5000 
     69 N          -2.0707  -20.7396  -47.5539 N.am      12 UNK        -0.5000 
     70 CA         -3.5074  -20.8909  -47.7890 C.3       12 UNK         0.1400 
     71 CB         -4.2810  -19.8390  -46.9821 C.3       12 UNK        -0.1800 
     72 C          -4.0163  -22.3107  -47.4799 C.2       12 UNK         0.5000 
     73 O          -4.7915  -22.8578  -48.2641 O.2       12 UNK        -0.5000 
     74 N          -3.5399  -22.8983  -46.3739 N.am      13 UNK        -0.5000 
     75 CA         -3.8287  -24.2757  -45.9727 C.3       13 UNK         0.1400 
     76 CB         -3.3173  -24.5134  -44.5440 C.3       13 UNK        -0.1800 
     77 C          -3.2449  -25.3214  -46.9409 C.2       13 UNK         0.5000 
     78 O          -3.8907  -26.3405  -47.1837 O.2       13 UNK        -0.5000 
     79 N          -2.0503  -25.0502  -47.4858 N.am      14 UNK        -0.5000 
     80 CA         -1.4009  -25.8749  -48.5055 C.3       14 UNK         0.1400 
     81 CB          0.0714  -25.4591  -48.6474 C.3       14 UNK        -0.1800 
     82 C          -2.1252  -25.8091  -49.8632 C.2       14 UNK         0.5000 
     83 O          -2.2708  -26.8402  -50.5208 O.2       14 UNK        -0.5000 
     84 N          -2.5745  -24.6061  -50.2482 N.am      15 UNK        -0.5000 
     85 CA         -3.3733  -24.3519  -51.4473 C.3       15 UNK         0.1400 
     86 CB         -3.4862  -22.8334  -51.6644 C.3       15 UNK        -0.1800 
     87 C          -4.7668  -25.0018  -51.3693 C.2       15 UNK         0.5000 
     88 O          -5.1881  -25.6711  -52.3148 O.2       15 UNK        -0.5000 
     89 N          -5.4606  -24.7772  -50.2415 N.am      16 UNK        -0.5000 
     90 CA         -6.7634  -25.3369  -49.8496 C.3       16 UNK         0.1400 
     91 CB         -6.6295  -26.8553  -49.6123 C.3       16 UNK        -0.1800 
     92 C          -7.9278  -25.0174  -50.8154 C.2       16 UNK         0.5000 
     93 O          -8.9691  -25.6719  -50.7474 O.2       16 UNK        -0.5000 
     94 N          -7.7145  -24.0519  -51.7231 N.am      17 UNK        -0.5000 
     95 CA         -8.5278  -23.7302  -52.9034 C.3       17 UNK         0.1400 
     96 CB         -9.9233  -23.2140  -52.4971 C.3       17 UNK        -0.1800 
     97 C          -8.5954  -24.8725  -53.9466 C.2       17 UNK         0.5000 
     98 O          -9.4261  -24.8142  -54.8545 O.2       17 UNK        -0.5000 
     99 N          -7.7159  -25.8769  -53.8213 N.am      18 UNK        -0.5000 
    100 CA        -7.5917  -27.0057  -54.7422 C.3       18 UNK         0.1400 
    101 CB        -7.0940  -28.2338  -53.9641 C.3       18 UNK        -0.1800 
    102 C         -6.6365  -26.6737  -55.9002 C.2       18 UNK         0.5000 
    103 O         -6.8636  -27.1175  -57.0265 O.2       18 UNK        -0.5000 
    104 N         -5.6025  -25.8796  -55.6058 N.am      19 UNK        -0.5000 
    105 CA        -4.6390  -25.3358  -56.5526 C.3       19 UNK         0.1400 
    106 CB        -3.4897  -26.3357  -56.7622 C.3       19 UNK        -0.1800 
    107 C         -4.1220  -24.0114  -55.9800 C.2       19 UNK         0.5000 
    108 O         -4.1194  -23.8423  -54.7587 O.2       19 UNK        -0.5000 
    109 N         -3.7079  -23.0935  -56.8628 N.am      20 UNK        -0.5000 
    110 CA        -3.1380  -21.7595  -56.6057 C.3       20 UNK         0.1400 
    111 CB        -1.8188  -21.8669  -55.8189 C.3       20 UNK        -0.1800 
    112 C         -4.0938  -20.7375  -55.9483 C.2       20 UNK         0.5000 
    113 O         -4.0666  -19.5672  -56.3303 O.2       20 UNK        -0.5000 
    114 N         -4.9266  -21.1955  -55.0032 N.am      21 UNK        -0.5000 
    115 CA        -5.9508  -20.4548  -54.2589 C.3       21 UNK         0.1400 
    116 CB        -7.1077  -20.0410  -55.1912 C.3       21 UNK        -0.1800 
    117 C         -5.3706  -19.2813  -53.4420 C.2       21 UNK         0.5000 
    118 O         -5.8952  -18.1672  -53.4851 O.2       21 UNK        -0.5000 
    119 N         -4.2854  -19.5661  -52.7118 N.am      22 UNK        -0.5000 
    120 CA        -3.5352  -18.6016  -51.8879 C.3       22 UNK         0.1400 
    121 C         -4.2763  -18.0915  -50.6155 C.2       22 UNK         0.5000 
    122 N         -5.3901  -18.6860  -50.2049 N.am      22 UNK        -0.7600 
    123 O         -3.8330  -17.1318  -49.9924 O.2       22 UNK        -0.5000 
    124 C124       -2.1303  -19.1375  -51.5108 C.3       23 UNK        -0.0398 
    125 S125       -1.1725  -19.7276  -52.9494 S.3       23 UNK        -0.2404 
    126 C126       -0.1943  -18.2551  -53.4020 C.3       23 UNK        -0.0205 
    127 H127        4.0495  -15.7249  -46.2369 H         1 UNK         0.0600 
    128 H128        3.1744  -14.4190  -45.4406 H         1 UNK         0.0600 
    129 H129        2.4498  -15.2823  -46.8096 H         1 UNK         0.0600 
    130 H130        3.7613  -12.1708  -48.4159 H         1 UNK         0.3000 
    131 H131        1.5867  -13.0069  -46.5689 H         1 UNK         0.0600 
    132 H132       -0.0378  -12.2115  -48.3262 H         1 UNK         0.0800 
    133 H133        1.2539  -12.1409  -49.4944 H         1 UNK         0.0800 
    134 H134        1.3688  -13.9856  -51.2020 H         1 UNK         0.0800 
    135 H135        2.7169  -14.3562  -50.1528 H         1 UNK         0.0800 
    136 H136        0.1522  -15.7626  -52.3439 H         1 UNK         0.1150 
    137 H137        1.5968  -19.7844  -52.0234 H         1 UNK         0.1150 
    138 H138        3.1471  -16.7392  -49.4356 H         1 UNK         0.1150 
    139 H139        3.2600  -20.3779  -50.4596 H         1 UNK         0.0800 
    140 H140        4.3322  -19.1183  -49.8985 H         1 UNK         0.0800 
    141 H141        0.6497  -19.8939  -49.4812 H         1 UNK         0.0800 
    142 H142        0.4055  -19.0183  -47.9966 H         1 UNK         0.0800 
    143 H143        0.9195  -22.0303  -48.1768 H         1 UNK         0.0600 
    144 H144        0.8174  -20.3652  -45.8822 H         1 UNK         0.3000 
    145 H145       -0.3075  -22.8903  -43.5692 H         1 UNK         0.0600 
    146 H146        1.7344  -22.0816  -42.4228 H         1 UNK         0.0600 
    147 H147        2.1555  -23.1165  -43.7788 H         1 UNK         0.0600 
    148 H148        2.3297  -21.3739  -43.9225 H         1 UNK         0.0600 
    149 H149        0.2515  -20.1326  -43.1758 H         1 UNK         0.3000 
    150 H150       -3.0744  -18.9307  -43.8653 H         1 UNK         0.0600 
    151 H151       -3.0754  -19.7883  -41.5181 H         1 UNK         0.0600 
    152 H152       -2.7778  -18.0575  -41.5717 H         1 UNK         0.0600 
    153 H153       -1.4442  -19.1725  -41.2829 H         1 UNK         0.0600 
    154 H154       -0.7691  -17.5221  -43.0356 H         1 UNK         0.3000 
    155 H155        0.6073  -16.8675  -46.2927 H         1 UNK         0.0600 
    156 H156        0.4985  -14.5883  -45.2147 H         1 UNK         0.0600 
    157 H157       -0.7545  -15.1750  -44.1286 H         1 UNK         0.0600 
    158 H158       -1.0511  -15.1080  -45.8606 H         1 UNK         0.0600 
    159 H159        1.6106  -16.2048  -43.7322 H         1 UNK         0.3000 
    160 H160        3.4587  -19.2199  -43.1140 H         1 UNK         0.0600 
    161 H161        4.2621  -16.3480  -43.8118 H         1 UNK         0.0600 
    162 H162        4.8894  -17.8130  -44.5468 H         1 UNK         0.0600 
    163 H163        5.2244  -17.4741  -42.8553 H         1 UNK         0.0600 
    164 H164        2.9597  -16.7461  -41.6829 H         1 UNK         0.3000 
    165 H165        0.2759  -18.0212  -39.7113 H         1 UNK         0.0600 
    166 H166        3.1896  -17.4552  -38.9372 H         1 UNK         0.0600 
    167 H167        1.8014  -17.4277  -37.8491 H         1 UNK         0.0600 
    168 H168        2.3099  -18.9382  -38.5868 H         1 UNK         0.0600 
    169 H169        1.7447  -15.5658  -39.6435 H         1 UNK         0.3000 
    170 H170       -0.0786  -13.8248  -42.1334 H         1 UNK         0.0600 
    171 H171       -1.6208  -13.7222  -40.1667 H         1 UNK         0.0600 
    172 H172       -0.2434  -13.5499  -39.0842 H         1 UNK         0.0600 
    173 H173       -0.6075  -12.2903  -40.2638 H         1 UNK         0.0600 
    174 H174        1.8372  -12.8477  -40.3238 H         1 UNK         0.3000 
    175 H175        4.2997  -13.3817  -40.5548 H         1 UNK         0.0600 
    176 H176        4.9162  -13.4903  -43.5571 H         1 UNK         0.0600 
    177 H177        5.3116  -14.7246  -42.3651 H         1 UNK         0.0600 
    178 H178        6.0879  -13.1548  -42.2828 H         1 UNK         0.0600 
    179 H179        4.2543  -11.3159  -42.5966 H         1 UNK         0.3000 
    180 H180        2.2585   -9.0051  -40.9293 H         1 UNK         0.0600 
    181 H181        5.3221   -8.8683  -41.0159 H         1 UNK         0.0600 
    182 H182        4.3300   -8.6393  -39.5809 H         1 UNK         0.0600 
    183 H183        4.2265   -7.4898  -40.9042 H         1 UNK         0.0600 
    184 H184        4.0614   -8.7465  -43.1361 H         1 UNK         0.3000 
    185 H185        1.7733   -8.7771  -45.4759 H         1 UNK         0.0600 
    186 H186        4.0358   -8.7243  -46.5392 H         1 UNK         0.0600 
    187 H187        4.0611   -7.8617  -45.0171 H         1 UNK         0.0600 
    188 H188        4.7494   -9.4856  -45.1247 H         1 UNK         0.0600 
    189 H189        2.5310  -11.5470  -45.1211 H         1 UNK         0.3000 
    190 H190       -1.7934  -20.0649  -46.8457 H         1 UNK         0.3000 
    191 H191       -3.6895  -20.7015  -48.8481 H         1 UNK         0.0600 
    192 H192       -3.9728  -18.8297  -47.2562 H         1 UNK         0.0600 
    193 H193       -5.3526  -19.9145  -47.1700 H         1 UNK         0.0600 
    194 H194       -4.1260  -19.9568  -45.9099 H         1 UNK         0.0600 
    195 H195       -2.9533  -22.3558  -45.7449 H         1 UNK         0.3000 
    196 H196       -4.9136  -24.4002  -45.9689 H         1 UNK         0.0600 
    197 H197       -3.5394  -25.5284  -44.2126 H         1 UNK         0.0600 
    198 H198       -3.7891  -23.8299  -43.8379 H         1 UNK         0.0600 
    199 H199       -2.2383  -24.3732  -44.4746 H         1 UNK         0.0600 
    200 H200       -1.5456  -24.2268  -47.1739 H         1 UNK         0.3000 
    201 H201       -1.4250  -26.9126  -48.1660 H         1 UNK         0.0600 
    202 H202        0.6042  -25.5695  -47.7028 H         1 UNK         0.0600 
    203 H203        0.1703  -24.4217  -48.9668 H         1 UNK         0.0600 
    204 H204        0.5826  -26.0796  -49.3843 H         1 UNK         0.0600 
    205 H205       -2.3410  -23.7980  -49.6786 H         1 UNK         0.3000 
    206 H206       -2.8537  -24.7826  -52.3058 H         1 UNK         0.0600 
    207 H207       -2.5108  -22.4007  -51.8870 H         1 UNK         0.0600 
    208 H208       -4.1452  -22.6024  -52.4995 H         1 UNK         0.0600 
    209 H209       -3.8838  -22.3249  -50.7865 H         1 UNK         0.0600 
    210 H210       -5.0473  -24.1572  -49.5467 H         1 UNK         0.3000 
    211 H211       -7.0185  -24.8698  -48.8975 H         1 UNK         0.0600 
    212 H212       -6.4475  -27.3944  -50.5428 H         1 UNK         0.0600 
    213 H213       -7.5357  -27.2671  -49.1670 H         1 UNK         0.0600 
    214 H214       -5.8079  -27.0782  -48.9325 H         1 UNK         0.0600 
    215 H215       -6.8200  -23.5868  -51.6739 H         1 UNK         0.3000 
    216 H216       -8.0136  -22.9100  -53.4045 H         1 UNK         0.0600 
    217 H217       -9.8489  -22.4119  -51.7628 H         1 UNK         0.0600 
    218 H218      -10.5418  -24.0041  -52.0709 H         1 UNK         0.0600 
    219 H219      -10.4580  -22.8135  -53.3591 H         1 UNK         0.0600 
    220 H220       -7.0225  -25.8276  -53.0815 H         1 UNK         0.3000 
    221 H221       -8.5702  -27.2440  -55.1646 H         1 UNK         0.0600 
    222 H222       -6.1128  -28.0604  -53.5200 H         1 UNK         0.0600 
    223 H223       -7.7825  -28.4952  -53.1602 H         1 UNK         0.0600 
    224 H224       -7.0106  -29.1026  -54.6181 H         1 UNK         0.0600 
    225 H225       -5.4819  -25.5457  -54.6553 H         1 UNK         0.3000 
    226 H226       -5.1345  -25.1359  -57.5050 H         1 UNK         0.0600 
    227 H227       -2.9771  -26.5578  -55.8252 H         1 UNK         0.0600 
    228 H228       -3.8544  -27.2764  -57.1751 H         1 UNK         0.0600 
    229 H229       -2.7486  -25.9409  -57.4581 H         1 UNK         0.0600 
    230 H230       -3.7871  -23.3266  -57.8431 H         1 UNK         0.3000 
    231 H231       -2.8927  -21.3577  -57.5902 H         1 UNK         0.0600 
    232 H232       -1.3274  -20.8955  -55.7555 H         1 UNK         0.0600 
    233 H233       -1.1227  -22.5502  -56.3050 H         1 UNK         0.0600 
    234 H234       -1.9782  -22.2191  -54.7992 H         1 UNK         0.0600 
    235 H235       -4.8147  -22.1780  -54.7608 H         1 UNK         0.3000 
    236 H236       -6.3575  -21.1527  -53.5266 H         1 UNK         0.0600 
    237 H237       -7.9237  -19.5898  -54.6255 H         1 UNK         0.0600 
    238 H238       -6.7862  -19.3146  -55.9382 H         1 UNK         0.0600 
    239 H239       -7.5169  -20.9038  -55.7168 H         1 UNK         0.0600 
    240 H240       -3.8894  -20.4914  -52.7737 H         1 UNK         0.3000 
    241 H241       -3.3825  -17.7169  -52.5089 H         1 UNK         0.0600 
    242 H242       -5.7844  -19.4551  -50.7197 H         1 UNK         0.3800 
    243 H243       -5.8664  -18.3285  -49.3926 H         1 UNK         0.3800 
    244 H244       -1.5562  -18.3752  -50.9816 H         1 UNK         0.0800 
    245 H245       -2.2231  -19.9740  -50.8167 H         1 UNK         0.0800 
    246 H246        0.3748  -18.4765  -54.3056 H         1 UNK         0.0800 
    247 H247       -0.8798  -17.4459  -53.6586 H         1 UNK         0.0800 
@<TRIPOS>BOND
     1    1    2 1    
     2    1  127 1    
     3    1  128 1    
     4    1  129 1    
     5    2    3 2    
     6    2    4 am   BACKBONE|DICT|INTERRES
     7    4    5 1    
     8    4  130 1    
     9    5    6 1    
    10    5   65 1    
    11    5  131 1    
    12    6    7 1    
    13    6  132 1    
    14    6  133 1    
    15    7    8 1    
    16    8    9 1    
    17    8  134 1    
    18    8  135 1    
    19    9   10 ar   
    20    9   14 ar   
    21   10   11 ar   
    22   10  136 1    
    23   11   12 ar   
    24   11  126 1    
    25   12   13 ar   
    26   12  137 1    
    27   13   14 ar   
    28   13   15 1    
    29   14  138 1    
    30   15   16 1    
    31   15  139 1    
    32   15  140 1    
    33   16   17 1    
    34   17   18 1    
    35   17  141 1    
    36   17  142 1    
    37   18   19 1    
    38   18   67 1    
    39   18  143 1    
    40   19   20 am   BACKBONE|DICT|INTERRES
    41   19  144 1    
    42   20   21 2    
    43   20   22 1    
    44   22   23 1    
    45   22   24 1    
    46   22  145 1    
    47   23  146 1    
    48   23  147 1    
    49   23  148 1    
    50   24   25 am   BACKBONE|DICT|INTERRES
    51   24  149 1    
    52   25   26 2    
    53   25   27 1    
    54   27   28 1    
    55   27   29 1    
    56   27  150 1    
    57   28  151 1    
    58   28  152 1    
    59   28  153 1    
    60   29   30 am   BACKBONE|DICT|INTERRES
    61   29  154 1    
    62   30   31 2    
    63   30   32 1    
    64   32   33 1    
    65   32   34 1    
    66   32  155 1    
    67   33  156 1    
    68   33  157 1    
    69   33  158 1    
    70   34   35 am   BACKBONE|DICT|INTERRES
    71   34  159 1    
    72   35   36 2    
    73   35   37 1    
    74   37   38 1    
    75   37   39 1    
    76   37  160 1    
    77   38  161 1    
    78   38  162 1    
    79   38  163 1    
    80   39   40 am   BACKBONE|DICT|INTERRES
    81   39  164 1    
    82   40   41 2    
    83   40   42 1    
    84   42   43 1    
    85   42   44 1    
    86   42  165 1    
    87   43  166 1    
    88   43  167 1    
    89   43  168 1    
    90   44   45 am   BACKBONE|DICT|INTERRES
    91   44  169 1    
    92   45   46 2    
    93   45   47 1    
    94   47   48 1    
    95   47   49 1    
    96   47  170 1    
    97   48  171 1    
    98   48  172 1    
    99   48  173 1    
   100   49   50 am   BACKBONE|DICT|INTERRES
   101   49  174 1    
   102   50   51 2    
   103   50   52 1    
   104   52   53 1    
   105   52   54 1    
   106   52  175 1    
   107   53  176 1    
   108   53  177 1    
   109   53  178 1    
   110   54   55 am   BACKBONE|DICT|INTERRES
   111   54  179 1    
   112   55   56 2    
   113   55   57 1    
   114   57   58 1    
   115   57   59 1    
   116   57  180 1    
   117   58  181 1    
   118   58  182 1    
   119   58  183 1    
   120   59   60 am   BACKBONE|DICT|INTERRES
   121   59  184 1    
   122   60   61 2    
   123   60   62 1    
   124   62   63 1    
   125   62   64 1    
   126   62  185 1    
   127   63  186 1    
   128   63  187 1    
   129   63  188 1    
   130   64   65 am   BACKBONE|DICT|INTERRES
   131   64  189 1    
   132   65   66 2    
   133   67   68 2    
   134   67   69 am   BACKBONE|DICT|INTERRES
   135   69   70 1    
   136   69  190 1    
   137   70   71 1    
   138   70   72 1    
   139   70  191 1    
   140   71  192 1    
   141   71  193 1    
   142   71  194 1    
   143   72   73 2    
   144   72   74 am   BACKBONE|DICT|INTERRES
   145   74   75 1    
   146   74  195 1    
   147   75   76 1    
   148   75   77 1    
   149   75  196 1    
   150   76  197 1    
   151   76  198 1    
   152   76  199 1    
   153   77   78 2    
   154   77   79 am   BACKBONE|DICT|INTERRES
   155   79   80 1    
   156   79  200 1    
   157   80   81 1    
   158   80   82 1    
   159   80  201 1    
   160   81  202 1    
   161   81  203 1    
   162   81  204 1    
   163   82   83 2    
   164   82   84 am   BACKBONE|DICT|INTERRES
   165   84   85 1    
   166   84  205 1    
   167   85   86 1    
   168   85   87 1    
   169   85  206 1    
   170   86  207 1    
   171   86  208 1    
   172   86  209 1    
   173   87   88 2    
   174   87   89 am   BACKBONE|DICT|INTERRES
   175   89   90 1    
   176   89  210 1    
   177   90   91 1    
   178   90   92 1    
   179   90  211 1    
   180   91  212 1    
   181   91  213 1    
   182   91  214 1    
   183   92   93 2    
   184   92   94 am   BACKBONE|DICT|INTERRES
   185   94   95 1    
   186   94  215 1    
   187   95   96 1    
   188   95   97 1    
   189   95  216 1    
   190   96  217 1    
   191   96  218 1    
   192   96  219 1    
   193   97   98 2    
   194   97   99 am   BACKBONE|DICT|INTERRES
   195   99  100 1    
   196   99  220 1    
   197  100  101 1    
   198  100  102 1    
   199  100  221 1    
   200  101  222 1    
   201  101  223 1    
   202  101  224 1    
   203  102  103 2    
   204  102  104 am   BACKBONE|DICT|INTERRES
   205  104  105 1    
   206  104  225 1    
   207  105  106 1    
   208  105  107 1    
   209  105  226 1    
   210  106  227 1    
   211  106  228 1    
   212  106  229 1    
   213  107  108 2    
   214  107  109 am   BACKBONE|DICT|INTERRES
   215  109  110 1    
   216  109  230 1    
   217  110  111 1    
   218  110  112 1    
   219  110  231 1    
   220  111  232 1    
   221  111  233 1    
   222  111  234 1    
   223  112  113 2    
   224  112  114 am   BACKBONE|DICT|INTERRES
   225  114  115 1    
   226  114  235 1    
   227  115  116 1    
   228  115  117 1    
   229  115  236 1    
   230  116  237 1    
   231  116  238 1    
   232  116  239 1    
   233  117  118 2    
   234  117  119 am   BACKBONE|DICT|INTERRES
   235  119  120 1    
   236  119  240 1    
   237  120  121 1    
   238  120  124 1    
   239  120  241 1    
   240  121  122 am   BACKBONE|DICT|INTERRES
   241  121  123 2    
   242  122  242 1    
   243  122  243 1    
   244  124  125 1    
   245  124  244 1    
   246  124  245 1    
   247  125  126 1    
   248  126  246 1    
   249  126  247 1    
@<TRIPOS>SUBSTRUCTURE
     1 UNK         1 GROUP             0       ****    0 ROOT    
