@<TRIPOS>MOLECULE
3R540
247   249    1
SMALL
USER_CHARGES


@<TRIPOS>ATOM
      1 CA          2.0043   -9.7130  -48.2125 C.3       0 UNK        -0.1800 
      2 C           2.7815  -10.4829  -49.2785 C.2       0 UNK         0.5000 
      3 O           3.0063   -9.9518  -50.3639 O.2       0 UNK        -0.5000 
      4 N           3.2100  -11.7279  -49.0265 N.am      1 UNK        -0.5000 
      5 CA          2.9965  -12.5095  -47.8001 C.3       1 UNK         0.1400 
      6 C6          4.1437  -13.5269  -47.5619 C.3       23 UNK        -0.0398 
      7 S7          4.3288  -14.7781  -48.8824 S.3       23 UNK        -0.2404 
      8 C8          3.5738  -16.2260  -48.0750 C.3       23 UNK        -0.0205 
      9 C9          3.1112  -17.2679  -49.0823 C.ar      23 UNK        -0.0193 
     10 C10         2.1526  -16.9415  -50.0476 C.ar      23 UNK        -0.1150 
     11 C11         1.7233  -17.8927  -50.9782 C.ar      23 UNK        -0.0193 
     12 C12         2.2386  -19.1922  -50.9126 C.ar      23 UNK        -0.1150 
     13 C13         3.1778  -19.5386  -49.9359 C.ar      23 UNK        -0.0193 
     14 C14         3.6226  -18.5668  -49.0360 C.ar      23 UNK        -0.1150 
     15 C15         3.7106  -20.9631  -49.8491 C.3       23 UNK        -0.0205 
     16 S16         3.2093  -21.8007  -48.3078 S.3       23 UNK        -0.2404 
     17 C17         1.3983  -21.6351  -48.3944 C.3       23 UNK        -0.0398 
     18 CA          0.6558  -22.4990  -47.3476 C.3       11 UNK         0.1400 
     19 N           1.0313  -22.1780  -45.9671 N.am      11 UNK        -0.5000 
     20 C           0.7584  -22.9496  -44.9043 C.2       10 UNK         0.5000 
     21 O           0.1281  -24.0042  -44.9825 O.2       10 UNK        -0.5000 
     22 CA          1.2294  -22.4482  -43.5228 C.3       10 UNK         0.1400 
     23 CB          1.6825  -23.5880  -42.5875 C.3       10 UNK        -0.1800 
     24 N           2.2205  -21.3689  -43.5982 N.am      10 UNK        -0.5000 
     25 C           3.5025  -21.4418  -43.9846 C.2       9 UNK         0.5000 
     26 O           4.0793  -22.4941  -44.2584 O.2       9 UNK        -0.5000 
     27 CA          4.2739  -20.1151  -44.1072 C.3       9 UNK         0.1400 
     28 CB          4.3867  -19.6844  -45.5779 C.3       9 UNK        -0.1800 
     29 N           3.6649  -19.0185  -43.3474 N.am      9 UNK        -0.5000 
     30 C           4.3565  -18.1566  -42.5902 C.2       8 UNK         0.5000 
     31 O           5.5730  -18.2260  -42.4083 O.2       8 UNK        -0.5000 
     32 CA          3.5721  -17.0069  -41.9327 C.3       8 UNK         0.1400 
     33 CB          3.5379  -15.7807  -42.8593 C.3       8 UNK        -0.1800 
     34 N           2.2044  -17.3580  -41.5498 N.am      8 UNK        -0.5000 
     35 C           1.8837  -18.1737  -40.5349 C.2       7 UNK         0.5000 
     36 O           2.7119  -18.7944  -39.8680 O.2       7 UNK        -0.5000 
     37 CA          0.3900  -18.3090  -40.1979 C.3       7 UNK         0.1400 
     38 CB         -0.0711  -17.1270  -39.3304 C.3       7 UNK        -0.1800 
     39 N          -0.4209  -18.3519  -41.4127 N.am      7 UNK        -0.5000 
     40 C          -1.0089  -19.4516  -41.8996 C.2       6 UNK         0.5000 
     41 O          -0.9876  -20.5472  -41.3397 O.2       6 UNK        -0.5000 
     42 CA         -1.7349  -19.3185  -43.2530 C.3       6 UNK         0.1400 
     43 CB         -3.2383  -19.0921  -43.0301 C.3       6 UNK        -0.1800 
     44 N          -1.2044  -18.2493  -44.1034 N.am      6 UNK        -0.5000 
     45 C           0.0286  -18.2273  -44.6278 C.2       5 UNK         0.5000 
     46 O           0.8504  -19.1287  -44.4753 O.2       5 UNK        -0.5000 
     47 CA          0.4339  -16.9846  -45.4349 C.3       5 UNK         0.1400 
     48 CB          0.0987  -17.2011  -46.9173 C.3       5 UNK        -0.1800 
     49 N          -0.1738  -15.7274  -44.9959 N.am      5 UNK        -0.5000 
     50 C          -0.2383  -15.2203  -43.7556 C.2       4 UNK         0.5000 
     51 O           0.1630  -15.8095  -42.7513 O.2       4 UNK        -0.5000 
     52 CA         -0.8770  -13.8237  -43.6123 C.3       4 UNK         0.1400 
     53 CB          0.2095  -12.7553  -43.4214 C.3       4 UNK        -0.1800 
     54 N          -1.7074  -13.4636  -44.7651 N.am      4 UNK        -0.5000 
     55 C          -2.9050  -13.9970  -45.0418 C.2       3 UNK         0.5000 
     56 O          -3.4975  -14.7629  -44.2815 O.2       3 UNK        -0.5000 
     57 CA         -3.5094  -13.6888  -46.4248 C.3       3 UNK         0.1400 
     58 CB         -4.2376  -12.3313  -46.4473 C.3       3 UNK        -0.1800 
     59 N          -2.5341  -13.8278  -47.5153 N.am      3 UNK        -0.5000 
     60 C          -1.5040  -13.0360  -47.8365 C.2       2 UNK         0.5000 
     61 O          -1.2692  -11.9553  -47.2904 O.2       2 UNK        -0.5000 
     62 CA         -0.5601  -13.5762  -48.9320 C.3       2 UNK         0.1400 
     63 CB         -1.1032  -13.2469  -50.3303 C.3       2 UNK        -0.1800 
     64 N           0.8088  -13.0649  -48.8203 N.am      2 UNK        -0.5000 
     65 C           1.6040  -13.1814  -47.7449 C.2       1 UNK         0.5000 
     66 O           1.2799  -13.7942  -46.7287 O.2       1 UNK        -0.5000 
     67 C          -0.8634  -22.3673  -47.5465 C.2       11 UNK         0.5000 
     68 O          -1.5007  -23.2925  -48.0469 O.2       11 UNK        -0.5000 
     69 N          -1.4266  -21.2235  -47.1282 N.am      12 UNK        -0.5000 
     70 CA         -2.8395  -20.8924  -47.3322 C.3       12 UNK         0.1400 
     71 CB         -3.0664  -19.3992  -47.0845 C.3       12 UNK        -0.1800 
     72 C          -3.8159  -21.7536  -46.5111 C.2       12 UNK         0.5000 
     73 O          -4.9876  -21.8490  -46.8773 O.2       12 UNK        -0.5000 
     74 N          -3.3097  -22.4062  -45.4558 N.am      13 UNK        -0.5000 
     75 CA         -4.0368  -23.4009  -44.6677 C.3       13 UNK         0.1400 
     76 CB         -3.2101  -23.7570  -43.4230 C.3       13 UNK        -0.1800 
     77 C          -4.3851  -24.6669  -45.4786 C.2       13 UNK         0.5000 
     78 O          -5.4007  -25.3037  -45.1969 O.2       13 UNK        -0.5000 
     79 N          -3.5768  -24.9856  -46.5007 N.am      14 UNK        -0.5000 
     80 CA         -3.8080  -26.0728  -47.4498 C.3       14 UNK         0.1400 
     81 CB         -2.4500  -26.6139  -47.9329 C.3       14 UNK        -0.1800 
     82 C          -4.7053  -25.5952  -48.6090 C.2       14 UNK         0.5000 
     83 O          -4.2777  -25.5994  -49.7644 O.2       14 UNK        -0.5000 
     84 N          -5.9296  -25.1645  -48.2708 N.am      15 UNK        -0.5000 
     85 CA         -6.9991  -24.7224  -49.1752 C.3       15 UNK         0.1400 
     86 CB         -7.5729  -25.9310  -49.9442 C.3       15 UNK        -0.1800 
     87 C          -6.5629  -23.5775  -50.1132 C.2       15 UNK         0.5000 
     88 O          -6.6492  -23.7097  -51.3357 O.2       15 UNK        -0.5000 
     89 N          -6.0518  -22.4889  -49.5189 N.am      16 UNK        -0.5000 
     90 CA         -5.5088  -21.3018  -50.1928 C.3       16 UNK         0.1400 
     91 CB         -6.6110  -20.5472  -50.9627 C.3       16 UNK        -0.1800 
     92 C          -4.2758  -21.6211  -51.0656 C.2       16 UNK         0.5000 
     93 O          -4.0817  -20.9895  -52.1063 O.2       16 UNK        -0.5000 
     94 N          -3.4807  -22.6007  -50.6073 N.am      17 UNK        -0.5000 
     95 CA         -2.3099  -23.1958  -51.2548 C.3       17 UNK         0.1400 
     96 CB         -1.1845  -22.1589  -51.4287 C.3       17 UNK        -0.1800 
     97 C          -2.7011  -23.9145  -52.5583 C.2       17 UNK         0.5000 
     98 O          -2.1671  -23.6106  -53.6247 O.2       17 UNK        -0.5000 
     99 N          -3.6586  -24.8442  -52.4318 N.am      18 UNK        -0.5000 
    100 CA        -4.2859  -25.6276  -53.4996 C.3       18 UNK         0.1400 
    101 CB        -3.2771  -26.6193  -54.1155 C.3       18 UNK        -0.1800 
    102 C         -4.9833  -24.7335  -54.5460 C.2       18 UNK         0.5000 
    103 O         -4.7637  -24.8909  -55.7487 O.2       18 UNK        -0.5000 
    104 N         -5.8090  -23.8019  -54.0480 N.am      19 UNK        -0.5000 
    105 CA        -6.6024  -22.8228  -54.7961 C.3       19 UNK         0.1400 
    106 CB        -7.6818  -23.5252  -55.6462 C.3       19 UNK        -0.1800 
    107 C         -5.7588  -21.8119  -55.6043 C.2       19 UNK         0.5000 
    108 O         -6.2185  -21.3152  -56.6342 O.2       19 UNK        -0.5000 
    109 N         -4.5556  -21.4878  -55.1095 N.am      20 UNK        -0.5000 
    110 CA        -3.6789  -20.4527  -55.6687 C.3       20 UNK         0.1400 
    111 CB        -2.2265  -20.7579  -55.2794 C.3       20 UNK        -0.1800 
    112 C         -4.0716  -19.0285  -55.2227 C.2       20 UNK         0.5000 
    113 O         -3.5116  -18.0620  -55.7413 O.2       20 UNK        -0.5000 
    114 N         -5.0229  -18.9298  -54.2818 N.am      21 UNK        -0.5000 
    115 CA        -5.5727  -17.7113  -53.6818 C.3       21 UNK         0.1400 
    116 CB        -6.1962  -16.7807  -54.7444 C.3       21 UNK        -0.1800 
    117 C         -4.5710  -16.9995  -52.7504 C.2       21 UNK         0.5000 
    118 O         -4.5855  -15.7711  -52.6552 O.2       21 UNK        -0.5000 
    119 N         -3.7371  -17.7849  -52.0535 N.am      22 UNK        -0.5000 
    120 CA        -2.7790  -17.2871  -51.0488 C.3       22 UNK         0.1400 
    121 C         -3.4235  -16.8344  -49.7069 C.2       22 UNK         0.5000 
    122 N         -4.7007  -17.0882  -49.4504 N.am      22 UNK        -0.7600 
    123 O         -2.7456  -16.2349  -48.8789 O.2       22 UNK        -0.5000 
    124 C124       -1.6299  -18.2920  -50.7841 C.3       23 UNK        -0.0398 
    125 S125       -0.6545  -18.6332  -52.2848 S.3       23 UNK        -0.2404 
    126 C126        0.7499  -17.4893  -52.0820 C.3       23 UNK        -0.0205 
    127 H127        1.6650   -8.7545  -48.6057 H         1 UNK         0.0600 
    128 H128        2.6346   -9.5120  -47.3464 H         1 UNK         0.0600 
    129 H129        1.1229  -10.2652  -47.8870 H         1 UNK         0.0600 
    130 H130        3.7239  -12.2154  -49.7474 H         1 UNK         0.3000 
    131 H131        3.0239  -11.8244  -46.9514 H         1 UNK         0.0600 
    132 H132        5.0890  -12.9879  -47.4867 H         1 UNK         0.0800 
    133 H133        4.0222  -14.0222  -46.5966 H         1 UNK         0.0800 
    134 H134        4.2935  -16.6519  -47.3741 H         1 UNK         0.0800 
    135 H135        2.7178  -15.9163  -47.4791 H         1 UNK         0.0800 
    136 H136        1.7611  -15.9344  -50.0860 H         1 UNK         0.1150 
    137 H137        1.9076  -19.9334  -51.6265 H         1 UNK         0.1150 
    138 H138        4.3581  -18.8318  -48.2903 H         1 UNK         0.1150 
    139 H139        3.3735  -21.5557  -50.7010 H         1 UNK         0.0800 
    140 H140        4.7998  -20.9416  -49.9023 H         1 UNK         0.0800 
    141 H141        1.0921  -21.9173  -49.4028 H         1 UNK         0.0800 
    142 H142        1.1451  -20.5799  -48.2765 H         1 UNK         0.0800 
    143 H143        0.9183  -23.5434  -47.5311 H         1 UNK         0.0600 
    144 H144        1.5528  -21.3263  -45.8204 H         1 UNK         0.3000 
    145 H145        0.3465  -22.0003  -43.0695 H         1 UNK         0.0600 
    146 H146        2.0164  -23.1991  -41.6256 H         1 UNK         0.0600 
    147 H147        0.8612  -24.2776  -42.3894 H         1 UNK         0.0600 
    148 H148        2.4966  -24.1711  -43.0180 H         1 UNK         0.0600 
    149 H149        1.8179  -20.4430  -43.5110 H         1 UNK         0.3000 
    150 H150        5.2797  -20.3188  -43.7342 H         1 UNK         0.0600 
    151 H151        4.8709  -20.4577  -46.1749 H         1 UNK         0.0600 
    152 H152        4.9839  -18.7781  -45.6791 H         1 UNK         0.0600 
    153 H153        3.4064  -19.4901  -46.0153 H         1 UNK         0.0600 
    154 H154        2.6700  -18.8765  -43.4641 H         1 UNK         0.3000 
    155 H155        4.1091  -16.7237  -41.0248 H         1 UNK         0.0600 
    156 H156        4.5472  -15.4598  -43.1204 H         1 UNK         0.0600 
    157 H157        3.0429  -14.9363  -42.3792 H         1 UNK         0.0600 
    158 H158        3.0113  -15.9908  -43.7895 H         1 UNK         0.0600 
    159 H159        1.4617  -16.8426  -42.0157 H         1 UNK         0.3000 
    160 H160        0.2620  -19.2237  -39.6154 H         1 UNK         0.0600 
    161 H161        0.0300  -16.1759  -39.8551 H         1 UNK         0.0600 
    162 H162        0.5166  -17.0619  -38.4138 H         1 UNK         0.0600 
    163 H163       -1.1158  -17.2384  -39.0397 H         1 UNK         0.0600 
    164 H164       -0.4655  -17.4934  -41.9519 H         1 UNK         0.3000 
    165 H165       -1.6079  -20.2636  -43.7850 H         1 UNK         0.0600 
    166 H166       -3.7899  -19.0954  -43.9694 H         1 UNK         0.0600 
    167 H167       -3.6635  -19.8805  -42.4074 H         1 UNK         0.0600 
    168 H168       -3.4306  -18.1408  -42.5322 H         1 UNK         0.0600 
    169 H169       -1.8041  -17.4514  -44.2585 H         1 UNK         0.3000 
    170 H170        1.5149  -16.8748  -45.3429 H         1 UNK         0.0600 
    171 H171        0.5369  -18.1252  -47.2972 H         1 UNK         0.0600 
    172 H172       -0.9773  -17.2493  -47.0748 H         1 UNK         0.0600 
    173 H173        0.4772  -16.3879  -47.5333 H         1 UNK         0.0600 
    174 H174       -0.4648  -15.1099  -45.7396 H         1 UNK         0.3000 
    175 H175       -1.5052  -13.8389  -42.7194 H         1 UNK         0.0600 
    176 H176        0.8651  -12.6865  -44.2899 H         1 UNK         0.0600 
    177 H177       -0.2301  -11.7718  -43.2547 H         1 UNK         0.0600 
    178 H178        0.8340  -12.9832  -42.5565 H         1 UNK         0.0600 
    179 H179       -1.2978  -12.8400  -45.4535 H         1 UNK         0.3000 
    180 H180       -4.2591  -14.4585  -46.6154 H         1 UNK         0.0600 
    181 H181       -3.5775  -11.5036  -46.1877 H         1 UNK         0.0600 
    182 H182       -5.0587  -12.3240  -45.7297 H         1 UNK         0.0600 
    183 H183       -4.6625  -12.1281  -47.4302 H         1 UNK         0.0600 
    184 H184       -2.6182  -14.7068  -48.0289 H         1 UNK         0.3000 
    185 H185       -0.5075  -14.6614  -48.8318 H         1 UNK         0.0600 
    186 H186       -0.4787  -13.6843  -51.1096 H         1 UNK         0.0600 
    187 H187       -2.1100  -13.6455  -50.4634 H         1 UNK         0.0600 
    188 H188       -1.1502  -12.1703  -50.4991 H         1 UNK         0.0600 
    189 H189        1.1578  -12.5385  -49.6072 H         1 UNK         0.3000 
    190 H190       -0.8483  -20.5226  -46.6902 H         1 UNK         0.3000 
    191 H191       -3.0615  -21.0800  -48.3814 H         1 UNK         0.0600 
    192 H192       -2.4728  -18.8046  -47.7751 H         1 UNK         0.0600 
    193 H193       -4.1111  -19.1263  -47.2389 H         1 UNK         0.0600 
    194 H194       -2.7975  -19.1105  -46.0723 H         1 UNK         0.0600 
    195 H195       -2.3281  -22.2980  -45.2527 H         1 UNK         0.3000 
    196 H196       -4.9752  -22.9499  -44.3382 H         1 UNK         0.0600 
    197 H197       -3.7513  -24.4555  -42.7836 H         1 UNK         0.0600 
    198 H198       -2.9920  -22.8716  -42.8250 H         1 UNK         0.0600 
    199 H199       -2.2620  -24.2253  -43.6890 H         1 UNK         0.0600 
    200 H200       -2.7907  -24.3821  -46.7118 H         1 UNK         0.3000 
    201 H201       -4.3281  -26.8922  -46.9494 H         1 UNK         0.0600 
    202 H202       -1.8390  -26.9497  -47.0950 H         1 UNK         0.0600 
    203 H203       -1.8820  -25.8611  -48.4797 H         1 UNK         0.0600 
    204 H204       -2.5858  -27.4671  -48.5987 H         1 UNK         0.0600 
    205 H205       -6.1607  -25.1666  -47.2843 H         1 UNK         0.3000 
    206 H206       -7.7956  -24.3206  -48.5474 H         1 UNK         0.0600 
    207 H207       -7.9207  -26.7045  -49.2596 H         1 UNK         0.0600 
    208 H208       -8.4244  -25.6352  -50.5583 H         1 UNK         0.0600 
    209 H209       -6.8319  -26.3793  -50.6072 H         1 UNK         0.0600 
    210 H210       -5.9729  -22.4767  -48.5058 H         1 UNK         0.3000 
    211 H211       -5.1602  -20.6347  -49.4044 H         1 UNK         0.0600 
    212 H212       -6.9455  -21.0961  -51.8428 H         1 UNK         0.0600 
    213 H213       -6.2496  -19.5766  -51.2977 H         1 UNK         0.0600 
    214 H214       -7.4799  -20.3656  -50.3302 H         1 UNK         0.0600 
    215 H215       -3.7731  -23.0760  -49.7656 H         1 UNK         0.3000 
    216 H216       -1.9419  -23.9683  -50.5785 H         1 UNK         0.0600 
    217 H217       -0.2580  -22.6370  -51.7473 H         1 UNK         0.0600 
    218 H218       -0.9839  -21.6322  -50.4974 H         1 UNK         0.0600 
    219 H219       -1.4402  -21.4136  -52.1771 H         1 UNK         0.0600 
    220 H220       -4.0103  -25.0320  -51.4941 H         1 UNK         0.3000 
    221 H221       -5.0739  -26.2132  -53.0236 H         1 UNK         0.0600 
    222 H222       -2.4726  -26.1066  -54.6433 H         1 UNK         0.0600 
    223 H223       -2.8269  -27.2493  -53.3484 H         1 UNK         0.0600 
    224 H224       -3.7680  -27.2800  -54.8309 H         1 UNK         0.0600 
    225 H225       -5.9434  -23.7756  -53.0380 H         1 UNK         0.3000 
    226 H226       -7.1234  -22.2323  -54.0417 H         1 UNK         0.0600 
    227 H227       -8.2700  -24.2166  -55.0428 H         1 UNK         0.0600 
    228 H228       -8.3759  -22.8014  -56.0747 H         1 UNK         0.0600 
    229 H229       -7.2457  -24.0872  -56.4725 H         1 UNK         0.0600 
    230 H230       -4.2433  -21.9196  -54.2484 H         1 UNK         0.3000 
    231 H231       -3.7457  -20.4820  -56.7581 H         1 UNK         0.0600 
    232 H232       -1.9212  -21.7436  -55.6303 H         1 UNK         0.0600 
    233 H233       -2.0941  -20.7271  -54.1995 H         1 UNK         0.0600 
    234 H234       -1.5396  -20.0306  -55.7136 H         1 UNK         0.0600 
    235 H235       -5.3533  -19.7998  -53.8889 H         1 UNK         0.3000 
    236 H236       -6.3907  -18.0396  -53.0408 H         1 UNK         0.0600 
    237 H237       -6.8849  -17.3248  -55.3907 H         1 UNK         0.0600 
    238 H238       -6.7623  -15.9768  -54.2727 H         1 UNK         0.0600 
    239 H239       -5.4392  -16.3146  -55.3754 H         1 UNK         0.0600 
    240 H240       -3.7573  -18.7861  -52.2062 H         1 UNK         0.3000 
    241 H241       -2.3216  -16.3845  -51.4590 H         1 UNK         0.0600 
    242 H242       -5.0980  -16.7770  -48.5792 H         1 UNK         0.3800 
    243 H243       -5.2826  -17.5471  -50.1293 H         1 UNK         0.3800 
    244 H244       -0.9573  -17.9265  -50.0057 H         1 UNK         0.0800 
    245 H245       -2.0313  -19.2374  -50.4162 H         1 UNK         0.0800 
    246 H246        0.3618  -16.4838  -51.9119 H         1 UNK         0.0800 
    247 H247        1.2996  -17.4491  -53.0230 H         1 UNK         0.0800 
@<TRIPOS>BOND
     1    1    2 1    
     2    1  127 1    
     3    1  128 1    
     4    1  129 1    
     5    2    3 2    
     6    2    4 am   BACKBONE|DICT|INTERRES
     7    4    5 1    
     8    4  130 1    
     9    5    6 1    
    10    5   65 1    
    11    5  131 1    
    12    6    7 1    
    13    6  132 1    
    14    6  133 1    
    15    7    8 1    
    16    8    9 1    
    17    8  134 1    
    18    8  135 1    
    19    9   10 ar   
    20    9   14 ar   
    21   10   11 ar   
    22   10  136 1    
    23   11   12 ar   
    24   11  126 1    
    25   12   13 ar   
    26   12  137 1    
    27   13   14 ar   
    28   13   15 1    
    29   14  138 1    
    30   15   16 1    
    31   15  139 1    
    32   15  140 1    
    33   16   17 1    
    34   17   18 1    
    35   17  141 1    
    36   17  142 1    
    37   18   19 1    
    38   18   67 1    
    39   18  143 1    
    40   19   20 am   BACKBONE|DICT|INTERRES
    41   19  144 1    
    42   20   21 2    
    43   20   22 1    
    44   22   23 1    
    45   22   24 1    
    46   22  145 1    
    47   23  146 1    
    48   23  147 1    
    49   23  148 1    
    50   24   25 am   BACKBONE|DICT|INTERRES
    51   24  149 1    
    52   25   26 2    
    53   25   27 1    
    54   27   28 1    
    55   27   29 1    
    56   27  150 1    
    57   28  151 1    
    58   28  152 1    
    59   28  153 1    
    60   29   30 am   BACKBONE|DICT|INTERRES
    61   29  154 1    
    62   30   31 2    
    63   30   32 1    
    64   32   33 1    
    65   32   34 1    
    66   32  155 1    
    67   33  156 1    
    68   33  157 1    
    69   33  158 1    
    70   34   35 am   BACKBONE|DICT|INTERRES
    71   34  159 1    
    72   35   36 2    
    73   35   37 1    
    74   37   38 1    
    75   37   39 1    
    76   37  160 1    
    77   38  161 1    
    78   38  162 1    
    79   38  163 1    
    80   39   40 am   BACKBONE|DICT|INTERRES
    81   39  164 1    
    82   40   41 2    
    83   40   42 1    
    84   42   43 1    
    85   42   44 1    
    86   42  165 1    
    87   43  166 1    
    88   43  167 1    
    89   43  168 1    
    90   44   45 am   BACKBONE|DICT|INTERRES
    91   44  169 1    
    92   45   46 2    
    93   45   47 1    
    94   47   48 1    
    95   47   49 1    
    96   47  170 1    
    97   48  171 1    
    98   48  172 1    
    99   48  173 1    
   100   49   50 am   BACKBONE|DICT|INTERRES
   101   49  174 1    
   102   50   51 2    
   103   50   52 1    
   104   52   53 1    
   105   52   54 1    
   106   52  175 1    
   107   53  176 1    
   108   53  177 1    
   109   53  178 1    
   110   54   55 am   BACKBONE|DICT|INTERRES
   111   54  179 1    
   112   55   56 2    
   113   55   57 1    
   114   57   58 1    
   115   57   59 1    
   116   57  180 1    
   117   58  181 1    
   118   58  182 1    
   119   58  183 1    
   120   59   60 am   BACKBONE|DICT|INTERRES
   121   59  184 1    
   122   60   61 2    
   123   60   62 1    
   124   62   63 1    
   125   62   64 1    
   126   62  185 1    
   127   63  186 1    
   128   63  187 1    
   129   63  188 1    
   130   64   65 am   BACKBONE|DICT|INTERRES
   131   64  189 1    
   132   65   66 2    
   133   67   68 2    
   134   67   69 am   BACKBONE|DICT|INTERRES
   135   69   70 1    
   136   69  190 1    
   137   70   71 1    
   138   70   72 1    
   139   70  191 1    
   140   71  192 1    
   141   71  193 1    
   142   71  194 1    
   143   72   73 2    
   144   72   74 am   BACKBONE|DICT|INTERRES
   145   74   75 1    
   146   74  195 1    
   147   75   76 1    
   148   75   77 1    
   149   75  196 1    
   150   76  197 1    
   151   76  198 1    
   152   76  199 1    
   153   77   78 2    
   154   77   79 am   BACKBONE|DICT|INTERRES
   155   79   80 1    
   156   79  200 1    
   157   80   81 1    
   158   80   82 1    
   159   80  201 1    
   160   81  202 1    
   161   81  203 1    
   162   81  204 1    
   163   82   83 2    
   164   82   84 am   BACKBONE|DICT|INTERRES
   165   84   85 1    
   166   84  205 1    
   167   85   86 1    
   168   85   87 1    
   169   85  206 1    
   170   86  207 1    
   171   86  208 1    
   172   86  209 1    
   173   87   88 2    
   174   87   89 am   BACKBONE|DICT|INTERRES
   175   89   90 1    
   176   89  210 1    
   177   90   91 1    
   178   90   92 1    
   179   90  211 1    
   180   91  212 1    
   181   91  213 1    
   182   91  214 1    
   183   92   93 2    
   184   92   94 am   BACKBONE|DICT|INTERRES
   185   94   95 1    
   186   94  215 1    
   187   95   96 1    
   188   95   97 1    
   189   95  216 1    
   190   96  217 1    
   191   96  218 1    
   192   96  219 1    
   193   97   98 2    
   194   97   99 am   BACKBONE|DICT|INTERRES
   195   99  100 1    
   196   99  220 1    
   197  100  101 1    
   198  100  102 1    
   199  100  221 1    
   200  101  222 1    
   201  101  223 1    
   202  101  224 1    
   203  102  103 2    
   204  102  104 am   BACKBONE|DICT|INTERRES
   205  104  105 1    
   206  104  225 1    
   207  105  106 1    
   208  105  107 1    
   209  105  226 1    
   210  106  227 1    
   211  106  228 1    
   212  106  229 1    
   213  107  108 2    
   214  107  109 am   BACKBONE|DICT|INTERRES
   215  109  110 1    
   216  109  230 1    
   217  110  111 1    
   218  110  112 1    
   219  110  231 1    
   220  111  232 1    
   221  111  233 1    
   222  111  234 1    
   223  112  113 2    
   224  112  114 am   BACKBONE|DICT|INTERRES
   225  114  115 1    
   226  114  235 1    
   227  115  116 1    
   228  115  117 1    
   229  115  236 1    
   230  116  237 1    
   231  116  238 1    
   232  116  239 1    
   233  117  118 2    
   234  117  119 am   BACKBONE|DICT|INTERRES
   235  119  120 1    
   236  119  240 1    
   237  120  121 1    
   238  120  124 1    
   239  120  241 1    
   240  121  122 am   BACKBONE|DICT|INTERRES
   241  121  123 2    
   242  122  242 1    
   243  122  243 1    
   244  124  125 1    
   245  124  244 1    
   246  124  245 1    
   247  125  126 1    
   248  126  246 1    
   249  126  247 1    
@<TRIPOS>SUBSTRUCTURE
     1 UNK         1 GROUP             0       ****    0 ROOT    
