@<TRIPOS>MOLECULE
3R540
247   249    1
SMALL
USER_CHARGES


@<TRIPOS>ATOM
      1 CA          0.9661  -16.7927  -53.1949 C.3       0 UNK        -0.1800 
      2 C           0.1469  -15.5893  -52.7362 C.2       0 UNK         0.5000 
      3 O          -0.1816  -14.7345  -53.5558 O.2       0 UNK        -0.5000 
      4 N          -0.2293  -15.4863  -51.4552 N.am      1 UNK        -0.5000 
      5 CA          0.1762  -16.3334  -50.3283 C.3       1 UNK         0.1400 
      6 C6         -0.7934  -16.2159  -49.1190 C.3       23 UNK        -0.0398 
      7 S7         -1.4415  -14.5368  -48.7894 S.3       23 UNK        -0.2404 
      8 C8         -2.3802  -14.7831  -47.2465 C.3       23 UNK        -0.0205 
      9 C9         -3.4215  -15.8889  -47.3467 C.ar      23 UNK        -0.0193 
     10 C10        -4.6906  -15.6307  -47.8714 C.ar      23 UNK        -0.1150 
     11 C11        -5.6554  -16.6427  -47.9242 C.ar      23 UNK        -0.0193 
     12 C12        -5.3449  -17.9172  -47.4385 C.ar      23 UNK        -0.1150 
     13 C13        -4.0726  -18.1908  -46.9307 C.ar      23 UNK        -0.0193 
     14 C14        -3.1168  -17.1737  -46.8911 C.ar      23 UNK        -0.1150 
     15 C15        -3.7111  -19.5887  -46.4593 C.3       23 UNK        -0.0205 
     16 S16        -3.7933  -19.7473  -44.6442 S.3       23 UNK        -0.2404 
     17 C17        -3.3352  -21.4921  -44.3115 C.3       23 UNK        -0.0398 
     18 CA         -2.3295  -22.1175  -45.3069 C.3       11 UNK         0.1400 
     19 N          -1.0426  -21.4183  -45.3229 N.am      11 UNK        -0.5000 
     20 C          -0.2248  -21.3784  -46.3822 C.2       10 UNK         0.5000 
     21 O          -0.4850  -21.9111  -47.4613 O.2       10 UNK        -0.5000 
     22 CA          1.1138  -20.6414  -46.1993 C.3       10 UNK         0.1400 
     23 CB          0.9408  -19.1363  -46.4490 C.3       10 UNK        -0.1800 
     24 N           1.6997  -20.8595  -44.8749 N.am      10 UNK        -0.5000 
     25 C           2.1586  -22.0480  -44.4543 C.2       9 UNK         0.5000 
     26 O           2.1556  -23.0598  -45.1528 O.2       9 UNK        -0.5000 
     27 CA          2.6683  -22.1479  -43.0048 C.3       9 UNK         0.1400 
     28 CB          4.1751  -21.8570  -42.9500 C.3       9 UNK        -0.1800 
     29 N           1.9798  -21.2698  -42.0611 N.am      9 UNK        -0.5000 
     30 C           0.6600  -21.2142  -41.8341 C.2       8 UNK         0.5000 
     31 O          -0.1704  -21.9168  -42.4145 O.2       8 UNK        -0.5000 
     32 CA          0.1876  -20.1604  -40.8121 C.3       8 UNK         0.1400 
     33 CB          1.2547  -19.8129  -39.7521 C.3       8 UNK        -0.1800 
     34 N          -0.2966  -18.9242  -41.4323 N.am      8 UNK        -0.5000 
     35 C           0.2625  -18.1922  -42.4060 C.2       7 UNK         0.5000 
     36 O           1.2712  -18.5234  -43.0296 O.2       7 UNK        -0.5000 
     37 CA         -0.4048  -16.8437  -42.7349 C.3       7 UNK         0.1400 
     38 CB         -1.6634  -17.0353  -43.5946 C.3       7 UNK        -0.1800 
     39 N          -0.6747  -15.9812  -41.5779 N.am      7 UNK        -0.5000 
     40 C          -1.5166  -16.1699  -40.5487 C.2       6 UNK         0.5000 
     41 O          -2.2078  -17.1781  -40.3962 O.2       6 UNK        -0.5000 
     42 CA         -1.6041  -15.0391  -39.5041 C.3       6 UNK         0.1400 
     43 CB         -0.6901  -15.3456  -38.3078 C.3       6 UNK        -0.1800 
     44 N          -1.2552  -13.7249  -40.0467 N.am      6 UNK        -0.5000 
     45 C          -1.9841  -13.0539  -40.9485 C.2       5 UNK         0.5000 
     46 O          -3.0792  -13.4353  -41.3639 O.2       5 UNK        -0.5000 
     47 CA         -1.3841  -11.7515  -41.5115 C.3       5 UNK         0.1400 
     48 CB         -0.3117  -11.1047  -40.6051 C.3       5 UNK        -0.1800 
     49 N          -0.8711  -11.9494  -42.8712 N.am      5 UNK        -0.5000 
     50 C           0.1049  -12.7831  -43.2618 C.2       4 UNK         0.5000 
     51 O           0.7253  -13.5222  -42.4914 O.2       4 UNK        -0.5000 
     52 CA          0.4330  -12.7839  -44.7682 C.3       4 UNK         0.1400 
     53 CB          0.6136  -11.3565  -45.3190 C.3       4 UNK        -0.1800 
     54 N           1.6630  -13.5293  -45.0316 N.am      4 UNK        -0.5000 
     55 C           1.7264  -14.7559  -45.5555 C.2       3 UNK         0.5000 
     56 O           0.7456  -15.4316  -45.8759 O.2       3 UNK        -0.5000 
     57 CA          3.1306  -15.3300  -45.7686 C.3       3 UNK         0.1400 
     58 CB          3.5760  -16.1865  -44.5729 C.3       3 UNK        -0.1800 
     59 N           3.0801  -16.1458  -46.9716 N.am      3 UNK        -0.5000 
     60 C           4.0762  -16.3373  -47.8399 C.2       2 UNK         0.5000 
     61 O           5.2179  -15.9043  -47.6794 O.2       2 UNK        -0.5000 
     62 CA          3.7410  -17.1444  -49.1100 C.3       2 UNK         0.1400 
     63 CB          4.1992  -18.6036  -48.9558 C.3       2 UNK        -0.1800 
     64 N           2.3180  -17.1368  -49.4667 N.am      2 UNK        -0.5000 
     65 C           1.6430  -16.0732  -49.9259 C.2       1 UNK         0.5000 
     66 O           2.1341  -14.9494  -50.0509 O.2       1 UNK        -0.5000 
     67 C          -2.1369  -23.6261  -45.0709 C.2       11 UNK         0.5000 
     68 O          -2.8682  -24.4178  -45.6667 O.2       11 UNK        -0.5000 
     69 N          -1.1169  -24.0091  -44.2869 N.am      12 UNK        -0.5000 
     70 CA         -0.6747  -25.4002  -44.1300 C.3       12 UNK         0.1400 
     71 CB          0.4031  -25.4812  -43.0402 C.3       12 UNK        -0.1800 
     72 C          -0.1619  -26.0104  -45.4521 C.2       12 UNK         0.5000 
     73 O          -0.3791  -27.1956  -45.7024 O.2       12 UNK        -0.5000 
     74 N           0.4456  -25.1698  -46.3009 N.am      13 UNK        -0.5000 
     75 CA          0.8587  -25.4692  -47.6730 C.3       13 UNK         0.1400 
     76 CB          2.0187  -24.5326  -48.0559 C.3       13 UNK        -0.1800 
     77 C          -0.2943  -25.3838  -48.6996 C.2       13 UNK         0.5000 
     78 O          -0.0195  -25.2912  -49.8959 O.2       13 UNK        -0.5000 
     79 N          -1.5539  -25.4081  -48.2370 N.am      14 UNK        -0.5000 
     80 CA         -2.7909  -25.3989  -49.0240 C.3       14 UNK         0.1400 
     81 CB         -2.9204  -26.6933  -49.8547 C.3       14 UNK        -0.1800 
     82 C          -2.9327  -24.1216  -49.8720 C.2       14 UNK         0.5000 
     83 O          -3.0648  -24.1972  -51.0942 O.2       14 UNK        -0.5000 
     84 N          -2.8661  -22.9659  -49.1955 N.am      15 UNK        -0.5000 
     85 CA         -2.9352  -21.6137  -49.7649 C.3       15 UNK         0.1400 
     86 CB         -4.3309  -21.3492  -50.3677 C.3       15 UNK        -0.1800 
     87 C          -1.7740  -21.3383  -50.7426 C.2       15 UNK         0.5000 
     88 O          -1.9836  -20.7874  -51.8265 O.2       15 UNK        -0.5000 
     89 N          -0.5731  -21.7658  -50.3222 N.am      16 UNK        -0.5000 
     90 CA          0.6936  -21.7706  -51.0564 C.3       16 UNK         0.1400 
     91 CB          1.2073  -20.3284  -51.2371 C.3       16 UNK        -0.1800 
     92 C           0.5864  -22.5523  -52.3813 C.2       16 UNK         0.5000 
     93 O           0.8627  -22.0034  -53.4468 O.2       16 UNK        -0.5000 
     94 N           0.1321  -23.8111  -52.2912 N.am      17 UNK        -0.5000 
     95 CA         -0.1887  -24.7137  -53.4041 C.3       17 UNK         0.1400 
     96 CB          1.0966  -25.1639  -54.1285 C.3       17 UNK        -0.1800 
     97 C          -1.2467  -24.1127  -54.3556 C.2       17 UNK         0.5000 
     98 O          -1.0972  -24.1689  -55.5774 O.2       17 UNK        -0.5000 
     99 N          -2.2797  -23.5111  -53.7509 N.am      18 UNK        -0.5000 
    100 CA        -3.3953  -22.7777  -54.3516 C.3       18 UNK         0.1400 
    101 CB        -4.2521  -23.7066  -55.2353 C.3       18 UNK        -0.1800 
    102 C         -3.0110  -21.4720  -55.0816 C.2       18 UNK         0.5000 
    103 O         -3.8862  -20.8666  -55.7026 O.2       18 UNK        -0.5000 
    104 N         -1.7512  -21.0182  -54.9818 N.am      19 UNK        -0.5000 
    105 CA        -1.2546  -19.8050  -55.6412 C.3       19 UNK         0.1400 
    106 CB         0.2744  -19.7339  -55.5292 C.3       19 UNK        -0.1800 
    107 C         -1.8915  -18.5049  -55.1159 C.2       19 UNK         0.5000 
    108 O         -1.9560  -17.5266  -55.8607 O.2       19 UNK        -0.5000 
    109 N         -2.3774  -18.5181  -53.8657 N.am      20 UNK        -0.5000 
    110 CA        -3.1269  -17.4085  -53.2698 C.3       20 UNK         0.1400 
    111 CB        -3.1135  -17.5663  -51.7426 C.3       20 UNK        -0.1800 
    112 C         -4.5797  -17.3103  -53.7820 C.2       20 UNK         0.5000 
    113 O         -5.2362  -16.3036  -53.5190 O.2       20 UNK        -0.5000 
    114 N         -5.0627  -18.3618  -54.4658 N.am      21 UNK        -0.5000 
    115 CA        -6.4228  -18.5645  -54.9851 C.3       21 UNK         0.1400 
    116 CB        -6.8189  -17.4547  -55.9809 C.3       21 UNK        -0.1800 
    117 C         -7.4925  -18.7880  -53.8923 C.2       21 UNK         0.5000 
    118 O         -8.6820  -18.8373  -54.2091 O.2       21 UNK        -0.5000 
    119 N         -7.0578  -18.9538  -52.6373 N.am      22 UNK        -0.5000 
    120 CA        -7.9076  -19.2204  -51.4648 C.3       22 UNK         0.1400 
    121 C         -8.2530  -20.7261  -51.2621 C.2       22 UNK         0.5000 
    122 N         -7.7296  -21.6481  -52.0615 N.am      22 UNK        -0.7600 
    123 O         -9.0220  -21.0650  -50.3669 O.2       22 UNK        -0.5000 
    124 C124       -7.2989  -18.6116  -50.1754 C.3       23 UNK        -0.0398 
    125 S125       -7.1307  -16.7960  -50.2651 S.3       23 UNK        -0.2404 
    126 C126       -7.0334  -16.3554  -48.5008 C.3       23 UNK        -0.0205 
    127 H127        0.4410  -17.7184  -52.9675 H         1 UNK         0.0600 
    128 H128        1.9459  -16.8113  -52.7189 H         1 UNK         0.0600 
    129 H129        1.1200  -16.7603  -54.2737 H         1 UNK         0.0600 
    130 H130       -0.7609  -14.6733  -51.1774 H         1 UNK         0.3000 
    131 H131        0.1246  -17.3698  -50.6659 H         1 UNK         0.0600 
    132 H132       -1.6558  -16.8544  -49.3067 H         1 UNK         0.0800 
    133 H133       -0.3422  -16.6058  -48.2048 H         1 UNK         0.0800 
    134 H134       -1.6898  -15.0007  -46.4330 H         1 UNK         0.0800 
    135 H135       -2.8686  -13.8448  -46.9803 H         1 UNK         0.0800 
    136 H136       -4.9266  -14.6413  -48.2374 H         1 UNK         0.1150 
    137 H137       -6.0888  -18.7004  -47.4697 H         1 UNK         0.1150 
    138 H138       -2.1291  -17.3825  -46.5091 H         1 UNK         0.1150 
    139 H139       -4.3714  -20.3256  -46.9193 H         1 UNK         0.0800 
    140 H140       -2.7013  -19.8039  -46.8050 H         1 UNK         0.0800 
    141 H141       -4.2618  -22.0690  -44.3054 H         1 UNK         0.0800 
    142 H142       -2.9412  -21.5467  -43.2950 H         1 UNK         0.0800 
    143 H143       -2.7719  -22.0521  -46.3010 H         1 UNK         0.0600 
    144 H144       -0.7374  -21.0131  -44.4482 H         1 UNK         0.3000 
    145 H145        1.8093  -21.0306  -46.9461 H         1 UNK         0.0600 
    146 H146        1.8952  -18.6178  -46.3702 H         1 UNK         0.0600 
    147 H147        0.5423  -18.9478  -47.4463 H         1 UNK         0.0600 
    148 H148        0.2585  -18.6826  -45.7306 H         1 UNK         0.0600 
    149 H149        1.7040  -20.0730  -44.2312 H         1 UNK         0.3000 
    150 H150        2.5095  -23.1719  -42.6661 H         1 UNK         0.0600 
    151 H151        4.7251  -22.5138  -43.6255 H         1 UNK         0.0600 
    152 H152        4.5729  -22.0181  -41.9478 H         1 UNK         0.0600 
    153 H153        4.3962  -20.8286  -43.2390 H         1 UNK         0.0600 
    154 H154        2.5622  -20.6086  -41.5688 H         1 UNK         0.3000 
    155 H155       -0.6637  -20.6016  -40.2917 H         1 UNK         0.0600 
    156 H156        1.6495  -20.7126  -39.2779 H         1 UNK         0.0600 
    157 H157        0.8265  -19.1962  -38.9617 H         1 UNK         0.0600 
    158 H158        2.0938  -19.2606  -40.1767 H         1 UNK         0.0600 
    159 H159       -1.1331  -18.5256  -41.0109 H         1 UNK         0.3000 
    160 H160        0.3162  -16.2936  -43.3399 H         1 UNK         0.0600 
    161 H161       -2.4876  -17.4706  -43.0302 H         1 UNK         0.0600 
    162 H162       -1.4564  -17.7053  -44.4267 H         1 UNK         0.0600 
    163 H163       -2.0040  -16.0874  -44.0112 H         1 UNK         0.0600 
    164 H164       -0.1567  -15.1078  -41.5929 H         1 UNK         0.3000 
    165 H165       -2.6353  -14.9986  -39.1469 H         1 UNK         0.0600 
    166 H166       -0.7939  -14.5911  -37.5279 H         1 UNK         0.0600 
    167 H167       -0.9405  -16.3091  -37.8617 H         1 UNK         0.0600 
    168 H168        0.3595  -15.3838  -38.6024 H         1 UNK         0.0600 
    169 H169       -0.3563  -13.3480  -39.7826 H         1 UNK         0.3000 
    170 H170       -2.2111  -11.0442  -41.5907 H         1 UNK         0.0600 
    171 H171        0.5864  -11.7157  -40.5129 H         1 UNK         0.0600 
    172 H172       -0.0069  -10.1354  -40.9996 H         1 UNK         0.0600 
    173 H173       -0.7006  -10.9331  -39.6006 H         1 UNK         0.0600 
    174 H174       -1.3410  -11.4084  -43.5831 H         1 UNK         0.3000 
    175 H175       -0.4087  -13.2470  -45.2861 H         1 UNK         0.0600 
    176 H176        1.3767  -10.8052  -44.7679 H         1 UNK         0.0600 
    177 H177        0.9104  -11.3772  -46.3680 H         1 UNK         0.0600 
    178 H178       -0.3125  -10.7835  -45.2658 H         1 UNK         0.0600 
    179 H179        2.5173  -13.0810  -44.7335 H         1 UNK         0.3000 
    180 H180        3.8311  -14.5042  -45.9109 H         1 UNK         0.0600 
    181 H181        2.9250  -17.0499  -44.4383 H         1 UNK         0.0600 
    182 H182        3.5565  -15.6104  -43.6471 H         1 UNK         0.0600 
    183 H183        4.5929  -16.5546  -44.7089 H         1 UNK         0.0600 
    184 H184        2.1532  -16.4819  -47.1953 H         1 UNK         0.3000 
    185 H185        4.2985  -16.6972  -49.9359 H         1 UNK         0.0600 
    186 H186        3.6615  -19.1144  -48.1563 H         1 UNK         0.0600 
    187 H187        4.0462  -19.1659  -49.8772 H         1 UNK         0.0600 
    188 H188        5.2629  -18.6559  -48.7195 H         1 UNK         0.0600 
    189 H189        1.8484  -18.0264  -49.3994 H         1 UNK         0.3000 
    190 H190       -0.5942  -23.2989  -43.7838 H         1 UNK         0.3000 
    191 H191       -1.5358  -25.9860  -43.8020 H         1 UNK         0.0600 
    192 H192        1.3302  -25.0076  -43.3594 H         1 UNK         0.0600 
    193 H193        0.0760  -25.0009  -42.1177 H         1 UNK         0.0600 
    194 H194        0.6356  -26.5201  -42.8037 H         1 UNK         0.0600 
    195 H195        0.6532  -24.2324  -45.9754 H         1 UNK         0.3000 
    196 H196        1.2330  -26.4940  -47.7066 H         1 UNK         0.0600 
    197 H197        2.8479  -24.6276  -47.3547 H         1 UNK         0.0600 
    198 H198        1.7057  -23.4884  -48.0631 H         1 UNK         0.0600 
    199 H199        2.4101  -24.7667  -49.0466 H         1 UNK         0.0600 
    200 H200       -1.6874  -25.4364  -47.2342 H         1 UNK         0.3000 
    201 H201       -3.6135  -25.3867  -48.3074 H         1 UNK         0.0600 
    202 H202       -3.8856  -26.7350  -50.3608 H         1 UNK         0.0600 
    203 H203       -2.8479  -27.5768  -49.2205 H         1 UNK         0.0600 
    204 H204       -2.1485  -26.7669  -50.6214 H         1 UNK         0.0600 
    205 H205       -2.6679  -23.0166  -48.2070 H         1 UNK         0.3000 
    206 H206       -2.7974  -20.9181  -48.9378 H         1 UNK         0.0600 
    207 H207       -5.1156  -21.5145  -49.6297 H         1 UNK         0.0600 
    208 H208       -4.5385  -21.9920  -51.2223 H         1 UNK         0.0600 
    209 H209       -4.4231  -20.3217  -50.7086 H         1 UNK         0.0600 
    210 H210       -0.5307  -22.1461  -49.3808 H         1 UNK         0.3000 
    211 H211        1.4142  -22.3063  -50.4367 H         1 UNK         0.0600 
    212 H212        1.3164  -19.8321  -50.2740 H         1 UNK         0.0600 
    213 H213        2.1828  -20.3163  -51.7246 H         1 UNK         0.0600 
    214 H214        0.5269  -19.7365  -51.8478 H         1 UNK         0.0600 
    215 H215       -0.0481  -24.1981  -51.3662 H         1 UNK         0.3000 
    216 H216       -0.6452  -25.5982  -52.9571 H         1 UNK         0.0600 
    217 H217        0.8754  -25.9233  -54.8793 H         1 UNK         0.0600 
    218 H218        1.5879  -24.3342  -54.6376 H         1 UNK         0.0600 
    219 H219        1.8104  -25.5982  -53.4286 H         1 UNK         0.0600 
    220 H220       -2.3242  -23.5743  -52.7363 H         1 UNK         0.3000 
    221 H221       -4.0174  -22.4666  -53.5123 H         1 UNK         0.0600 
    222 H222       -3.7214  -24.0118  -56.1373 H         1 UNK         0.0600 
    223 H223       -4.5421  -24.6073  -54.6940 H         1 UNK         0.0600 
    224 H224       -5.1709  -23.2111  -55.5509 H         1 UNK         0.0600 
    225 H225       -1.0842  -21.5350  -54.4208 H         1 UNK         0.3000 
    226 H226       -1.5078  -19.8833  -56.7005 H         1 UNK         0.0600 
    227 H227        0.7432  -20.6317  -55.9325 H         1 UNK         0.0600 
    228 H228        0.6679  -18.8827  -56.0861 H         1 UNK         0.0600 
    229 H229        0.5957  -19.6221  -54.4939 H         1 UNK         0.0600 
    230 H230       -2.2661  -19.3567  -53.3027 H         1 UNK         0.3000 
    231 H231       -2.6216  -16.4742  -53.5214 H         1 UNK         0.0600 
    232 H232       -3.4075  -16.6372  -51.2522 H         1 UNK         0.0600 
    233 H233       -2.1225  -17.8347  -51.3821 H         1 UNK         0.0600 
    234 H234       -3.8047  -18.3377  -51.4114 H         1 UNK         0.0600 
    235 H235       -4.4268  -19.1272  -54.6609 H         1 UNK         0.3000 
    236 H236       -6.3808  -19.4985  -55.5470 H         1 UNK         0.0600 
    237 H237       -6.0504  -17.3142  -56.7411 H         1 UNK         0.0600 
    238 H238       -7.7439  -17.7085  -56.4999 H         1 UNK         0.0600 
    239 H239       -6.9801  -16.4984  -55.4833 H         1 UNK         0.0600 
    240 H240       -6.0676  -18.8815  -52.4654 H         1 UNK         0.3000 
    241 H241       -8.8680  -18.7273  -51.6270 H         1 UNK         0.0600 
    242 H242       -7.9700  -22.6167  -51.9218 H         1 UNK         0.3800 
    243 H243       -7.1170  -21.3863  -52.8153 H         1 UNK         0.3800 
    244 H244       -7.9252  -18.8497  -49.3139 H         1 UNK         0.0800 
    245 H245       -6.3189  -19.0435  -49.9728 H         1 UNK         0.0800 
    246 H246       -7.8009  -16.8868  -47.9361 H         1 UNK         0.0800 
    247 H247       -7.2640  -15.2943  -48.3948 H         1 UNK         0.0800 
@<TRIPOS>BOND
     1    1    2 1    
     2    1  127 1    
     3    1  128 1    
     4    1  129 1    
     5    2    3 2    
     6    2    4 am   BACKBONE|DICT|INTERRES
     7    4    5 1    
     8    4  130 1    
     9    5    6 1    
    10    5   65 1    
    11    5  131 1    
    12    6    7 1    
    13    6  132 1    
    14    6  133 1    
    15    7    8 1    
    16    8    9 1    
    17    8  134 1    
    18    8  135 1    
    19    9   10 ar   
    20    9   14 ar   
    21   10   11 ar   
    22   10  136 1    
    23   11   12 ar   
    24   11  126 1    
    25   12   13 ar   
    26   12  137 1    
    27   13   14 ar   
    28   13   15 1    
    29   14  138 1    
    30   15   16 1    
    31   15  139 1    
    32   15  140 1    
    33   16   17 1    
    34   17   18 1    
    35   17  141 1    
    36   17  142 1    
    37   18   19 1    
    38   18   67 1    
    39   18  143 1    
    40   19   20 am   BACKBONE|DICT|INTERRES
    41   19  144 1    
    42   20   21 2    
    43   20   22 1    
    44   22   23 1    
    45   22   24 1    
    46   22  145 1    
    47   23  146 1    
    48   23  147 1    
    49   23  148 1    
    50   24   25 am   BACKBONE|DICT|INTERRES
    51   24  149 1    
    52   25   26 2    
    53   25   27 1    
    54   27   28 1    
    55   27   29 1    
    56   27  150 1    
    57   28  151 1    
    58   28  152 1    
    59   28  153 1    
    60   29   30 am   BACKBONE|DICT|INTERRES
    61   29  154 1    
    62   30   31 2    
    63   30   32 1    
    64   32   33 1    
    65   32   34 1    
    66   32  155 1    
    67   33  156 1    
    68   33  157 1    
    69   33  158 1    
    70   34   35 am   BACKBONE|DICT|INTERRES
    71   34  159 1    
    72   35   36 2    
    73   35   37 1    
    74   37   38 1    
    75   37   39 1    
    76   37  160 1    
    77   38  161 1    
    78   38  162 1    
    79   38  163 1    
    80   39   40 am   BACKBONE|DICT|INTERRES
    81   39  164 1    
    82   40   41 2    
    83   40   42 1    
    84   42   43 1    
    85   42   44 1    
    86   42  165 1    
    87   43  166 1    
    88   43  167 1    
    89   43  168 1    
    90   44   45 am   BACKBONE|DICT|INTERRES
    91   44  169 1    
    92   45   46 2    
    93   45   47 1    
    94   47   48 1    
    95   47   49 1    
    96   47  170 1    
    97   48  171 1    
    98   48  172 1    
    99   48  173 1    
   100   49   50 am   BACKBONE|DICT|INTERRES
   101   49  174 1    
   102   50   51 2    
   103   50   52 1    
   104   52   53 1    
   105   52   54 1    
   106   52  175 1    
   107   53  176 1    
   108   53  177 1    
   109   53  178 1    
   110   54   55 am   BACKBONE|DICT|INTERRES
   111   54  179 1    
   112   55   56 2    
   113   55   57 1    
   114   57   58 1    
   115   57   59 1    
   116   57  180 1    
   117   58  181 1    
   118   58  182 1    
   119   58  183 1    
   120   59   60 am   BACKBONE|DICT|INTERRES
   121   59  184 1    
   122   60   61 2    
   123   60   62 1    
   124   62   63 1    
   125   62   64 1    
   126   62  185 1    
   127   63  186 1    
   128   63  187 1    
   129   63  188 1    
   130   64   65 am   BACKBONE|DICT|INTERRES
   131   64  189 1    
   132   65   66 2    
   133   67   68 2    
   134   67   69 am   BACKBONE|DICT|INTERRES
   135   69   70 1    
   136   69  190 1    
   137   70   71 1    
   138   70   72 1    
   139   70  191 1    
   140   71  192 1    
   141   71  193 1    
   142   71  194 1    
   143   72   73 2    
   144   72   74 am   BACKBONE|DICT|INTERRES
   145   74   75 1    
   146   74  195 1    
   147   75   76 1    
   148   75   77 1    
   149   75  196 1    
   150   76  197 1    
   151   76  198 1    
   152   76  199 1    
   153   77   78 2    
   154   77   79 am   BACKBONE|DICT|INTERRES
   155   79   80 1    
   156   79  200 1    
   157   80   81 1    
   158   80   82 1    
   159   80  201 1    
   160   81  202 1    
   161   81  203 1    
   162   81  204 1    
   163   82   83 2    
   164   82   84 am   BACKBONE|DICT|INTERRES
   165   84   85 1    
   166   84  205 1    
   167   85   86 1    
   168   85   87 1    
   169   85  206 1    
   170   86  207 1    
   171   86  208 1    
   172   86  209 1    
   173   87   88 2    
   174   87   89 am   BACKBONE|DICT|INTERRES
   175   89   90 1    
   176   89  210 1    
   177   90   91 1    
   178   90   92 1    
   179   90  211 1    
   180   91  212 1    
   181   91  213 1    
   182   91  214 1    
   183   92   93 2    
   184   92   94 am   BACKBONE|DICT|INTERRES
   185   94   95 1    
   186   94  215 1    
   187   95   96 1    
   188   95   97 1    
   189   95  216 1    
   190   96  217 1    
   191   96  218 1    
   192   96  219 1    
   193   97   98 2    
   194   97   99 am   BACKBONE|DICT|INTERRES
   195   99  100 1    
   196   99  220 1    
   197  100  101 1    
   198  100  102 1    
   199  100  221 1    
   200  101  222 1    
   201  101  223 1    
   202  101  224 1    
   203  102  103 2    
   204  102  104 am   BACKBONE|DICT|INTERRES
   205  104  105 1    
   206  104  225 1    
   207  105  106 1    
   208  105  107 1    
   209  105  226 1    
   210  106  227 1    
   211  106  228 1    
   212  106  229 1    
   213  107  108 2    
   214  107  109 am   BACKBONE|DICT|INTERRES
   215  109  110 1    
   216  109  230 1    
   217  110  111 1    
   218  110  112 1    
   219  110  231 1    
   220  111  232 1    
   221  111  233 1    
   222  111  234 1    
   223  112  113 2    
   224  112  114 am   BACKBONE|DICT|INTERRES
   225  114  115 1    
   226  114  235 1    
   227  115  116 1    
   228  115  117 1    
   229  115  236 1    
   230  116  237 1    
   231  116  238 1    
   232  116  239 1    
   233  117  118 2    
   234  117  119 am   BACKBONE|DICT|INTERRES
   235  119  120 1    
   236  119  240 1    
   237  120  121 1    
   238  120  124 1    
   239  120  241 1    
   240  121  122 am   BACKBONE|DICT|INTERRES
   241  121  123 2    
   242  122  242 1    
   243  122  243 1    
   244  124  125 1    
   245  124  244 1    
   246  124  245 1    
   247  125  126 1    
   248  126  246 1    
   249  126  247 1    
@<TRIPOS>SUBSTRUCTURE
     1 UNK         1 GROUP             0       ****    0 ROOT    
