@<TRIPOS>MOLECULE
3R540
247   249    1
SMALL
USER_CHARGES


@<TRIPOS>ATOM
      1 CA          1.6556   -9.3670  -50.1142 C.3       0 UNK        -0.1800 
      2 C           2.7185  -10.4240  -50.3794 C.2       0 UNK         0.5000 
      3 O           3.8607  -10.0823  -50.6876 O.2       0 UNK        -0.5000 
      4 N           2.3424  -11.7035  -50.2691 N.am      1 UNK        -0.5000 
      5 CA          3.2273  -12.8615  -50.4251 C.3       1 UNK         0.1400 
      6 C6          2.4404  -14.1938  -50.4765 C.3       23 UNK        -0.0398 
      7 S7          1.3113  -14.3120  -51.9038 S.3       23 UNK        -0.2404 
      8 C8         -0.3292  -14.1077  -51.1225 C.3       23 UNK        -0.0205 
      9 C9         -0.7646  -15.1935  -50.1334 C.ar      23 UNK        -0.0193 
     10 C10        -1.9409  -14.9803  -49.4082 C.ar      23 UNK        -0.1150 
     11 C11        -2.4139  -15.9389  -48.5099 C.ar      23 UNK        -0.0193 
     12 C12        -1.6707  -17.0989  -48.2935 C.ar      23 UNK        -0.1150 
     13 C13        -0.4989  -17.3419  -49.0139 C.ar      23 UNK        -0.0193 
     14 C14        -0.0582  -16.3895  -49.9381 C.ar      23 UNK        -0.1150 
     15 C15         0.2980  -18.6246  -48.8047 C.3       23 UNK        -0.0205 
     16 S16        -0.7480  -20.1191  -48.8171 S.3       23 UNK        -0.2404 
     17 C17        -1.0877  -20.3832  -47.0438 C.3       23 UNK        -0.0398 
     18 CA         -0.7509  -21.8237  -46.5905 C.3       11 UNK         0.1400 
     19 N          -0.3992  -21.8608  -45.1705 N.am      11 UNK        -0.5000 
     20 C           0.0959  -22.9244  -44.5251 C.2       10 UNK         0.5000 
     21 O           0.3669  -23.9921  -45.0719 O.2       10 UNK        -0.5000 
     22 CA          0.2538  -22.7841  -43.0020 C.3       10 UNK         0.1400 
     23 CB          1.5802  -22.0954  -42.6491 C.3       10 UNK        -0.1800 
     24 N          -0.8646  -22.0436  -42.4145 N.am      10 UNK        -0.5000 
     25 C          -2.1122  -22.5252  -42.3158 C.2       9 UNK         0.5000 
     26 O          -2.4309  -23.6634  -42.6599 O.2       9 UNK        -0.5000 
     27 CA         -3.1909  -21.5585  -41.7921 C.3       9 UNK         0.1400 
     28 CB         -3.1690  -21.5000  -40.2576 C.3       9 UNK        -0.1800 
     29 N          -3.0471  -20.2052  -42.3333 N.am      9 UNK        -0.5000 
     30 C          -3.2206  -19.8820  -43.6232 C.2       8 UNK         0.5000 
     31 O          -3.5598  -20.6880  -44.4865 O.2       8 UNK        -0.5000 
     32 CA         -2.9117  -18.4302  -44.0326 C.3       8 UNK         0.1400 
     33 CB         -4.1676  -17.5539  -43.9286 C.3       8 UNK        -0.1800 
     34 N          -1.8306  -17.8214  -43.2566 N.am      8 UNK        -0.5000 
     35 C          -0.5665  -18.2618  -43.2094 C.2       7 UNK         0.5000 
     36 O          -0.1862  -19.2827  -43.7860 O.2       7 UNK        -0.5000 
     37 CA          0.4173  -17.4169  -42.3758 C.3       7 UNK         0.1400 
     38 CB          1.8698  -17.9176  -42.4765 C.3       7 UNK        -0.1800 
     39 N           0.3630  -16.0098  -42.7752 N.am      7 UNK        -0.5000 
     40 C          -0.5030  -15.1040  -42.2962 C.2       6 UNK         0.5000 
     41 O          -1.3545  -15.3726  -41.4481 O.2       6 UNK        -0.5000 
     42 CA         -0.4378  -13.6721  -42.8658 C.3       6 UNK         0.1400 
     43 CB          0.3630  -12.7594  -41.9247 C.3       6 UNK        -0.1800 
     44 N           0.1510  -13.6022  -44.2022 N.am      6 UNK        -0.5000 
     45 C          -0.4100  -14.0841  -45.3205 C.2       5 UNK         0.5000 
     46 O          -1.5391  -14.5711  -45.3615 O.2       5 UNK        -0.5000 
     47 CA          0.4520  -14.0308  -46.6007 C.3       5 UNK         0.1400 
     48 CB          0.1082  -12.7702  -47.4077 C.3       5 UNK        -0.1800 
     49 N           1.9004  -14.0581  -46.3479 N.am      5 UNK        -0.5000 
     50 C           2.5428  -15.0374  -45.6974 C.2       4 UNK         0.5000 
     51 O           1.9886  -16.0541  -45.2794 O.2       4 UNK        -0.5000 
     52 CA          4.0281  -14.7959  -45.3891 C.3       4 UNK         0.1400 
     53 CB          4.1489  -13.9009  -44.1452 C.3       4 UNK        -0.1800 
     54 N           4.7494  -16.0415  -45.1164 N.am      4 UNK        -0.5000 
     55 C           5.1057  -17.0531  -45.9279 C.2       3 UNK         0.5000 
     56 O           5.5552  -18.0909  -45.4441 O.2       3 UNK        -0.5000 
     57 CA          5.0266  -16.9707  -47.4756 C.3       3 UNK         0.1400 
     58 CB          3.6766  -17.4743  -48.0152 C.3       3 UNK        -0.1800 
     59 N           5.3533  -15.6870  -48.0943 N.am      3 UNK        -0.5000 
     60 C           6.4851  -14.9852  -47.9376 C.2       2 UNK         0.5000 
     61 O           7.4269  -15.3603  -47.2388 O.2       2 UNK        -0.5000 
     62 CA          6.5839  -13.6368  -48.6888 C.3       2 UNK         0.1400 
     63 CB          7.9022  -13.5351  -49.4748 C.3       2 UNK        -0.1800 
     64 N           5.4717  -13.3988  -49.6167 N.am      2 UNK        -0.5000 
     65 C           4.2618  -12.9312  -49.2838 C.2       1 UNK         0.5000 
     66 O           3.9265  -12.6440  -48.1316 O.2       1 UNK        -0.5000 
     67 C          -1.8821  -22.8214  -46.9370 C.2       11 UNK         0.5000 
     68 O          -1.8342  -23.4591  -47.9899 O.2       11 UNK        -0.5000 
     69 N          -2.8678  -22.9645  -46.0399 N.am      12 UNK        -0.5000 
     70 CA         -3.9488  -23.9455  -46.1338 C.3       12 UNK         0.1400 
     71 CB         -5.0717  -23.5823  -45.1519 C.3       12 UNK        -0.1800 
     72 C          -3.4582  -25.3834  -45.9073 C.2       12 UNK         0.5000 
     73 O          -3.8671  -26.2754  -46.6491 O.2       12 UNK        -0.5000 
     74 N          -2.5567  -25.5832  -44.9346 N.am      13 UNK        -0.5000 
     75 CA         -1.9022  -26.8686  -44.6646 C.3       13 UNK         0.1400 
     76 CB         -1.0851  -26.7715  -43.3678 C.3       13 UNK        -0.1800 
     77 C          -1.0217  -27.3496  -45.8362 C.2       13 UNK         0.5000 
     78 O          -0.9822  -28.5471  -46.1195 O.2       13 UNK        -0.5000 
     79 N          -0.3764  -26.3997  -46.5262 N.am      14 UNK        -0.5000 
     80 CA          0.3750  -26.6088  -47.7657 C.3       14 UNK         0.1400 
     81 CB          1.3131  -25.4084  -47.9741 C.3       14 UNK        -0.1800 
     82 C          -0.5204  -26.8105  -49.0086 C.2       14 UNK         0.5000 
     83 O           0.0043  -27.1381  -50.0733 O.2       14 UNK        -0.5000 
     84 N          -1.8369  -26.5908  -48.8636 N.am      15 UNK        -0.5000 
     85 CA         -2.8859  -26.6448  -49.8888 C.3       15 UNK         0.1400 
     86 CB         -3.0108  -28.0594  -50.4904 C.3       15 UNK        -0.1800 
     87 C          -2.7673  -25.5463  -50.9668 C.2       15 UNK         0.5000 
     88 O          -3.3864  -25.6594  -52.0249 O.2       15 UNK        -0.5000 
     89 N          -2.0126  -24.4813  -50.6737 N.am      16 UNK        -0.5000 
     90 CA         -1.8346  -23.3250  -51.5458 C.3       16 UNK         0.1400 
     91 CB         -0.4715  -22.6793  -51.2656 C.3       16 UNK        -0.1800 
     92 C          -2.9949  -22.3291  -51.3926 C.2       16 UNK         0.5000 
     93 O          -3.5028  -21.8350  -52.3985 O.2       16 UNK        -0.5000 
     94 N          -3.4656  -22.1025  -50.1565 N.am      17 UNK        -0.5000 
     95 CA         -4.6700  -21.3000  -49.9020 C.3       17 UNK         0.1400 
     96 CB         -4.7603  -20.8920  -48.4273 C.3       17 UNK        -0.1800 
     97 C          -5.9543  -22.0135  -50.3646 C.2       17 UNK         0.5000 
     98 O          -6.9027  -21.3454  -50.7736 O.2       17 UNK        -0.5000 
     99 N          -5.9351  -23.3554  -50.3734 N.am      18 UNK        -0.5000 
    100 CA        -6.9742  -24.1999  -50.9718 C.3       18 UNK         0.1400 
    101 CB        -6.7608  -25.6571  -50.5347 C.3       18 UNK        -0.1800 
    102 C         -7.0187  -24.0881  -52.5116 C.2       18 UNK         0.5000 
    103 O         -8.0832  -24.2694  -53.1020 O.2       18 UNK        -0.5000 
    104 N         -5.8776  -23.7413  -53.1243 N.am      19 UNK        -0.5000 
    105 CA        -5.7318  -23.3963  -54.5402 C.3       19 UNK         0.1400 
    106 CB        -4.3566  -23.8808  -55.0316 C.3       19 UNK        -0.1800 
    107 C         -5.9331  -21.8849  -54.8008 C.2       19 UNK         0.5000 
    108 O         -5.6484  -21.4198  -55.9052 O.2       19 UNK        -0.5000 
    109 N         -6.4347  -21.1536  -53.7937 N.am      20 UNK        -0.5000 
    110 CA        -6.8109  -19.7397  -53.8025 C.3       20 UNK         0.1400 
    111 CB        -7.9203  -19.4624  -54.8401 C.3       20 UNK        -0.1800 
    112 C         -5.6215  -18.7644  -53.9049 C.2       20 UNK         0.5000 
    113 O         -5.7676  -17.6958  -54.5024 O.2       20 UNK        -0.5000 
    114 N         -4.4845  -19.0977  -53.2692 N.am      21 UNK        -0.5000 
    115 CA        -3.3111  -18.2159  -53.1443 C.3       21 UNK         0.1400 
    116 CB        -2.1943  -18.9232  -52.3607 C.3       21 UNK        -0.1800 
    117 C         -3.6125  -16.8450  -52.5019 C.2       21 UNK         0.5000 
    118 O         -2.9788  -15.8558  -52.8704 O.2       21 UNK        -0.5000 
    119 N         -4.5995  -16.8047  -51.5958 N.am      22 UNK        -0.5000 
    120 CA        -5.1263  -15.5717  -50.9895 C.3       22 UNK         0.1400 
    121 C         -5.9887  -14.6901  -51.9444 C.2       22 UNK         0.5000 
    122 N         -6.3266  -15.1249  -53.1534 N.am      22 UNK        -0.7600 
    123 O         -6.3578  -13.5771  -51.5798 O.2       22 UNK        -0.5000 
    124 C124       -5.8822  -15.8324  -49.6581 C.3       23 UNK        -0.0398 
    125 S125       -5.0061  -16.8795  -48.4430 S.3       23 UNK        -0.2404 
    126 C126       -3.7349  -15.7509  -47.7816 C.3       23 UNK        -0.0205 
    127 H127        0.6966   -9.8132  -49.8491 H         1 UNK         0.0600 
    128 H128        1.9670   -8.7201  -49.2940 H         1 UNK         0.0600 
    129 H129        1.5102   -8.7498  -51.0008 H         1 UNK         0.0600 
    130 H130        1.3904  -11.9129  -50.0143 H         1 UNK         0.3000 
    131 H131        3.7644  -12.7407  -51.3685 H         1 UNK         0.0600 
    132 H132        1.8892  -14.3536  -49.5491 H         1 UNK         0.0800 
    133 H133        3.1276  -15.0376  -50.5612 H         1 UNK         0.0800 
    134 H134       -0.3610  -13.1365  -50.6284 H         1 UNK         0.0800 
    135 H135       -1.0717  -14.0651  -51.9203 H         1 UNK         0.0800 
    136 H136       -2.5017  -14.0692  -49.5605 H         1 UNK         0.1150 
    137 H137       -2.0327  -17.8274  -47.5845 H         1 UNK         0.1150 
    138 H138        0.8404  -16.5914  -50.5009 H         1 UNK         0.1150 
    139 H139        0.8624  -18.5524  -47.8750 H         1 UNK         0.0800 
    140 H140        1.0375  -18.7373  -49.5987 H         1 UNK         0.0800 
    141 H141       -2.1233  -20.1279  -46.8223 H         1 UNK         0.0800 
    142 H142       -0.4917  -19.6702  -46.4736 H         1 UNK         0.0800 
    143 H143        0.1406  -22.1527  -47.1289 H         1 UNK         0.0600 
    144 H144       -0.5325  -21.0027  -44.6435 H         1 UNK         0.3000 
    145 H145        0.2670  -23.7864  -42.5691 H         1 UNK         0.0600 
    146 H146        1.6982  -21.9916  -41.5704 H         1 UNK         0.0600 
    147 H147        2.4270  -22.6776  -43.0146 H         1 UNK         0.0600 
    148 H148        1.6531  -21.1029  -43.0935 H         1 UNK         0.0600 
    149 H149       -0.6914  -21.0805  -42.1669 H         1 UNK         0.3000 
    150 H150       -4.1631  -21.9460  -42.1042 H         1 UNK         0.0600 
    151 H151       -2.2299  -21.0925  -39.8812 H         1 UNK         0.0600 
    152 H152       -3.2908  -22.4953  -39.8279 H         1 UNK         0.0600 
    153 H153       -3.9809  -20.8811  -39.8753 H         1 UNK         0.0600 
    154 H154       -2.7676  -19.4801  -41.6894 H         1 UNK         0.3000 
    155 H155       -2.5956  -18.4425  -45.0772 H         1 UNK         0.0600 
    156 H156       -3.9707  -16.5407  -44.2798 H         1 UNK         0.0600 
    157 H157       -4.5299  -17.4889  -42.9019 H         1 UNK         0.0600 
    158 H158       -4.9761  -17.9574  -44.5398 H         1 UNK         0.0600 
    159 H159       -2.0532  -16.9764  -42.7449 H         1 UNK         0.3000 
    160 H160        0.1147  -17.5066  -41.3306 H         1 UNK         0.0600 
    161 H161        2.2149  -17.9648  -43.5096 H         1 UNK         0.0600 
    162 H162        1.9644  -18.9186  -42.0553 H         1 UNK         0.0600 
    163 H163        2.5510  -17.2698  -41.9249 H         1 UNK         0.0600 
    164 H164        0.9644  -15.7563  -43.5516 H         1 UNK         0.3000 
    165 H165       -1.4606  -13.2939  -42.9241 H         1 UNK         0.0600 
    166 H166        0.3555  -11.7270  -42.2747 H         1 UNK         0.0600 
    167 H167        1.4025  -13.0794  -41.8415 H         1 UNK         0.0600 
    168 H168       -0.0630  -12.7632  -40.9204 H         1 UNK         0.0600 
    169 H169        1.0743  -13.2020  -44.2687 H         1 UNK         0.3000 
    170 H170        0.2034  -14.9088  -47.1994 H         1 UNK         0.0600 
    171 H171       -0.9595  -12.7245  -47.6265 H         1 UNK         0.0600 
    172 H172        0.6326  -12.7568  -48.3595 H         1 UNK         0.0600 
    173 H173        0.3725  -11.8608  -46.8667 H         1 UNK         0.0600 
    174 H174        2.4365  -13.2695  -46.6932 H         1 UNK         0.3000 
    175 H175        4.4839  -14.2568  -46.2118 H         1 UNK         0.0600 
    176 H176        3.6840  -14.3577  -43.2700 H         1 UNK         0.0600 
    177 H177        5.1934  -13.7020  -43.9036 H         1 UNK         0.0600 
    178 H178        3.6691  -12.9345  -44.3055 H         1 UNK         0.0600 
    179 H179        4.8705  -16.2188  -44.1315 H         1 UNK         0.3000 
    180 H180        5.7831  -17.6692  -47.8395 H         1 UNK         0.0600 
    181 H181        2.8803  -16.7416  -47.8944 H         1 UNK         0.0600 
    182 H182        3.3649  -18.3863  -47.5041 H         1 UNK         0.0600 
    183 H183        3.7448  -17.7096  -49.0774 H         1 UNK         0.0600 
    184 H184        4.6515  -15.2939  -48.6994 H         1 UNK         0.3000 
    185 H185        6.5815  -12.8504  -47.9311 H         1 UNK         0.0600 
    186 H186        7.9902  -12.5698  -49.9738 H         1 UNK         0.0600 
    187 H187        8.7647  -13.6338  -48.8143 H         1 UNK         0.0600 
    188 H188        7.9789  -14.3145  -50.2339 H         1 UNK         0.0600 
    189 H189        5.6564  -13.6266  -50.5838 H         1 UNK         0.3000 
    190 H190       -2.9024  -22.3307  -45.2470 H         1 UNK         0.3000 
    191 H191       -4.3605  -23.9060  -47.1438 H         1 UNK         0.0600 
    192 H192       -5.8969  -24.2920  -45.2220 H         1 UNK         0.0600 
    193 H193       -5.4754  -22.5923  -45.3648 H         1 UNK         0.0600 
    194 H194       -4.7228  -23.5846  -44.1193 H         1 UNK         0.0600 
    195 H195       -2.3117  -24.8088  -44.3262 H         1 UNK         0.3000 
    196 H196       -2.6865  -27.6134  -44.5144 H         1 UNK         0.0600 
    197 H197       -0.2741  -26.0490  -43.4544 H         1 UNK         0.0600 
    198 H198       -1.7119  -26.4726  -42.5274 H         1 UNK         0.0600 
    199 H199       -0.6395  -27.7344  -43.1157 H         1 UNK         0.0600 
    200 H200       -0.3908  -25.4510  -46.1633 H         1 UNK         0.3000 
    201 H201        0.9862  -27.5064  -47.6535 H         1 UNK         0.0600 
    202 H202        0.7553  -24.4803  -48.1025 H         1 UNK         0.0600 
    203 H203        1.9342  -25.5430  -48.8604 H         1 UNK         0.0600 
    204 H204        1.9842  -25.2800  -47.1246 H         1 UNK         0.0600 
    205 H205       -2.1672  -26.3377  -47.9405 H         1 UNK         0.3000 
    206 H206       -3.8185  -26.4367  -49.3637 H         1 UNK         0.0600 
    207 H207       -3.1001  -28.8134  -49.7084 H         1 UNK         0.0600 
    208 H208       -3.8985  -28.1398  -51.1189 H         1 UNK         0.0600 
    209 H209       -2.1509  -28.3158  -51.1094 H         1 UNK         0.0600 
    210 H210       -1.6144  -24.4128  -49.7430 H         1 UNK         0.3000 
    211 H211       -1.8305  -23.6561  -52.5866 H         1 UNK         0.0600 
    212 H212       -0.3827  -21.7052  -51.7486 H         1 UNK         0.0600 
    213 H213        0.3371  -23.3055  -51.6425 H         1 UNK         0.0600 
    214 H214       -0.3036  -22.5425  -50.1985 H         1 UNK         0.0600 
    215 H215       -2.9948  -22.5281  -49.3656 H         1 UNK         0.3000 
    216 H216       -4.5910  -20.3783  -50.4823 H         1 UNK         0.0600 
    217 H217       -4.7892  -21.7523  -47.7636 H         1 UNK         0.0600 
    218 H218       -5.6619  -20.3070  -48.2404 H         1 UNK         0.0600 
    219 H219       -3.9163  -20.2655  -48.1472 H         1 UNK         0.0600 
    220 H220       -5.1120  -23.8229  -50.0270 H         1 UNK         0.3000 
    221 H221       -7.9412  -23.8680  -50.5876 H         1 UNK         0.0600 
    222 H222       -6.7286  -25.7462  -49.4486 H         1 UNK         0.0600 
    223 H223       -5.8354  -26.0691  -50.9356 H         1 UNK         0.0600 
    224 H224       -7.5761  -26.2896  -50.8879 H         1 UNK         0.0600 
    225 H225       -5.0477  -23.6118  -52.5628 H         1 UNK         0.3000 
    226 H226       -6.4942  -23.9225  -55.1180 H         1 UNK         0.0600 
    227 H227       -3.5405  -23.3410  -54.5521 H         1 UNK         0.0600 
    228 H228       -4.2178  -24.9431  -54.8294 H         1 UNK         0.0600 
    229 H229       -4.2528  -23.7402  -56.1080 H         1 UNK         0.0600 
    230 H230       -6.6089  -21.6264  -52.9163 H         1 UNK         0.3000 
    231 H231       -7.2482  -19.5512  -52.8214 H         1 UNK         0.0600 
    232 H232       -8.7520  -20.1573  -54.7241 H         1 UNK         0.0600 
    233 H233       -7.5517  -19.5460  -55.8627 H         1 UNK         0.0600 
    234 H234       -8.3233  -18.4559  -54.7218 H         1 UNK         0.0600 
    235 H235       -4.3940  -20.0270  -52.8726 H         1 UNK         0.3000 
    236 H236       -2.9439  -18.0229  -54.1542 H         1 UNK         0.0600 
    237 H237       -1.8435  -19.8099  -52.8874 H         1 UNK         0.0600 
    238 H238       -1.3315  -18.2686  -52.2285 H         1 UNK         0.0600 
    239 H239       -2.5261  -19.2231  -51.3661 H         1 UNK         0.0600 
    240 H240       -5.0622  -17.6629  -51.3400 H         1 UNK         0.3000 
    241 H241       -4.2680  -14.9479  -50.7491 H         1 UNK         0.0600 
    242 H242       -6.8809  -14.5310  -53.7493 H         1 UNK         0.3800 
    243 H243       -6.0219  -16.0286  -53.5008 H         1 UNK         0.3800 
    244 H244       -6.8362  -16.3191  -49.8676 H         1 UNK         0.0800 
    245 H245       -6.1329  -14.8880  -49.1719 H         1 UNK         0.0800 
    246 H246       -3.5879  -15.9672  -46.7226 H         1 UNK         0.0800 
    247 H247       -4.0736  -14.7155  -47.8372 H         1 UNK         0.0800 
@<TRIPOS>BOND
     1    1    2 1    
     2    1  127 1    
     3    1  128 1    
     4    1  129 1    
     5    2    3 2    
     6    2    4 am   BACKBONE|DICT|INTERRES
     7    4    5 1    
     8    4  130 1    
     9    5    6 1    
    10    5   65 1    
    11    5  131 1    
    12    6    7 1    
    13    6  132 1    
    14    6  133 1    
    15    7    8 1    
    16    8    9 1    
    17    8  134 1    
    18    8  135 1    
    19    9   10 ar   
    20    9   14 ar   
    21   10   11 ar   
    22   10  136 1    
    23   11   12 ar   
    24   11  126 1    
    25   12   13 ar   
    26   12  137 1    
    27   13   14 ar   
    28   13   15 1    
    29   14  138 1    
    30   15   16 1    
    31   15  139 1    
    32   15  140 1    
    33   16   17 1    
    34   17   18 1    
    35   17  141 1    
    36   17  142 1    
    37   18   19 1    
    38   18   67 1    
    39   18  143 1    
    40   19   20 am   BACKBONE|DICT|INTERRES
    41   19  144 1    
    42   20   21 2    
    43   20   22 1    
    44   22   23 1    
    45   22   24 1    
    46   22  145 1    
    47   23  146 1    
    48   23  147 1    
    49   23  148 1    
    50   24   25 am   BACKBONE|DICT|INTERRES
    51   24  149 1    
    52   25   26 2    
    53   25   27 1    
    54   27   28 1    
    55   27   29 1    
    56   27  150 1    
    57   28  151 1    
    58   28  152 1    
    59   28  153 1    
    60   29   30 am   BACKBONE|DICT|INTERRES
    61   29  154 1    
    62   30   31 2    
    63   30   32 1    
    64   32   33 1    
    65   32   34 1    
    66   32  155 1    
    67   33  156 1    
    68   33  157 1    
    69   33  158 1    
    70   34   35 am   BACKBONE|DICT|INTERRES
    71   34  159 1    
    72   35   36 2    
    73   35   37 1    
    74   37   38 1    
    75   37   39 1    
    76   37  160 1    
    77   38  161 1    
    78   38  162 1    
    79   38  163 1    
    80   39   40 am   BACKBONE|DICT|INTERRES
    81   39  164 1    
    82   40   41 2    
    83   40   42 1    
    84   42   43 1    
    85   42   44 1    
    86   42  165 1    
    87   43  166 1    
    88   43  167 1    
    89   43  168 1    
    90   44   45 am   BACKBONE|DICT|INTERRES
    91   44  169 1    
    92   45   46 2    
    93   45   47 1    
    94   47   48 1    
    95   47   49 1    
    96   47  170 1    
    97   48  171 1    
    98   48  172 1    
    99   48  173 1    
   100   49   50 am   BACKBONE|DICT|INTERRES
   101   49  174 1    
   102   50   51 2    
   103   50   52 1    
   104   52   53 1    
   105   52   54 1    
   106   52  175 1    
   107   53  176 1    
   108   53  177 1    
   109   53  178 1    
   110   54   55 am   BACKBONE|DICT|INTERRES
   111   54  179 1    
   112   55   56 2    
   113   55   57 1    
   114   57   58 1    
   115   57   59 1    
   116   57  180 1    
   117   58  181 1    
   118   58  182 1    
   119   58  183 1    
   120   59   60 am   BACKBONE|DICT|INTERRES
   121   59  184 1    
   122   60   61 2    
   123   60   62 1    
   124   62   63 1    
   125   62   64 1    
   126   62  185 1    
   127   63  186 1    
   128   63  187 1    
   129   63  188 1    
   130   64   65 am   BACKBONE|DICT|INTERRES
   131   64  189 1    
   132   65   66 2    
   133   67   68 2    
   134   67   69 am   BACKBONE|DICT|INTERRES
   135   69   70 1    
   136   69  190 1    
   137   70   71 1    
   138   70   72 1    
   139   70  191 1    
   140   71  192 1    
   141   71  193 1    
   142   71  194 1    
   143   72   73 2    
   144   72   74 am   BACKBONE|DICT|INTERRES
   145   74   75 1    
   146   74  195 1    
   147   75   76 1    
   148   75   77 1    
   149   75  196 1    
   150   76  197 1    
   151   76  198 1    
   152   76  199 1    
   153   77   78 2    
   154   77   79 am   BACKBONE|DICT|INTERRES
   155   79   80 1    
   156   79  200 1    
   157   80   81 1    
   158   80   82 1    
   159   80  201 1    
   160   81  202 1    
   161   81  203 1    
   162   81  204 1    
   163   82   83 2    
   164   82   84 am   BACKBONE|DICT|INTERRES
   165   84   85 1    
   166   84  205 1    
   167   85   86 1    
   168   85   87 1    
   169   85  206 1    
   170   86  207 1    
   171   86  208 1    
   172   86  209 1    
   173   87   88 2    
   174   87   89 am   BACKBONE|DICT|INTERRES
   175   89   90 1    
   176   89  210 1    
   177   90   91 1    
   178   90   92 1    
   179   90  211 1    
   180   91  212 1    
   181   91  213 1    
   182   91  214 1    
   183   92   93 2    
   184   92   94 am   BACKBONE|DICT|INTERRES
   185   94   95 1    
   186   94  215 1    
   187   95   96 1    
   188   95   97 1    
   189   95  216 1    
   190   96  217 1    
   191   96  218 1    
   192   96  219 1    
   193   97   98 2    
   194   97   99 am   BACKBONE|DICT|INTERRES
   195   99  100 1    
   196   99  220 1    
   197  100  101 1    
   198  100  102 1    
   199  100  221 1    
   200  101  222 1    
   201  101  223 1    
   202  101  224 1    
   203  102  103 2    
   204  102  104 am   BACKBONE|DICT|INTERRES
   205  104  105 1    
   206  104  225 1    
   207  105  106 1    
   208  105  107 1    
   209  105  226 1    
   210  106  227 1    
   211  106  228 1    
   212  106  229 1    
   213  107  108 2    
   214  107  109 am   BACKBONE|DICT|INTERRES
   215  109  110 1    
   216  109  230 1    
   217  110  111 1    
   218  110  112 1    
   219  110  231 1    
   220  111  232 1    
   221  111  233 1    
   222  111  234 1    
   223  112  113 2    
   224  112  114 am   BACKBONE|DICT|INTERRES
   225  114  115 1    
   226  114  235 1    
   227  115  116 1    
   228  115  117 1    
   229  115  236 1    
   230  116  237 1    
   231  116  238 1    
   232  116  239 1    
   233  117  118 2    
   234  117  119 am   BACKBONE|DICT|INTERRES
   235  119  120 1    
   236  119  240 1    
   237  120  121 1    
   238  120  124 1    
   239  120  241 1    
   240  121  122 am   BACKBONE|DICT|INTERRES
   241  121  123 2    
   242  122  242 1    
   243  122  243 1    
   244  124  125 1    
   245  124  244 1    
   246  124  245 1    
   247  125  126 1    
   248  126  246 1    
   249  126  247 1    
@<TRIPOS>SUBSTRUCTURE
     1 UNK         1 GROUP             0       ****    0 ROOT    
