@<TRIPOS>MOLECULE
3R540
247   249    1
SMALL
USER_CHARGES


@<TRIPOS>ATOM
      1 CA          2.6197  -14.8605  -40.1896 C.3       0 UNK        -0.1800 
      2 C           1.9476  -14.4550  -41.4936 C.2       0 UNK         0.5000 
      3 O           2.0914  -15.1623  -42.4886 O.2       0 UNK        -0.5000 
      4 N           1.2375  -13.3158  -41.4785 N.am      1 UNK        -0.5000 
      5 CA          0.4523  -12.7093  -42.5681 C.3       1 UNK         0.1400 
      6 C6         -0.9856  -13.2898  -42.7068 C.3       23 UNK        -0.0398 
      7 S7         -1.1291  -14.9996  -43.3388 S.3       23 UNK        -0.2404 
      8 C8         -2.8111  -14.9466  -44.0308 C.3       23 UNK        -0.0205 
      9 C9         -3.1576  -16.2478  -44.7336 C.ar      23 UNK        -0.0193 
     10 C10        -2.8378  -16.4227  -46.0834 C.ar      23 UNK        -0.1150 
     11 C11        -3.1234  -17.6279  -46.7269 C.ar      23 UNK        -0.0193 
     12 C12        -3.7496  -18.6553  -46.0196 C.ar      23 UNK        -0.1150 
     13 C13        -4.0855  -18.4890  -44.6745 C.ar      23 UNK        -0.0193 
     14 C14        -3.7898  -17.2815  -44.0350 C.ar      23 UNK        -0.1150 
     15 C15        -4.7322  -19.6351  -43.9125 C.3       23 UNK        -0.0205 
     16 S16        -3.5897  -20.4512  -42.7465 S.3       23 UNK        -0.2404 
     17 C17        -2.0350  -20.5992  -43.6949 C.3       23 UNK        -0.0398 
     18 CA         -2.0502  -21.7040  -44.7784 C.3       11 UNK         0.1400 
     19 N          -1.0679  -21.4369  -45.8402 N.am      11 UNK        -0.5000 
     20 C          -0.8543  -22.2066  -46.9172 C.2       10 UNK         0.5000 
     21 O          -1.4992  -23.2216  -47.1704 O.2       10 UNK        -0.5000 
     22 CA          0.2900  -21.8139  -47.8599 C.3       10 UNK         0.1400 
     23 CB         -0.1856  -20.8064  -48.9107 C.3       10 UNK        -0.1800 
     24 N           1.4453  -21.2965  -47.1306 N.am      10 UNK        -0.5000 
     25 C           2.2979  -22.0765  -46.4501 C.2       9 UNK         0.5000 
     26 O           2.2606  -23.3071  -46.4672 O.2       9 UNK        -0.5000 
     27 CA          3.3331  -21.3653  -45.5598 C.3       9 UNK         0.1400 
     28 CB          4.5851  -20.9859  -46.3640 C.3       9 UNK        -0.1800 
     29 N           2.7845  -20.1764  -44.9049 N.am      9 UNK        -0.5000 
     30 C           1.8258  -20.2124  -43.9680 C.2       8 UNK         0.5000 
     31 O           1.3333  -21.2567  -43.5391 O.2       8 UNK        -0.5000 
     32 CA          1.2976  -18.8639  -43.4413 C.3       8 UNK         0.1400 
     33 CB          2.0533  -18.4588  -42.1681 C.3       8 UNK        -0.1800 
     34 N           1.3392  -17.7658  -44.4104 N.am      8 UNK        -0.5000 
     35 C           0.7498  -17.7623  -45.6167 C.2       7 UNK         0.5000 
     36 O           0.1039  -18.7187  -46.0539 O.2       7 UNK        -0.5000 
     37 CA          0.9090  -16.4859  -46.4764 C.3       7 UNK         0.1400 
     38 CB          2.0351  -15.5489  -45.9977 C.3       7 UNK        -0.1800 
     39 N           1.0986  -16.7379  -47.9070 N.am      7 UNK        -0.5000 
     40 C           2.0484  -17.4965  -48.4755 C.2       6 UNK         0.5000 
     41 O           2.7728  -18.2727  -47.8506 O.2       6 UNK        -0.5000 
     42 CA          2.2701  -17.3316  -49.9953 C.3       6 UNK         0.1400 
     43 CB          1.7102  -18.5260  -50.7750 C.3       6 UNK        -0.1800 
     44 N           1.7116  -16.0941  -50.5476 N.am      6 UNK        -0.5000 
     45 C           2.2223  -14.8726  -50.3286 C.2       5 UNK         0.5000 
     46 O           3.2384  -14.6712  -49.6621 O.2       5 UNK        -0.5000 
     47 CA          1.4902  -13.6639  -50.9495 C.3       5 UNK         0.1400 
     48 CB          0.5808  -14.0224  -52.1404 C.3       5 UNK        -0.1800 
     49 N           0.7364  -12.8852  -49.9628 N.am      5 UNK        -0.5000 
     50 C          -0.1655  -13.3273  -49.0743 C.2       4 UNK         0.5000 
     51 O          -0.4582  -14.5149  -48.9213 O.2       4 UNK        -0.5000 
     52 CA         -0.8512  -12.2461  -48.2149 C.3       4 UNK         0.1400 
     53 CB         -1.8402  -12.8393  -47.1971 C.3       4 UNK        -0.1800 
     54 N           0.1218  -11.4184  -47.4996 N.am      4 UNK        -0.5000 
     55 C           0.7576  -10.3527  -48.0067 C.2       3 UNK         0.5000 
     56 O           0.6175   -9.9785  -49.1720 O.2       3 UNK        -0.5000 
     57 CA          1.7142   -9.5755  -47.0777 C.3       3 UNK         0.1400 
     58 CB          1.0007   -8.3545  -46.4775 C.3       3 UNK        -0.1800 
     59 N           2.2592  -10.3864  -45.9888 N.am      3 UNK        -0.5000 
     60 C           3.1468  -11.3767  -46.1465 C.2       2 UNK         0.5000 
     61 O           3.6757  -11.6470  -47.2249 O.2       2 UNK        -0.5000 
     62 CA          3.5046  -12.2152  -44.9008 C.3       2 UNK         0.1400 
     63 CB          4.8575  -11.7659  -44.3277 C.3       2 UNK        -0.1800 
     64 N           2.5173  -12.2267  -43.8122 N.am      2 UNK        -0.5000 
     65 C           1.2175  -12.5496  -43.9041 C.2       1 UNK         0.5000 
     66 O           0.6317  -12.7026  -44.9751 O.2       1 UNK        -0.5000 
     67 C          -1.8671  -23.1023  -44.1515 C.2       11 UNK         0.5000 
     68 O          -2.8281  -23.8685  -44.0666 O.2       11 UNK        -0.5000 
     69 N          -0.6146  -23.4345  -43.8072 N.am      12 UNK        -0.5000 
     70 CA         -0.1925  -24.7380  -43.2874 C.3       12 UNK         0.1400 
     71 CB          1.2801  -24.6393  -42.8609 C.3       12 UNK        -0.1800 
     72 C          -0.3872  -25.9069  -44.2771 C.2       12 UNK         0.5000 
     73 O          -0.4462  -27.0589  -43.8465 O.2       12 UNK        -0.5000 
     74 N          -0.4961  -25.5912  -45.5728 N.am      13 UNK        -0.5000 
     75 CA         -0.7283  -26.5248  -46.6713 C.3       13 UNK         0.1400 
     76 CB          0.2892  -26.2178  -47.7840 C.3       13 UNK        -0.1800 
     77 C          -2.1807  -26.4591  -47.1900 C.2       13 UNK         0.5000 
     78 O          -2.4369  -26.9243  -48.3004 O.2       13 UNK        -0.5000 
     79 N          -3.1027  -25.8788  -46.4036 N.am      14 UNK        -0.5000 
     80 CA         -4.5328  -25.7106  -46.6931 C.3       14 UNK         0.1400 
     81 CB         -5.2466  -27.0781  -46.7429 C.3       14 UNK        -0.1800 
     82 C          -4.7788  -24.8563  -47.9536 C.2       14 UNK         0.5000 
     83 O          -5.4213  -25.3088  -48.9033 O.2       14 UNK        -0.5000 
     84 N          -4.2084  -23.6438  -47.9433 N.am      15 UNK        -0.5000 
     85 CA         -4.1629  -22.6710  -49.0411 C.3       15 UNK         0.1400 
     86 CB         -5.5690  -22.1304  -49.3724 C.3       15 UNK        -0.1800 
     87 C          -3.4182  -23.2343  -50.2674 C.2       15 UNK         0.5000 
     88 O          -3.8874  -23.0934  -51.3959 O.2       15 UNK        -0.5000 
     89 N          -2.2818  -23.8973  -50.0014 N.am      16 UNK        -0.5000 
     90 CA         -1.4237  -24.5993  -50.9630 C.3       16 UNK         0.1400 
     91 CB         -0.6631  -23.5862  -51.8422 C.3       16 UNK        -0.1800 
     92 C          -2.2001  -25.6562  -51.7789 C.2       16 UNK         0.5000 
     93 O          -2.1771  -25.6333  -53.0103 O.2       16 UNK        -0.5000 
     94 N          -2.8930  -26.5466  -51.0544 N.am      17 UNK        -0.5000 
     95 CA         -3.7948  -27.5909  -51.5459 C.3       17 UNK         0.1400 
     96 CB         -3.0184  -28.6639  -52.3382 C.3       17 UNK        -0.1800 
     97 C          -5.0017  -27.0116  -52.3132 C.2       17 UNK         0.5000 
     98 O          -5.2984  -27.4494  -53.4269 O.2       17 UNK        -0.5000 
     99 N          -5.6768  -26.0384  -51.6836 N.am      18 UNK        -0.5000 
    100 CA        -6.8714  -25.3328  -52.1581 C.3       18 UNK         0.1400 
    101 CB        -8.0865  -26.2837  -52.1817 C.3       18 UNK        -0.1800 
    102 C         -6.6611  -24.5812  -53.4910 C.2       18 UNK         0.5000 
    103 O         -7.5299  -24.6102  -54.3660 O.2       18 UNK        -0.5000 
    104 N         -5.5124  -23.9082  -53.6143 N.am      19 UNK        -0.5000 
    105 CA        -5.1948  -22.9807  -54.6970 C.3       19 UNK         0.1400 
    106 CB        -3.6743  -23.0182  -54.9310 C.3       19 UNK        -0.1800 
    107 C         -5.6759  -21.5590  -54.3398 C.2       19 UNK         0.5000 
    108 O         -6.2821  -21.3525  -53.2846 O.2       19 UNK        -0.5000 
    109 N         -5.3944  -20.5905  -55.2243 N.am      20 UNK        -0.5000 
    110 CA        -5.6116  -19.1634  -54.9680 C.3       20 UNK         0.1400 
    111 CB        -5.4135  -18.3609  -56.2646 C.3       20 UNK        -0.1800 
    112 C         -4.6901  -18.6630  -53.8397 C.2       20 UNK         0.5000 
    113 O         -5.1893  -18.1914  -52.8189 O.2       20 UNK        -0.5000 
    114 N         -3.3748  -18.8454  -54.0445 N.am      21 UNK        -0.5000 
    115 CA        -2.2357  -18.7534  -53.1158 C.3       21 UNK         0.1400 
    116 CB        -2.3105  -19.8994  -52.0901 C.3       21 UNK        -0.1800 
    117 C         -1.9951  -17.4164  -52.3825 C.2       21 UNK         0.5000 
    118 O         -0.8383  -17.0411  -52.1892 O.2       21 UNK        -0.5000 
    119 N         -3.0656  -16.7571  -51.9403 N.am      22 UNK        -0.5000 
    120 CA        -3.0533  -15.7025  -50.9148 C.3       22 UNK         0.1400 
    121 C         -3.1748  -14.2591  -51.4809 C.2       22 UNK         0.5000 
    122 N         -3.1899  -14.0640  -52.7936 N.am      22 UNK        -0.7600 
    123 O         -3.2460  -13.2973  -50.7212 O.2       22 UNK        -0.5000 
    124 C124       -4.1069  -15.9719  -49.8025 C.3       23 UNK        -0.0398 
    125 S125       -4.1854  -17.7194  -49.2664 S.3       23 UNK        -0.2404 
    126 C126       -2.7383  -17.8451  -48.1773 C.3       23 UNK        -0.0205 
    127 H127        3.6966  -14.9462  -40.3346 H         1 UNK         0.0600 
    128 H128        2.2418  -15.8281  -39.8596 H         1 UNK         0.0600 
    129 H129        2.4395  -14.1358  -39.3954 H         1 UNK         0.0600 
    130 H130        1.2015  -12.8013  -40.6095 H         1 UNK         0.3000 
    131 H131        0.3111  -11.6791  -42.2378 H         1 UNK         0.0600 
    132 H132       -1.4824  -13.2556  -41.7366 H         1 UNK         0.0800 
    133 H133       -1.5709  -12.6332  -43.3526 H         1 UNK         0.0800 
    134 H134       -3.5250  -14.7497  -43.2297 H         1 UNK         0.0800 
    135 H135       -2.8973  -14.1154  -44.7313 H         1 UNK         0.0800 
    136 H136       -2.3510  -15.6296  -46.6306 H         1 UNK         0.1150 
    137 H137       -3.9638  -19.5897  -46.5190 H         1 UNK         0.1150 
    138 H138       -4.0323  -17.1561  -42.9891 H         1 UNK         0.1150 
    139 H139       -5.5939  -19.2601  -43.3588 H         1 UNK         0.0800 
    140 H140       -5.1216  -20.3829  -44.6051 H         1 UNK         0.0800 
    141 H141       -1.2338  -20.7729  -42.9762 H         1 UNK         0.0800 
    142 H142       -1.8060  -19.6321  -44.1414 H         1 UNK         0.0800 
    143 H143       -3.0260  -21.6929  -45.2672 H         1 UNK         0.0600 
    144 H144       -0.5283  -20.5803  -45.7573 H         1 UNK         0.3000 
    145 H145        0.5875  -22.7198  -48.3926 H         1 UNK         0.0600 
    146 H146        0.4732  -20.8320  -49.7758 H         1 UNK         0.0600 
    147 H147       -1.1865  -21.0451  -49.2718 H         1 UNK         0.0600 
    148 H148       -0.2036  -19.7885  -48.5226 H         1 UNK         0.0600 
    149 H149        1.5208  -20.2903  -47.0392 H         1 UNK         0.3000 
    150 H150        3.6345  -22.0679  -44.7798 H         1 UNK         0.0600 
    151 H151        5.0349  -21.8682  -46.8211 H         1 UNK         0.0600 
    152 H152        5.3415  -20.5298  -45.7253 H         1 UNK         0.0600 
    153 H153        4.3549  -20.2846  -47.1659 H         1 UNK         0.0600 
    154 H154        3.1056  -19.2789  -45.2394 H         1 UNK         0.3000 
    155 H155        0.2531  -19.0047  -43.1680 H         1 UNK         0.0600 
    156 H156        2.0990  -19.2840  -41.4559 H         1 UNK         0.0600 
    157 H157        1.5524  -17.6328  -41.6646 H         1 UNK         0.0600 
    158 H158        3.0772  -18.1527  -42.3857 H         1 UNK         0.0600 
    159 H159        1.8064  -16.9227  -44.1000 H         1 UNK         0.3000 
    160 H160       -0.0287  -15.9390  -46.3856 H         1 UNK         0.0600 
    161 H161        3.0067  -16.0440  -45.9887 H         1 UNK         0.0600 
    162 H162        1.8351  -15.1785  -44.9959 H         1 UNK         0.0600 
    163 H163        2.1122  -14.6742  -46.6445 H         1 UNK         0.0600 
    164 H164        0.5546  -16.1289  -48.5119 H         1 UNK         0.3000 
    165 H165        3.3498  -17.3110  -50.1574 H         1 UNK         0.0600 
    166 H166        1.8933  -18.4227  -51.8446 H         1 UNK         0.0600 
    167 H167        2.1858  -19.4528  -50.4534 H         1 UNK         0.0600 
    168 H168        0.6351  -18.6257  -50.6285 H         1 UNK         0.0600 
    169 H169        0.8606  -16.1872  -51.0919 H         1 UNK         0.3000 
    170 H170        2.2720  -13.0039  -51.3281 H         1 UNK         0.0600 
    171 H171       -0.3024  -14.5697  -51.8197 H         1 UNK         0.0600 
    172 H172        0.2370  -13.1236  -52.6522 H         1 UNK         0.0600 
    173 H173        1.1058  -14.6326  -52.8764 H         1 UNK         0.0600 
    174 H174        0.9145  -11.8872  -49.9648 H         1 UNK         0.3000 
    175 H175       -1.4260  -11.6146  -48.8956 H         1 UNK         0.0600 
    176 H176       -1.3393  -13.5183  -46.5073 H         1 UNK         0.0600 
    177 H177       -2.3210  -12.0579  -46.6088 H         1 UNK         0.0600 
    178 H178       -2.6289  -13.3993  -47.7010 H         1 UNK         0.0600 
    179 H179        0.3454  -11.7247  -46.5553 H         1 UNK         0.3000 
    180 H180        2.5466   -9.2181  -47.6875 H         1 UNK         0.0600 
    181 H181        0.1647   -8.6495  -45.8419 H         1 UNK         0.0600 
    182 H182        0.6045   -7.7087  -47.2623 H         1 UNK         0.0600 
    183 H183        1.6840   -7.7529  -45.8778 H         1 UNK         0.0600 
    184 H184        1.8708  -10.2375  -45.0694 H         1 UNK         0.3000 
    185 H185        3.6127  -13.2467  -45.2389 H         1 UNK         0.0600 
    186 H186        4.8057  -10.7535  -43.9252 H         1 UNK         0.0600 
    187 H187        5.1888  -12.4298  -43.5289 H         1 UNK         0.0600 
    188 H188        5.6324  -11.7748  -45.0956 H         1 UNK         0.0600 
    189 H189        2.8944  -12.1099  -42.8831 H         1 UNK         0.3000 
    190 H190        0.1140  -22.7297  -43.8899 H         1 UNK         0.3000 
    191 H191       -0.7945  -24.9554  -42.4030 H         1 UNK         0.0600 
    192 H192        1.9249  -24.3922  -43.7056 H         1 UNK         0.0600 
    193 H193        1.4196  -23.8720  -42.0991 H         1 UNK         0.0600 
    194 H194        1.6326  -25.5823  -42.4411 H         1 UNK         0.0600 
    195 H195       -0.4769  -24.6133  -45.8324 H         1 UNK         0.3000 
    196 H196       -0.5613  -27.5507  -46.3380 H         1 UNK         0.0600 
    197 H197        1.3108  -26.3155  -47.4162 H         1 UNK         0.0600 
    198 H198        0.1730  -25.2033  -48.1640 H         1 UNK         0.0600 
    199 H199        0.1827  -26.9048  -48.6243 H         1 UNK         0.0600 
    200 H200       -2.7896  -25.4704  -45.5307 H         1 UNK         0.3000 
    201 H201       -4.9530  -25.1523  -45.8551 H         1 UNK         0.0600 
    202 H202       -6.3236  -26.9498  -46.8561 H         1 UNK         0.0600 
    203 H203       -5.0814  -27.6418  -45.8249 H         1 UNK         0.0600 
    204 H204       -4.9031  -27.6893  -47.5780 H         1 UNK         0.0600 
    205 H205       -3.5943  -23.4327  -47.1663 H         1 UNK         0.3000 
    206 H206       -3.5683  -21.8290  -48.6842 H         1 UNK         0.0600 
    207 H207       -6.0503  -21.7165  -48.4866 H         1 UNK         0.0600 
    208 H208       -6.2193  -22.9049  -49.7783 H         1 UNK         0.0600 
    209 H209       -5.5131  -21.3322  -50.1142 H         1 UNK         0.0600 
    210 H210       -2.0057  -23.9619  -49.0279 H         1 UNK         0.3000 
    211 H211       -0.6827  -25.1477  -50.3820 H         1 UNK         0.0600 
    212 H212       -0.1044  -22.8759  -51.2336 H         1 UNK         0.0600 
    213 H213        0.0528  -24.0931  -52.4900 H         1 UNK         0.0600 
    214 H214       -1.3381  -23.0206  -52.4831 H         1 UNK         0.0600 
    215 H215       -2.8139  -26.5026  -50.0396 H         1 UNK         0.3000 
    216 H216       -4.2041  -28.0751  -50.6579 H         1 UNK         0.0600 
    217 H217       -3.6676  -29.5009  -52.5975 H         1 UNK         0.0600 
    218 H218       -2.6095  -28.2687  -53.2684 H         1 UNK         0.0600 
    219 H219       -2.1918  -29.0646  -51.7515 H         1 UNK         0.0600 
    220 H220       -5.3641  -25.7609  -50.7558 H         1 UNK         0.3000 
    221 H221       -7.0771  -24.5632  -51.4132 H         1 UNK         0.0600 
    222 H222       -7.9762  -27.0640  -52.9353 H         1 UNK         0.0600 
    223 H223       -8.2260  -26.7676  -51.2150 H         1 UNK         0.0600 
    224 H224       -9.0048  -25.7397  -52.4058 H         1 UNK         0.0600 
    225 H225       -4.8923  -23.8562  -52.8090 H         1 UNK         0.3000 
    226 H226       -5.6973  -23.2926  -55.6147 H         1 UNK         0.0600 
    227 H227       -3.3322  -24.0355  -55.1230 H         1 UNK         0.0600 
    228 H228       -3.3838  -22.4148  -55.7911 H         1 UNK         0.0600 
    229 H229       -3.1280  -22.6447  -54.0651 H         1 UNK         0.0600 
    230 H230       -4.9169  -20.8309  -56.0806 H         1 UNK         0.3000 
    231 H231       -6.6452  -19.0265  -54.6427 H         1 UNK         0.0600 
    232 H232       -5.5530  -17.2937  -56.0866 H         1 UNK         0.0600 
    233 H233       -6.1373  -18.6589  -57.0235 H         1 UNK         0.0600 
    234 H234       -4.4163  -18.4965  -56.6844 H         1 UNK         0.0600 
    235 H235       -3.1203  -19.2031  -54.9537 H         1 UNK         0.3000 
    236 H236       -1.3489  -18.9240  -53.7282 H         1 UNK         0.0600 
    237 H237       -2.3688  -20.8676  -52.5849 H         1 UNK         0.0600 
    238 H238       -1.4261  -19.9125  -51.4533 H         1 UNK         0.0600 
    239 H239       -3.1826  -19.8069  -51.4415 H         1 UNK         0.0600 
    240 H240       -3.9759  -17.1666  -52.1482 H         1 UNK         0.3000 
    241 H241       -2.0806  -15.7293  -50.4267 H         1 UNK         0.0600 
    242 H242       -3.2665  -13.1282  -53.1591 H         1 UNK         0.3800 
    243 H243       -3.1250  -14.8494  -53.4216 H         1 UNK         0.3800 
    244 H244       -3.9137  -15.3426  -48.9320 H         1 UNK         0.0800 
    245 H245       -5.1029  -15.7026  -50.1577 H         1 UNK         0.0800 
    246 H246       -1.9563  -17.1500  -48.4862 H         1 UNK         0.0800 
    247 H247       -2.3156  -18.8436  -48.2830 H         1 UNK         0.0800 
@<TRIPOS>BOND
     1    1    2 1    
     2    1  127 1    
     3    1  128 1    
     4    1  129 1    
     5    2    3 2    
     6    2    4 am   BACKBONE|DICT|INTERRES
     7    4    5 1    
     8    4  130 1    
     9    5    6 1    
    10    5   65 1    
    11    5  131 1    
    12    6    7 1    
    13    6  132 1    
    14    6  133 1    
    15    7    8 1    
    16    8    9 1    
    17    8  134 1    
    18    8  135 1    
    19    9   10 ar   
    20    9   14 ar   
    21   10   11 ar   
    22   10  136 1    
    23   11   12 ar   
    24   11  126 1    
    25   12   13 ar   
    26   12  137 1    
    27   13   14 ar   
    28   13   15 1    
    29   14  138 1    
    30   15   16 1    
    31   15  139 1    
    32   15  140 1    
    33   16   17 1    
    34   17   18 1    
    35   17  141 1    
    36   17  142 1    
    37   18   19 1    
    38   18   67 1    
    39   18  143 1    
    40   19   20 am   BACKBONE|DICT|INTERRES
    41   19  144 1    
    42   20   21 2    
    43   20   22 1    
    44   22   23 1    
    45   22   24 1    
    46   22  145 1    
    47   23  146 1    
    48   23  147 1    
    49   23  148 1    
    50   24   25 am   BACKBONE|DICT|INTERRES
    51   24  149 1    
    52   25   26 2    
    53   25   27 1    
    54   27   28 1    
    55   27   29 1    
    56   27  150 1    
    57   28  151 1    
    58   28  152 1    
    59   28  153 1    
    60   29   30 am   BACKBONE|DICT|INTERRES
    61   29  154 1    
    62   30   31 2    
    63   30   32 1    
    64   32   33 1    
    65   32   34 1    
    66   32  155 1    
    67   33  156 1    
    68   33  157 1    
    69   33  158 1    
    70   34   35 am   BACKBONE|DICT|INTERRES
    71   34  159 1    
    72   35   36 2    
    73   35   37 1    
    74   37   38 1    
    75   37   39 1    
    76   37  160 1    
    77   38  161 1    
    78   38  162 1    
    79   38  163 1    
    80   39   40 am   BACKBONE|DICT|INTERRES
    81   39  164 1    
    82   40   41 2    
    83   40   42 1    
    84   42   43 1    
    85   42   44 1    
    86   42  165 1    
    87   43  166 1    
    88   43  167 1    
    89   43  168 1    
    90   44   45 am   BACKBONE|DICT|INTERRES
    91   44  169 1    
    92   45   46 2    
    93   45   47 1    
    94   47   48 1    
    95   47   49 1    
    96   47  170 1    
    97   48  171 1    
    98   48  172 1    
    99   48  173 1    
   100   49   50 am   BACKBONE|DICT|INTERRES
   101   49  174 1    
   102   50   51 2    
   103   50   52 1    
   104   52   53 1    
   105   52   54 1    
   106   52  175 1    
   107   53  176 1    
   108   53  177 1    
   109   53  178 1    
   110   54   55 am   BACKBONE|DICT|INTERRES
   111   54  179 1    
   112   55   56 2    
   113   55   57 1    
   114   57   58 1    
   115   57   59 1    
   116   57  180 1    
   117   58  181 1    
   118   58  182 1    
   119   58  183 1    
   120   59   60 am   BACKBONE|DICT|INTERRES
   121   59  184 1    
   122   60   61 2    
   123   60   62 1    
   124   62   63 1    
   125   62   64 1    
   126   62  185 1    
   127   63  186 1    
   128   63  187 1    
   129   63  188 1    
   130   64   65 am   BACKBONE|DICT|INTERRES
   131   64  189 1    
   132   65   66 2    
   133   67   68 2    
   134   67   69 am   BACKBONE|DICT|INTERRES
   135   69   70 1    
   136   69  190 1    
   137   70   71 1    
   138   70   72 1    
   139   70  191 1    
   140   71  192 1    
   141   71  193 1    
   142   71  194 1    
   143   72   73 2    
   144   72   74 am   BACKBONE|DICT|INTERRES
   145   74   75 1    
   146   74  195 1    
   147   75   76 1    
   148   75   77 1    
   149   75  196 1    
   150   76  197 1    
   151   76  198 1    
   152   76  199 1    
   153   77   78 2    
   154   77   79 am   BACKBONE|DICT|INTERRES
   155   79   80 1    
   156   79  200 1    
   157   80   81 1    
   158   80   82 1    
   159   80  201 1    
   160   81  202 1    
   161   81  203 1    
   162   81  204 1    
   163   82   83 2    
   164   82   84 am   BACKBONE|DICT|INTERRES
   165   84   85 1    
   166   84  205 1    
   167   85   86 1    
   168   85   87 1    
   169   85  206 1    
   170   86  207 1    
   171   86  208 1    
   172   86  209 1    
   173   87   88 2    
   174   87   89 am   BACKBONE|DICT|INTERRES
   175   89   90 1    
   176   89  210 1    
   177   90   91 1    
   178   90   92 1    
   179   90  211 1    
   180   91  212 1    
   181   91  213 1    
   182   91  214 1    
   183   92   93 2    
   184   92   94 am   BACKBONE|DICT|INTERRES
   185   94   95 1    
   186   94  215 1    
   187   95   96 1    
   188   95   97 1    
   189   95  216 1    
   190   96  217 1    
   191   96  218 1    
   192   96  219 1    
   193   97   98 2    
   194   97   99 am   BACKBONE|DICT|INTERRES
   195   99  100 1    
   196   99  220 1    
   197  100  101 1    
   198  100  102 1    
   199  100  221 1    
   200  101  222 1    
   201  101  223 1    
   202  101  224 1    
   203  102  103 2    
   204  102  104 am   BACKBONE|DICT|INTERRES
   205  104  105 1    
   206  104  225 1    
   207  105  106 1    
   208  105  107 1    
   209  105  226 1    
   210  106  227 1    
   211  106  228 1    
   212  106  229 1    
   213  107  108 2    
   214  107  109 am   BACKBONE|DICT|INTERRES
   215  109  110 1    
   216  109  230 1    
   217  110  111 1    
   218  110  112 1    
   219  110  231 1    
   220  111  232 1    
   221  111  233 1    
   222  111  234 1    
   223  112  113 2    
   224  112  114 am   BACKBONE|DICT|INTERRES
   225  114  115 1    
   226  114  235 1    
   227  115  116 1    
   228  115  117 1    
   229  115  236 1    
   230  116  237 1    
   231  116  238 1    
   232  116  239 1    
   233  117  118 2    
   234  117  119 am   BACKBONE|DICT|INTERRES
   235  119  120 1    
   236  119  240 1    
   237  120  121 1    
   238  120  124 1    
   239  120  241 1    
   240  121  122 am   BACKBONE|DICT|INTERRES
   241  121  123 2    
   242  122  242 1    
   243  122  243 1    
   244  124  125 1    
   245  124  244 1    
   246  124  245 1    
   247  125  126 1    
   248  126  246 1    
   249  126  247 1    
@<TRIPOS>SUBSTRUCTURE
     1 UNK         1 GROUP             0       ****    0 ROOT    
