@<TRIPOS>MOLECULE
3R540
247   249    1
SMALL
USER_CHARGES


@<TRIPOS>ATOM
      1 CA          4.1766  -12.1786  -50.8711 C.3       0 UNK        -0.1800 
      2 C           3.7933  -13.3051  -49.9228 C.2       0 UNK         0.5000 
      3 O           2.6295  -13.4056  -49.5355 O.2       0 UNK        -0.5000 
      4 N           4.7677  -14.1460  -49.5497 N.am      1 UNK        -0.5000 
      5 CA          4.6834  -15.3196  -48.6632 C.3       1 UNK         0.1400 
      6 C6          3.6986  -16.4252  -49.1309 C.3       23 UNK        -0.0398 
      7 S7          4.0082  -17.0526  -50.8205 S.3       23 UNK        -0.2404 
      8 C8          2.6309  -16.3468  -51.7896 C.3       23 UNK        -0.0205 
      9 C9          1.2712  -16.8954  -51.3769 C.ar      23 UNK        -0.0193 
     10 C10         0.7878  -18.0891  -51.9212 C.ar      23 UNK        -0.1150 
     11 C11        -0.4697  -18.5794  -51.5526 C.ar      23 UNK        -0.0193 
     12 C12        -1.2335  -17.8807  -50.6124 C.ar      23 UNK        -0.1150 
     13 C13        -0.7558  -16.6911  -50.0551 C.ar      23 UNK        -0.0193 
     14 C14         0.4831  -16.1940  -50.4613 C.ar      23 UNK        -0.1150 
     15 C15        -1.5617  -15.9331  -49.0122 C.3       23 UNK        -0.0205 
     16 S16        -1.2867  -16.6028  -47.3393 S.3       23 UNK        -0.2404 
     17 C17        -2.4817  -17.9800  -47.3048 C.3       23 UNK        -0.0398 
     18 CA         -1.8096  -19.3738  -47.2677 C.3       11 UNK         0.1400 
     19 N          -1.1912  -19.6698  -45.9667 N.am      11 UNK        -0.5000 
     20 C          -0.5764  -20.8205  -45.6468 C.2       10 UNK         0.5000 
     21 O          -0.3815  -21.7244  -46.4587 O.2       10 UNK        -0.5000 
     22 CA         -0.1494  -21.0529  -44.1829 C.3       10 UNK         0.1400 
     23 CB          1.3782  -21.1690  -44.0731 C.3       10 UNK        -0.1800 
     24 N          -0.6414  -20.0523  -43.2335 N.am      10 UNK        -0.5000 
     25 C          -1.9233  -19.8873  -42.8757 C.2       9 UNK         0.5000 
     26 O          -2.8478  -20.5699  -43.3198 O.2       9 UNK        -0.5000 
     27 CA         -2.2240  -18.7331  -41.8988 C.3       9 UNK         0.1400 
     28 CB         -2.0491  -19.1854  -40.4416 C.3       9 UNK        -0.1800 
     29 N          -1.3857  -17.5591  -42.1535 N.am      9 UNK        -0.5000 
     30 C          -1.4818  -16.7935  -43.2501 C.2       8 UNK         0.5000 
     31 O          -2.3572  -16.9431  -44.1004 O.2       8 UNK        -0.5000 
     32 CA         -0.4011  -15.7145  -43.4539 C.3       8 UNK         0.1400 
     33 CB         -0.7672  -14.4248  -42.7044 C.3       8 UNK        -0.1800 
     34 N           0.9243  -16.1689  -43.0316 N.am      8 UNK        -0.5000 
     35 C           1.6212  -17.1481  -43.6254 C.2       7 UNK         0.5000 
     36 O           1.2620  -17.7105  -44.6578 O.2       7 UNK        -0.5000 
     37 CA          2.9134  -17.6079  -42.9244 C.3       7 UNK         0.1400 
     38 CB          4.1275  -16.8000  -43.3979 C.3       7 UNK        -0.1800 
     39 N           2.8107  -17.5254  -41.4687 N.am      7 UNK        -0.5000 
     40 C           2.0974  -18.3742  -40.7170 C.2       6 UNK         0.5000 
     41 O           1.4747  -19.3310  -41.1754 O.2       6 UNK        -0.5000 
     42 CA          2.0374  -18.0750  -39.2078 C.3       6 UNK         0.1400 
     43 CB          3.2673  -18.6520  -38.4914 C.3       6 UNK        -0.1800 
     44 N           1.9397  -16.6412  -38.9271 N.am      6 UNK        -0.5000 
     45 C           0.8768  -15.8850  -39.2351 C.2       5 UNK         0.5000 
     46 O          -0.1511  -16.3320  -39.7433 O.2       5 UNK        -0.5000 
     47 CA          1.0044  -14.3700  -38.9816 C.3       5 UNK         0.1400 
     48 CB          0.5752  -14.0266  -37.5476 C.3       5 UNK        -0.1800 
     49 N           2.3506  -13.8385  -39.2269 N.am      5 UNK        -0.5000 
     50 C           2.9887  -13.8884  -40.4033 C.2       4 UNK         0.5000 
     51 O           2.5224  -14.4281  -41.4105 O.2       4 UNK        -0.5000 
     52 CA          4.3936  -13.2729  -40.4552 C.3       4 UNK         0.1400 
     53 CB          5.4102  -14.1520  -39.7052 C.3       4 UNK        -0.1800 
     54 N           4.7911  -13.1569  -41.8529 N.am      4 UNK        -0.5000 
     55 C           5.6335  -12.2574  -42.3701 C.2       3 UNK         0.5000 
     56 O           6.2171  -11.4067  -41.6970 O.2       3 UNK        -0.5000 
     57 CA          5.8792  -12.3181  -43.8929 C.3       3 UNK         0.1400 
     58 CB          7.2789  -12.8795  -44.1879 C.3       3 UNK        -0.1800 
     59 N           4.8957  -13.1260  -44.6193 N.am      3 UNK        -0.5000 
     60 C           3.6378  -12.7633  -44.8932 C.2       2 UNK         0.5000 
     61 O           3.1652  -11.6711  -44.5745 O.2       2 UNK        -0.5000 
     62 CA          2.7781  -13.7998  -45.6497 C.3       2 UNK         0.1400 
     63 CB          1.3323  -13.3230  -45.8745 C.3       2 UNK        -0.1800 
     64 N           3.3357  -14.1827  -46.9469 N.am      2 UNK        -0.5000 
     65 C           4.4021  -14.9544  -47.1887 C.2       1 UNK         0.5000 
     66 O           5.1454  -15.3842  -46.3067 O.2       1 UNK        -0.5000 
     67 C          -2.8443  -20.4424  -47.6791 C.2       11 UNK         0.5000 
     68 O          -2.8791  -20.8279  -48.8465 O.2       11 UNK        -0.5000 
     69 N          -3.6419  -20.9227  -46.7126 N.am      12 UNK        -0.5000 
     70 CA         -4.6386  -21.9743  -46.9173 C.3       12 UNK         0.1400 
     71 CB         -5.5297  -22.0823  -45.6716 C.3       12 UNK        -0.1800 
     72 C          -4.0023  -23.3352  -47.2494 C.2       12 UNK         0.5000 
     73 O          -4.5104  -24.0464  -48.1161 O.2       12 UNK        -0.5000 
     74 N          -2.8866  -23.6540  -46.5789 N.am      13 UNK        -0.5000 
     75 CA         -2.0989  -24.8648  -46.8073 C.3       13 UNK         0.1400 
     76 CB         -1.1137  -25.0696  -45.6462 C.3       13 UNK        -0.1800 
     77 C          -1.3641  -24.8249  -48.1577 C.2       13 UNK         0.5000 
     78 O          -1.3656  -25.8230  -48.8774 O.2       13 UNK        -0.5000 
     79 N          -0.7988  -23.6600  -48.5038 N.am      14 UNK        -0.5000 
     80 CA         -0.1508  -23.3902  -49.7892 C.3       14 UNK         0.1400 
     81 CB          0.5547  -22.0277  -49.7201 C.3       14 UNK        -0.1800 
     82 C          -1.1331  -23.4527  -50.9769 C.2       14 UNK         0.5000 
     83 O          -0.7616  -23.9231  -52.0516 O.2       14 UNK        -0.5000 
     84 N          -2.3815  -23.0273  -50.7422 N.am      15 UNK        -0.5000 
     85 CA         -3.5129  -23.1449  -51.6639 C.3       15 UNK         0.1400 
     86 CB         -4.5543  -22.0803  -51.2865 C.3       15 UNK        -0.1800 
     87 C          -4.1598  -24.5485  -51.6727 C.2       15 UNK         0.5000 
     88 O          -5.1463  -24.7467  -52.3842 O.2       15 UNK        -0.5000 
     89 N          -3.6390  -25.4820  -50.8588 N.am      16 UNK        -0.5000 
     90 CA         -4.0787  -26.8727  -50.6812 C.3       16 UNK         0.1400 
     91 CB         -3.7843  -27.6875  -51.9577 C.3       16 UNK        -0.1800 
     92 C          -5.5459  -27.0111  -50.2184 C.2       16 UNK         0.5000 
     93 O          -6.1869  -28.0224  -50.5094 O.2       16 UNK        -0.5000 
     94 N          -6.0591  -25.9740  -49.5375 N.am      17 UNK        -0.5000 
     95 CA         -7.4546  -25.7612  -49.1363 C.3       17 UNK         0.1400 
     96 CB         -7.8612  -26.7672  -48.0404 C.3       17 UNK        -0.1800 
     97 C          -8.4514  -25.7330  -50.3208 C.2       17 UNK         0.5000 
     98 O          -9.6475  -25.9458  -50.1144 O.2       17 UNK        -0.5000 
     99 N          -7.9492  -25.4716  -51.5358 N.am      18 UNK        -0.5000 
    100 CA        -8.6893  -25.5406  -52.7970 C.3       18 UNK         0.1400 
    101 CB        -8.0796  -26.6710  -53.6452 C.3       18 UNK        -0.1800 
    102 C         -8.6635  -24.2019  -53.5577 C.2       18 UNK         0.5000 
    103 O         -9.0488  -24.1668  -54.7275 O.2       18 UNK        -0.5000 
    104 N         -8.1812  -23.1339  -52.9044 N.am      19 UNK        -0.5000 
    105 CA        -7.9597  -21.7648  -53.3953 C.3       19 UNK         0.1400 
    106 CB        -9.2615  -21.1170  -53.9032 C.3       19 UNK        -0.1800 
    107 C         -6.8293  -21.6384  -54.4367 C.2       19 UNK         0.5000 
    108 O         -6.0420  -20.6951  -54.3473 O.2       19 UNK        -0.5000 
    109 N         -6.7483  -22.5907  -55.3756 N.am      20 UNK        -0.5000 
    110 CA        -5.7358  -22.7281  -56.4250 C.3       20 UNK         0.1400 
    111 CB        -4.3989  -23.1838  -55.7944 C.3       20 UNK        -0.1800 
    112 C         -5.6225  -21.4540  -57.2934 C.2       20 UNK         0.5000 
    113 O         -6.6461  -20.8519  -57.6263 O.2       20 UNK        -0.5000 
    114 N         -4.3907  -21.0547  -57.6316 N.am      21 UNK        -0.5000 
    115 CA        -4.0815  -19.7723  -58.2674 C.3       21 UNK         0.1400 
    116 CB        -2.7686  -19.9195  -59.0532 C.3       21 UNK        -0.1800 
    117 C         -3.9715  -18.6204  -57.2453 C.2       21 UNK         0.5000 
    118 O         -3.9626  -17.4566  -57.6492 O.2       21 UNK        -0.5000 
    119 N         -3.8586  -18.9586  -55.9542 N.am      22 UNK        -0.5000 
    120 CA        -3.6930  -18.0169  -54.8377 C.3       22 UNK         0.1400 
    121 C         -4.9822  -17.2129  -54.5173 C.2       22 UNK         0.5000 
    122 N         -6.1526  -17.8366  -54.5508 N.am      22 UNK        -0.7600 
    123 O         -4.9195  -16.0181  -54.2414 O.2       22 UNK        -0.5000 
    124 C124       -3.1696  -18.7260  -53.5634 C.3       23 UNK        -0.0398 
    125 S125       -1.6133  -19.6355  -53.8542 S.3       23 UNK        -0.2404 
    126 C126       -0.9960  -19.8708  -52.1600 C.3       23 UNK        -0.0205 
    127 H127        5.2347  -12.2090  -51.1321 H         1 UNK         0.0600 
    128 H128        3.9669  -11.2133  -50.4104 H         1 UNK         0.0600 
    129 H129        3.5971  -12.2516  -51.7914 H         1 UNK         0.0600 
    130 H130        5.6970  -13.9723  -49.9064 H         1 UNK         0.3000 
    131 H131        5.6831  -15.7570  -48.6809 H         1 UNK         0.0600 
    132 H132        3.7697  -17.2860  -48.4635 H         1 UNK         0.0800 
    133 H133        2.6732  -16.0788  -49.0372 H         1 UNK         0.0800 
    134 H134        2.6411  -15.2603  -51.7064 H         1 UNK         0.0800 
    135 H135        2.8022  -16.5651  -52.8446 H         1 UNK         0.0800 
    136 H136        1.3856  -18.6325  -52.6395 H         1 UNK         0.1150 
    137 H137       -2.1980  -18.2665  -50.3150 H         1 UNK         0.1150 
    138 H138        0.8411  -15.2621  -50.0477 H         1 UNK         0.1150 
    139 H139       -1.2691  -14.8819  -49.0112 H         1 UNK         0.0800 
    140 H140       -2.6225  -15.9438  -49.2659 H         1 UNK         0.0800 
    141 H141       -3.1391  -17.8869  -48.1706 H         1 UNK         0.0800 
    142 H142       -3.1334  -17.8498  -46.4399 H         1 UNK         0.0800 
    143 H143       -1.0145  -19.3969  -48.0157 H         1 UNK         0.0600 
    144 H144       -1.2737  -18.9536  -45.2582 H         1 UNK         0.3000 
    145 H145       -0.5726  -22.0142  -43.8849 H         1 UNK         0.0600 
    146 H146        1.6916  -21.3526  -43.0454 H         1 UNK         0.0600 
    147 H147        1.7486  -21.9988  -44.6763 H         1 UNK         0.0600 
    148 H148        1.8768  -20.2676  -44.4253 H         1 UNK         0.0600 
    149 H149        0.0606  -19.4777  -42.7829 H         1 UNK         0.3000 
    150 H150       -3.2673  -18.4425  -42.0389 H         1 UNK         0.0600 
    151 H151       -2.3099  -18.3861  -39.7475 H         1 UNK         0.0600 
    152 H152       -2.6945  -20.0355  -40.2174 H         1 UNK         0.0600 
    153 H153       -1.0235  -19.4879  -40.2308 H         1 UNK         0.0600 
    154 H154       -0.6932  -17.3248  -41.4504 H         1 UNK         0.3000 
    155 H155       -0.3516  -15.4881  -44.5205 H         1 UNK         0.0600 
    156 H156       -0.9348  -14.6078  -41.6436 H         1 UNK         0.0600 
    157 H157       -1.6825  -13.9905  -43.1081 H         1 UNK         0.0600 
    158 H158        0.0181  -13.6742  -42.7915 H         1 UNK         0.0600 
    159 H159        1.3355  -15.7008  -42.2298 H         1 UNK         0.3000 
    160 H160        3.0874  -18.6513  -43.1934 H         1 UNK         0.0600 
    161 H161        4.0103  -15.7341  -43.2097 H         1 UNK         0.0600 
    162 H162        4.2736  -16.9364  -44.4685 H         1 UNK         0.0600 
    163 H163        5.0413  -17.1300  -42.9036 H         1 UNK         0.0600 
    164 H164        3.2440  -16.7289  -41.0262 H         1 UNK         0.3000 
    165 H165        1.1468  -18.5636  -38.8065 H         1 UNK         0.0600 
    166 H166        3.1976  -18.5099  -37.4128 H         1 UNK         0.0600 
    167 H167        3.3558  -19.7242  -38.6719 H         1 UNK         0.0600 
    168 H168        4.1913  -18.1839  -38.8333 H         1 UNK         0.0600 
    169 H169        2.7434  -16.1978  -38.5075 H         1 UNK         0.3000 
    170 H170        0.3226  -13.8655  -39.6689 H         1 UNK         0.0600 
    171 H171       -0.4323  -14.3919  -37.3436 H         1 UNK         0.0600 
    172 H172        1.2422  -14.4729  -36.8091 H         1 UNK         0.0600 
    173 H173        0.5667  -12.9486  -37.3855 H         1 UNK         0.0600 
    174 H174        2.8027  -13.3875  -38.4444 H         1 UNK         0.3000 
    175 H175        4.3497  -12.2811  -40.0006 H         1 UNK         0.0600 
    176 H176        5.4651  -15.1548  -40.1310 H         1 UNK         0.0600 
    177 H177        6.4099  -13.7190  -39.7448 H         1 UNK         0.0600 
    178 H178        5.1461  -14.2540  -38.6521 H         1 UNK         0.0600 
    179 H179        4.2890  -13.7735  -42.4769 H         1 UNK         0.3000 
    180 H180        5.8337  -11.2952  -44.2721 H         1 UNK         0.0600 
    181 H181        7.3800  -13.9081  -43.8390 H         1 UNK         0.0600 
    182 H182        8.0516  -12.2875  -43.6956 H         1 UNK         0.0600 
    183 H183        7.4922  -12.8656  -45.2570 H         1 UNK         0.0600 
    184 H184        5.2120  -14.0229  -44.9789 H         1 UNK         0.3000 
    185 H185        2.7335  -14.6923  -45.0250 H         1 UNK         0.0600 
    186 H186        0.8568  -13.0464  -44.9337 H         1 UNK         0.0600 
    187 H187        1.2948  -12.4526  -46.5306 H         1 UNK         0.0600 
    188 H188        0.7252  -14.1078  -46.3267 H         1 UNK         0.0600 
    189 H189        2.8386  -13.8370  -47.7651 H         1 UNK         0.3000 
    190 H190       -3.5324  -20.5752  -45.7690 H         1 UNK         0.3000 
    191 H191       -5.2673  -21.6868  -47.7626 H         1 UNK         0.0600 
    192 H192       -6.0521  -21.1451  -45.4790 H         1 UNK         0.0600 
    193 H193       -6.2878  -22.8564  -45.7991 H         1 UNK         0.0600 
    194 H194       -4.9505  -22.3314  -44.7813 H         1 UNK         0.0600 
    195 H195       -2.5133  -22.9870  -45.9204 H         1 UNK         0.3000 
    196 H196       -2.7828  -25.7163  -46.8247 H         1 UNK         0.0600 
    197 H197       -0.5475  -25.9926  -45.7765 H         1 UNK         0.0600 
    198 H198       -1.6375  -25.1422  -44.6929 H         1 UNK         0.0600 
    199 H199       -0.3943  -24.2538  -45.5723 H         1 UNK         0.0600 
    200 H200       -0.7956  -22.9012  -47.8253 H         1 UNK         0.3000 
    201 H201        0.6087  -24.1588  -49.9460 H         1 UNK         0.0600 
    202 H202        1.2643  -21.9932  -48.8932 H         1 UNK         0.0600 
    203 H203       -0.1557  -21.2123  -49.5810 H         1 UNK         0.0600 
    204 H204        1.1153  -21.8311  -50.6341 H         1 UNK         0.0600 
    205 H205       -2.5796  -22.5821  -49.8521 H         1 UNK         0.3000 
    206 H206       -3.1662  -22.9391  -52.6786 H         1 UNK         0.0600 
    207 H207       -4.1326  -21.0770  -51.3363 H         1 UNK         0.0600 
    208 H208       -5.4038  -22.1055  -51.9652 H         1 UNK         0.0600 
    209 H209       -4.9375  -22.2332  -50.2774 H         1 UNK         0.0600 
    210 H210       -2.8478  -25.2168  -50.2853 H         1 UNK         0.3000 
    211 H211       -3.4701  -27.2858  -49.8762 H         1 UNK         0.0600 
    212 H212       -4.4115  -27.3711  -52.7919 H         1 UNK         0.0600 
    213 H213       -3.9656  -28.7507  -51.7965 H         1 UNK         0.0600 
    214 H214       -2.7429  -27.5807  -52.2612 H         1 UNK         0.0600 
    215 H215       -5.4237  -25.2212  -49.2811 H         1 UNK         0.3000 
    216 H216       -7.4876  -24.7643  -48.6947 H         1 UNK         0.0600 
    217 H217       -8.8401  -26.5232  -47.6263 H         1 UNK         0.0600 
    218 H218       -7.1503  -26.7570  -47.2141 H         1 UNK         0.0600 
    219 H219       -7.9142  -27.7858  -48.4256 H         1 UNK         0.0600 
    220 H220       -6.9507  -25.3076  -51.6286 H         1 UNK         0.3000 
    221 H221       -9.7397  -25.7760  -52.6169 H         1 UNK         0.0600 
    222 H222       -7.0399  -26.4618  -53.9015 H         1 UNK         0.0600 
    223 H223       -8.1055  -27.6208  -53.1105 H         1 UNK         0.0600 
    224 H224       -8.6292  -26.8096  -54.5770 H         1 UNK         0.0600 
    225 H225       -7.8728  -23.2991  -51.9573 H         1 UNK         0.3000 
    226 H226       -7.6390  -21.1932  -52.5230 H         1 UNK         0.0600 
    227 H227      -10.0464  -21.1640  -53.1484 H         1 UNK         0.0600 
    228 H228       -9.1012  -20.0646  -54.1409 H         1 UNK         0.0600 
    229 H229       -9.6345  -21.5979  -54.8075 H         1 UNK         0.0600 
    230 H230       -7.4893  -23.2855  -55.3768 H         1 UNK         0.3000 
    231 H231       -6.0832  -23.5219  -57.0873 H         1 UNK         0.0600 
    232 H232       -3.9605  -22.4108  -55.1617 H         1 UNK         0.0600 
    233 H233       -3.6670  -23.4521  -56.5568 H         1 UNK         0.0600 
    234 H234       -4.5451  -24.0682  -55.1734 H         1 UNK         0.0600 
    235 H235       -3.6022  -21.6138  -57.3393 H         1 UNK         0.3000 
    236 H236       -4.8737  -19.5147  -58.9735 H         1 UNK         0.0600 
    237 H237       -2.8463  -20.7020  -59.8082 H         1 UNK         0.0600 
    238 H238       -2.5173  -18.9934  -59.5719 H         1 UNK         0.0600 
    239 H239       -1.9322  -20.1657  -58.3977 H         1 UNK         0.0600 
    240 H240       -3.9209  -19.9327  -55.7005 H         1 UNK         0.3000 
    241 H241       -2.9355  -17.2901  -55.1381 H         1 UNK         0.0600 
    242 H242       -6.1821  -18.8434  -54.6890 H         1 UNK         0.3800 
    243 H243       -6.9984  -17.3274  -54.3519 H         1 UNK         0.3800 
    244 H244       -3.0064  -17.9905  -52.7753 H         1 UNK         0.0800 
    245 H245       -3.9107  -19.4294  -53.1810 H         1 UNK         0.0800 
    246 H246       -1.7829  -20.2997  -51.5381 H         1 UNK         0.0800 
    247 H247       -0.1932  -20.6070  -52.1913 H         1 UNK         0.0800 
@<TRIPOS>BOND
     1    1    2 1    
     2    1  127 1    
     3    1  128 1    
     4    1  129 1    
     5    2    3 2    
     6    2    4 am   BACKBONE|DICT|INTERRES
     7    4    5 1    
     8    4  130 1    
     9    5    6 1    
    10    5   65 1    
    11    5  131 1    
    12    6    7 1    
    13    6  132 1    
    14    6  133 1    
    15    7    8 1    
    16    8    9 1    
    17    8  134 1    
    18    8  135 1    
    19    9   10 ar   
    20    9   14 ar   
    21   10   11 ar   
    22   10  136 1    
    23   11   12 ar   
    24   11  126 1    
    25   12   13 ar   
    26   12  137 1    
    27   13   14 ar   
    28   13   15 1    
    29   14  138 1    
    30   15   16 1    
    31   15  139 1    
    32   15  140 1    
    33   16   17 1    
    34   17   18 1    
    35   17  141 1    
    36   17  142 1    
    37   18   19 1    
    38   18   67 1    
    39   18  143 1    
    40   19   20 am   BACKBONE|DICT|INTERRES
    41   19  144 1    
    42   20   21 2    
    43   20   22 1    
    44   22   23 1    
    45   22   24 1    
    46   22  145 1    
    47   23  146 1    
    48   23  147 1    
    49   23  148 1    
    50   24   25 am   BACKBONE|DICT|INTERRES
    51   24  149 1    
    52   25   26 2    
    53   25   27 1    
    54   27   28 1    
    55   27   29 1    
    56   27  150 1    
    57   28  151 1    
    58   28  152 1    
    59   28  153 1    
    60   29   30 am   BACKBONE|DICT|INTERRES
    61   29  154 1    
    62   30   31 2    
    63   30   32 1    
    64   32   33 1    
    65   32   34 1    
    66   32  155 1    
    67   33  156 1    
    68   33  157 1    
    69   33  158 1    
    70   34   35 am   BACKBONE|DICT|INTERRES
    71   34  159 1    
    72   35   36 2    
    73   35   37 1    
    74   37   38 1    
    75   37   39 1    
    76   37  160 1    
    77   38  161 1    
    78   38  162 1    
    79   38  163 1    
    80   39   40 am   BACKBONE|DICT|INTERRES
    81   39  164 1    
    82   40   41 2    
    83   40   42 1    
    84   42   43 1    
    85   42   44 1    
    86   42  165 1    
    87   43  166 1    
    88   43  167 1    
    89   43  168 1    
    90   44   45 am   BACKBONE|DICT|INTERRES
    91   44  169 1    
    92   45   46 2    
    93   45   47 1    
    94   47   48 1    
    95   47   49 1    
    96   47  170 1    
    97   48  171 1    
    98   48  172 1    
    99   48  173 1    
   100   49   50 am   BACKBONE|DICT|INTERRES
   101   49  174 1    
   102   50   51 2    
   103   50   52 1    
   104   52   53 1    
   105   52   54 1    
   106   52  175 1    
   107   53  176 1    
   108   53  177 1    
   109   53  178 1    
   110   54   55 am   BACKBONE|DICT|INTERRES
   111   54  179 1    
   112   55   56 2    
   113   55   57 1    
   114   57   58 1    
   115   57   59 1    
   116   57  180 1    
   117   58  181 1    
   118   58  182 1    
   119   58  183 1    
   120   59   60 am   BACKBONE|DICT|INTERRES
   121   59  184 1    
   122   60   61 2    
   123   60   62 1    
   124   62   63 1    
   125   62   64 1    
   126   62  185 1    
   127   63  186 1    
   128   63  187 1    
   129   63  188 1    
   130   64   65 am   BACKBONE|DICT|INTERRES
   131   64  189 1    
   132   65   66 2    
   133   67   68 2    
   134   67   69 am   BACKBONE|DICT|INTERRES
   135   69   70 1    
   136   69  190 1    
   137   70   71 1    
   138   70   72 1    
   139   70  191 1    
   140   71  192 1    
   141   71  193 1    
   142   71  194 1    
   143   72   73 2    
   144   72   74 am   BACKBONE|DICT|INTERRES
   145   74   75 1    
   146   74  195 1    
   147   75   76 1    
   148   75   77 1    
   149   75  196 1    
   150   76  197 1    
   151   76  198 1    
   152   76  199 1    
   153   77   78 2    
   154   77   79 am   BACKBONE|DICT|INTERRES
   155   79   80 1    
   156   79  200 1    
   157   80   81 1    
   158   80   82 1    
   159   80  201 1    
   160   81  202 1    
   161   81  203 1    
   162   81  204 1    
   163   82   83 2    
   164   82   84 am   BACKBONE|DICT|INTERRES
   165   84   85 1    
   166   84  205 1    
   167   85   86 1    
   168   85   87 1    
   169   85  206 1    
   170   86  207 1    
   171   86  208 1    
   172   86  209 1    
   173   87   88 2    
   174   87   89 am   BACKBONE|DICT|INTERRES
   175   89   90 1    
   176   89  210 1    
   177   90   91 1    
   178   90   92 1    
   179   90  211 1    
   180   91  212 1    
   181   91  213 1    
   182   91  214 1    
   183   92   93 2    
   184   92   94 am   BACKBONE|DICT|INTERRES
   185   94   95 1    
   186   94  215 1    
   187   95   96 1    
   188   95   97 1    
   189   95  216 1    
   190   96  217 1    
   191   96  218 1    
   192   96  219 1    
   193   97   98 2    
   194   97   99 am   BACKBONE|DICT|INTERRES
   195   99  100 1    
   196   99  220 1    
   197  100  101 1    
   198  100  102 1    
   199  100  221 1    
   200  101  222 1    
   201  101  223 1    
   202  101  224 1    
   203  102  103 2    
   204  102  104 am   BACKBONE|DICT|INTERRES
   205  104  105 1    
   206  104  225 1    
   207  105  106 1    
   208  105  107 1    
   209  105  226 1    
   210  106  227 1    
   211  106  228 1    
   212  106  229 1    
   213  107  108 2    
   214  107  109 am   BACKBONE|DICT|INTERRES
   215  109  110 1    
   216  109  230 1    
   217  110  111 1    
   218  110  112 1    
   219  110  231 1    
   220  111  232 1    
   221  111  233 1    
   222  111  234 1    
   223  112  113 2    
   224  112  114 am   BACKBONE|DICT|INTERRES
   225  114  115 1    
   226  114  235 1    
   227  115  116 1    
   228  115  117 1    
   229  115  236 1    
   230  116  237 1    
   231  116  238 1    
   232  116  239 1    
   233  117  118 2    
   234  117  119 am   BACKBONE|DICT|INTERRES
   235  119  120 1    
   236  119  240 1    
   237  120  121 1    
   238  120  124 1    
   239  120  241 1    
   240  121  122 am   BACKBONE|DICT|INTERRES
   241  121  123 2    
   242  122  242 1    
   243  122  243 1    
   244  124  125 1    
   245  124  244 1    
   246  124  245 1    
   247  125  126 1    
   248  126  246 1    
   249  126  247 1    
@<TRIPOS>SUBSTRUCTURE
     1 UNK         1 GROUP             0       ****    0 ROOT    
