@<TRIPOS>MOLECULE
3R540
247   249    1
SMALL
USER_CHARGES


@<TRIPOS>ATOM
      1 CA          1.1551  -15.1685  -48.7946 C.3       0 UNK        -0.1800 
      2 C           0.6657  -14.8047  -47.4011 C.2       0 UNK         0.5000 
      3 O           0.0566  -13.7502  -47.2213 O.2       0 UNK        -0.5000 
      4 N           0.9392  -15.6671  -46.4132 N.am      1 UNK        -0.5000 
      5 CA          0.5570  -15.5288  -45.0021 C.3       1 UNK         0.1400 
      6 C6         -0.9690  -15.6778  -44.7524 C.3       23 UNK        -0.0398 
      7 S7         -1.6529  -17.2450  -45.3951 S.3       23 UNK        -0.2404 
      8 C8         -2.7689  -16.5875  -46.6761 C.3       23 UNK        -0.0205 
      9 C9         -3.6884  -17.6416  -47.2747 C.ar      23 UNK        -0.0193 
     10 C10        -3.7066  -17.8558  -48.6574 C.ar      23 UNK        -0.1150 
     11 C11        -4.6235  -18.7454  -49.2241 C.ar      23 UNK        -0.0193 
     12 C12        -5.5220  -19.4217  -48.3972 C.ar      23 UNK        -0.1150 
     13 C13        -5.4936  -19.2455  -47.0109 C.ar      23 UNK        -0.0193 
     14 C14        -4.5756  -18.3496  -46.4565 C.ar      23 UNK        -0.1150 
     15 C15        -6.4813  -19.9867  -46.1184 C.3       23 UNK        -0.0205 
     16 S16        -5.8382  -21.5912  -45.5345 S.3       23 UNK        -0.2404 
     17 C17        -5.8546  -22.5832  -47.0756 C.3       23 UNK        -0.0398 
     18 CA         -4.4588  -23.0708  -47.5590 C.3       11 UNK         0.1400 
     19 N          -3.3877  -22.1099  -47.2710 N.am      11 UNK        -0.5000 
     20 C          -2.0884  -22.2525  -47.5583 C.2       10 UNK         0.5000 
     21 O          -1.6409  -23.1612  -48.2575 O.2       10 UNK        -0.5000 
     22 CA         -1.1111  -21.2571  -46.9049 C.3       10 UNK         0.1400 
     23 CB         -0.7182  -20.1423  -47.8823 C.3       10 UNK        -0.1800 
     24 N          -1.5924  -20.6512  -45.6598 N.am      10 UNK        -0.5000 
     25 C          -1.9604  -21.3091  -44.5503 C.2       9 UNK         0.5000 
     26 O          -2.0388  -22.5372  -44.4745 O.2       9 UNK        -0.5000 
     27 CA         -2.2284  -20.4219  -43.3199 C.3       9 UNK         0.1400 
     28 CB         -2.7588  -21.2082  -42.1029 C.3       9 UNK        -0.1800 
     29 N          -1.0288  -19.6406  -42.9883 N.am      9 UNK        -0.5000 
     30 C           0.1717  -20.1320  -42.6336 C.2       8 UNK         0.5000 
     31 O           0.3892  -21.3112  -42.3601 O.2       8 UNK        -0.5000 
     32 CA          1.3382  -19.1379  -42.5978 C.3       8 UNK         0.1400 
     33 CB          1.9332  -18.9691  -44.0102 C.3       8 UNK        -0.1800 
     34 N           0.9278  -17.8514  -42.0286 N.am      8 UNK        -0.5000 
     35 C           1.7813  -16.9704  -41.4940 C.2       7 UNK         0.5000 
     36 O           3.0082  -17.1099  -41.5108 O.2       7 UNK        -0.5000 
     37 CA          1.1677  -15.7376  -40.8086 C.3       7 UNK         0.1400 
     38 CB          0.3836  -16.1402  -39.5432 C.3       7 UNK        -0.1800 
     39 N           2.2621  -14.8379  -40.4651 N.am      7 UNK        -0.5000 
     40 C           2.1825  -13.5749  -40.0339 C.2       6 UNK         0.5000 
     41 O           1.1248  -12.9634  -39.8822 O.2       6 UNK        -0.5000 
     42 CA          3.5235  -12.8778  -39.7291 C.3       6 UNK         0.1400 
     43 CB          3.9613  -13.1599  -38.2836 C.3       6 UNK        -0.1800 
     44 N           4.5845  -13.3035  -40.6472 N.am      6 UNK        -0.5000 
     45 C           4.6783  -12.8813  -41.9144 C.2       5 UNK         0.5000 
     46 O           3.9604  -11.9953  -42.3776 O.2       5 UNK        -0.5000 
     47 CA          5.7302  -13.5459  -42.8202 C.3       5 UNK         0.1400 
     48 CB          6.1815  -14.9422  -42.3412 C.3       5 UNK        -0.1800 
     49 N           5.1717  -13.6419  -44.1643 N.am      5 UNK        -0.5000 
     50 C           5.8607  -13.6457  -45.3089 C.2       4 UNK         0.5000 
     51 O           7.0886  -13.5705  -45.3712 O.2       4 UNK        -0.5000 
     52 CA          5.0380  -13.7463  -46.6040 C.3       4 UNK         0.1400 
     53 CB          4.6044  -15.2000  -46.8548 C.3       4 UNK        -0.1800 
     54 N           3.8500  -12.8919  -46.5568 N.am      4 UNK        -0.5000 
     55 C           3.7712  -11.6654  -47.0933 C.2       3 UNK         0.5000 
     56 O           4.7068  -11.1195  -47.6796 O.2       3 UNK        -0.5000 
     57 CA          2.4259  -10.9186  -46.9829 C.3       3 UNK         0.1400 
     58 CB          1.6828  -10.9490  -48.3278 C.3       3 UNK        -0.1800 
     59 N           1.5590  -11.4776  -45.9440 N.am      3 UNK        -0.5000 
     60 C           1.5879  -11.0950  -44.6587 C.2       2 UNK         0.5000 
     61 O           2.2478  -10.1365  -44.2563 O.2       2 UNK        -0.5000 
     62 CA          0.7428  -11.9036  -43.6487 C.3       2 UNK         0.1400 
     63 CB         -0.5143  -11.1180  -43.2454 C.3       2 UNK        -0.1800 
     64 N           0.3343  -13.2265  -44.1285 N.am      2 UNK        -0.5000 
     65 C           1.1645  -14.2418  -44.4039 C.2       1 UNK         0.5000 
     66 O           2.3841  -14.1787  -44.2546 O.2       1 UNK        -0.5000 
     67 C          -4.1691  -24.4876  -47.0199 C.2       11 UNK         0.5000 
     68 O          -4.4771  -25.4620  -47.7061 O.2       11 UNK        -0.5000 
     69 N          -3.5770  -24.5737  -45.8235 N.am      12 UNK        -0.5000 
     70 CA         -3.1895  -25.8254  -45.1812 C.3       12 UNK         0.1400 
     71 CB         -3.5389  -25.7491  -43.6863 C.3       12 UNK        -0.1800 
     72 C          -1.6904  -26.1015  -45.3691 C.2       12 UNK         0.5000 
     73 O          -1.3148  -27.2409  -45.6454 O.2       12 UNK        -0.5000 
     74 N          -0.8603  -25.0627  -45.2022 N.am      13 UNK        -0.5000 
     75 CA          0.5977  -25.1784  -45.1624 C.3       13 UNK         0.1400 
     76 CB          1.1849  -23.9210  -44.5043 C.3       13 UNK        -0.1800 
     77 C           1.2559  -25.4320  -46.5307 C.2       13 UNK         0.5000 
     78 O           2.3014  -26.0822  -46.5726 O.2       13 UNK        -0.5000 
     79 N           0.6605  -24.9109  -47.6116 N.am      14 UNK        -0.5000 
     80 CA          1.2211  -24.9613  -48.9661 C.3       14 UNK         0.1400 
     81 CB          1.6863  -23.5449  -49.3493 C.3       14 UNK        -0.1800 
     82 C           0.2313  -25.5079  -50.0110 C.2       14 UNK         0.5000 
     83 O           0.6170  -25.6539  -51.1715 O.2       14 UNK        -0.5000 
     84 N          -1.0211  -25.7705  -49.6033 N.am      15 UNK        -0.5000 
     85 CA         -2.1742  -26.1042  -50.4513 C.3       15 UNK         0.1400 
     86 CB         -1.9944  -27.4782  -51.1288 C.3       15 UNK        -0.1800 
     87 C          -2.5167  -24.9788  -51.4537 C.2       15 UNK         0.5000 
     88 O          -2.9879  -25.2474  -52.5609 O.2       15 UNK        -0.5000 
     89 N          -2.2814  -23.7232  -51.0448 N.am      16 UNK        -0.5000 
     90 CA         -2.3925  -22.5297  -51.8862 C.3       16 UNK         0.1400 
     91 CB         -1.8552  -21.3196  -51.1137 C.3       16 UNK        -0.1800 
     92 C          -3.8153  -22.2488  -52.3960 C.2       16 UNK         0.5000 
     93 O          -3.9655  -21.6191  -53.4417 O.2       16 UNK        -0.5000 
     94 N          -4.8290  -22.7273  -51.6628 N.am      17 UNK        -0.5000 
     95 CA         -6.2393  -22.6351  -52.0391 C.3       17 UNK         0.1400 
     96 CB         -7.1130  -22.8714  -50.7996 C.3       17 UNK        -0.1800 
     97 C          -6.6181  -23.6106  -53.1684 C.2       17 UNK         0.5000 
     98 O          -7.4955  -23.2872  -53.9682 O.2       17 UNK        -0.5000 
     99 N          -5.9361  -24.7640  -53.2404 N.am      18 UNK        -0.5000 
    100 CA        -6.0908  -25.7412  -54.3212 C.3       18 UNK         0.1400 
    101 CB        -5.5654  -27.1113  -53.8651 C.3       18 UNK        -0.1800 
    102 C         -5.3773  -25.2735  -55.6017 C.2       18 UNK         0.5000 
    103 O         -5.8894  -25.4900  -56.7003 O.2       18 UNK        -0.5000 
    104 N         -4.2314  -24.5981  -55.4306 N.am      19 UNK        -0.5000 
    105 CA        -3.5017  -23.9095  -56.4981 C.3       19 UNK         0.1400 
    106 CB        -2.0846  -23.5881  -55.9980 C.3       19 UNK        -0.1800 
    107 C         -4.2034  -22.6193  -56.9751 C.2       19 UNK         0.5000 
    108 O         -3.9253  -22.1562  -58.0815 O.2       19 UNK        -0.5000 
    109 N         -5.0774  -22.0626  -56.1221 N.am      20 UNK        -0.5000 
    110 CA        -5.7978  -20.7920  -56.2547 C.3       20 UNK         0.1400 
    111 CB        -6.7879  -20.8364  -57.4363 C.3       20 UNK        -0.1800 
    112 C         -4.8510  -19.5735  -56.2990 C.2       20 UNK         0.5000 
    113 O         -5.1481  -18.5786  -56.9630 O.2       20 UNK        -0.5000 
    114 N         -3.7254  -19.6671  -55.5771 N.am      21 UNK        -0.5000 
    115 CA        -2.6436  -18.6790  -55.5660 C.3       21 UNK         0.1400 
    116 CB        -1.4289  -19.2779  -54.8430 C.3       21 UNK        -0.1800 
    117 C         -3.0461  -17.3313  -54.9374 C.2       21 UNK         0.5000 
    118 O         -2.5183  -16.2927  -55.3361 O.2       21 UNK        -0.5000 
    119 N         -3.9895  -17.3751  -53.9903 N.am      22 UNK        -0.5000 
    120 CA        -4.6466  -16.2061  -53.3850 C.3       22 UNK         0.1400 
    121 C         -5.8676  -15.6702  -54.1944 C.2       22 UNK         0.5000 
    122 N         -6.2187  -16.2347  -55.3451 N.am      22 UNK        -0.7600 
    123 O         -6.5011  -14.7023  -53.7819 O.2       22 UNK        -0.5000 
    124 C124       -4.9777  -16.4446  -51.8858 C.3       23 UNK        -0.0398 
    125 S125       -5.9099  -17.9851  -51.5671 S.3       23 UNK        -0.2404 
    126 C126       -4.6532  -18.9952  -50.7242 C.3       23 UNK        -0.0205 
    127 H127        1.8933  -14.4419  -49.1338 H         1 UNK         0.0600 
    128 H128        0.3216  -15.1644  -49.4968 H         1 UNK         0.0600 
    129 H129        1.6140  -16.1572  -48.8176 H         1 UNK         0.0600 
    130 H130        1.4591  -16.5043  -46.6323 H         1 UNK         0.3000 
    131 H131        1.0526  -16.3432  -44.4780 H         1 UNK         0.0600 
    132 H132       -1.1818  -15.6445  -43.6827 H         1 UNK         0.0800 
    133 H133       -1.5153  -14.8443  -45.1958 H         1 UNK         0.0800 
    134 H134       -2.1692  -16.1102  -47.4526 H         1 UNK         0.0800 
    135 H135       -3.3947  -15.8053  -46.2440 H         1 UNK         0.0800 
    136 H136       -3.0206  -17.3161  -49.2945 H         1 UNK         0.1150 
    137 H137       -6.2517  -20.0777  -48.8465 H         1 UNK         0.1150 
    138 H138       -4.5683  -18.1816  -45.3886 H         1 UNK         0.1150 
    139 H139       -7.4253  -20.1400  -46.6436 H         1 UNK         0.0800 
    140 H140       -6.7204  -19.3719  -45.2493 H         1 UNK         0.0800 
    141 H141       -6.3204  -22.0009  -47.8636 H         1 UNK         0.0800 
    142 H142       -6.5448  -23.4171  -46.9314 H         1 UNK         0.0800 
    143 H143       -4.5009  -23.1646  -48.6454 H         1 UNK         0.0600 
    144 H144       -3.6596  -21.3304  -46.6885 H         1 UNK         0.3000 
    145 H145       -0.2071  -21.8156  -46.6607 H         1 UNK         0.0600 
    146 H146       -0.2075  -20.5507  -48.7536 H         1 UNK         0.0600 
    147 H147       -0.0361  -19.4290  -47.4190 H         1 UNK         0.0600 
    148 H148       -1.5890  -19.5919  -48.2355 H         1 UNK         0.0600 
    149 H149       -1.5711  -19.6404  -45.6294 H         1 UNK         0.3000 
    150 H150       -3.0016  -19.7086  -43.6102 H         1 UNK         0.0600 
    151 H151       -2.0700  -21.9902  -41.7829 H         1 UNK         0.0600 
    152 H152       -3.7066  -21.6923  -42.3419 H         1 UNK         0.0600 
    153 H153       -2.9349  -20.5479  -41.2540 H         1 UNK         0.0600 
    154 H154       -1.0819  -18.6659  -43.2447 H         1 UNK         0.3000 
    155 H155        2.1053  -19.5696  -41.9504 H         1 UNK         0.0600 
    156 H156        1.1857  -18.6312  -44.7279 H         1 UNK         0.0600 
    157 H157        2.3217  -19.9196  -44.3781 H         1 UNK         0.0600 
    158 H158        2.7602  -18.2593  -44.0201 H         1 UNK         0.0600 
    159 H159       -0.0639  -17.7202  -41.8916 H         1 UNK         0.3000 
    160 H160        0.5044  -15.2362  -41.5153 H         1 UNK         0.0600 
    161 H161        1.0277  -16.6346  -38.8149 H         1 UNK         0.0600 
    162 H162       -0.4307  -16.8255  -39.7801 H         1 UNK         0.0600 
    163 H163       -0.0646  -15.2743  -39.0565 H         1 UNK         0.0600 
    164 H164        3.1726  -15.2574  -40.6106 H         1 UNK         0.3000 
    165 H165        3.3734  -11.8008  -39.8326 H         1 UNK         0.0600 
    166 H166        3.1973  -12.8366  -37.5752 H         1 UNK         0.0600 
    167 H167        4.1371  -14.2230  -38.1141 H         1 UNK         0.0600 
    168 H168        4.8785  -12.6241  -38.0380 H         1 UNK         0.0600 
    169 H169        5.2171  -14.0186  -40.3191 H         1 UNK         0.3000 
    170 H170        6.5954  -12.8804  -42.8382 H         1 UNK         0.0600 
    171 H171        5.3380  -15.6287  -42.2552 H         1 UNK         0.0600 
    172 H172        6.6778  -14.8925  -41.3717 H         1 UNK         0.0600 
    173 H173        6.8951  -15.3844  -43.0366 H         1 UNK         0.0600 
    174 H174        4.1548  -13.6906  -44.1967 H         1 UNK         0.3000 
    175 H175        5.6823  -13.4462  -47.4332 H         1 UNK         0.0600 
    176 H176        5.4705  -15.8610  -46.9057 H         1 UNK         0.0600 
    177 H177        3.9545  -15.5735  -46.0628 H         1 UNK         0.0600 
    178 H178        4.0702  -15.2931  -47.8001 H         1 UNK         0.0600 
    179 H179        3.0684  -13.2389  -46.0164 H         1 UNK         0.3000 
    180 H180        2.6479   -9.8745  -46.7526 H         1 UNK         0.0600 
    181 H181        1.4793  -11.9678  -48.6566 H         1 UNK         0.0600 
    182 H182        0.7317  -10.4200  -48.2657 H         1 UNK         0.0600 
    183 H183        2.2720  -10.4668  -49.1089 H         1 UNK         0.0600 
    184 H184        0.9554  -12.2454  -46.2227 H         1 UNK         0.3000 
    185 H185        1.3513  -12.0478  -42.7546 H         1 UNK         0.0600 
    186 H186       -0.2513  -10.1365  -42.8487 H         1 UNK         0.0600 
    187 H187       -1.1807  -10.9615  -44.0946 H         1 UNK         0.0600 
    188 H188       -1.0729  -11.6401  -42.4682 H         1 UNK         0.0600 
    189 H189       -0.6482  -13.3312  -44.3332 H         1 UNK         0.3000 
    190 H190       -3.3051  -23.7203  -45.3446 H         1 UNK         0.3000 
    191 H191       -3.7428  -26.6630  -45.6114 H         1 UNK         0.0600 
    192 H192       -4.6100  -25.6080  -43.5410 H         1 UNK         0.0600 
    193 H193       -3.2590  -26.6692  -43.1717 H         1 UNK         0.0600 
    194 H194       -3.0242  -24.9246  -43.1908 H         1 UNK         0.0600 
    195 H195       -1.2525  -24.1592  -44.9486 H         1 UNK         0.3000 
    196 H196        0.8473  -26.0291  -44.5244 H         1 UNK         0.0600 
    197 H197        2.2710  -23.9875  -44.4291 H         1 UNK         0.0600 
    198 H198        0.7981  -23.7925  -43.4933 H         1 UNK         0.0600 
    199 H199        0.9500  -23.0183  -45.0666 H         1 UNK         0.0600 
    200 H200       -0.1922  -24.3742  -47.5031 H         1 UNK         0.3000 
    201 H201        2.0884  -25.6233  -49.0006 H         1 UNK         0.0600 
    202 H202        2.1483  -23.5348  -50.3373 H         1 UNK         0.0600 
    203 H203        2.4263  -23.1688  -48.6428 H         1 UNK         0.0600 
    204 H204        0.8546  -22.8404  -49.3694 H         1 UNK         0.0600 
    205 H205       -1.2339  -25.6096  -48.6300 H         1 UNK         0.3000 
    206 H206       -3.0318  -26.1828  -49.7840 H         1 UNK         0.0600 
    207 H207       -1.7462  -28.2482  -50.3984 H         1 UNK         0.0600 
    208 H208       -2.9128  -27.7894  -51.6277 H         1 UNK         0.0600 
    209 H209       -1.2061  -27.4616  -51.8817 H         1 UNK         0.0600 
    210 H210       -1.9214  -23.5834  -50.1046 H         1 UNK         0.3000 
    211 H211       -1.7575  -22.6837  -52.7604 H         1 UNK         0.0600 
    212 H212       -1.8694  -20.4197  -51.7266 H         1 UNK         0.0600 
    213 H213       -0.8228  -21.4828  -50.8066 H         1 UNK         0.0600 
    214 H214       -2.4505  -21.1148  -50.2242 H         1 UNK         0.0600 
    215 H215       -4.6074  -23.2444  -50.8267 H         1 UNK         0.3000 
    216 H216       -6.4361  -21.6235  -52.4020 H         1 UNK         0.0600 
    217 H217       -6.9653  -22.0795  -50.0678 H         1 UNK         0.0600 
    218 H218       -6.8922  -23.8263  -50.3212 H         1 UNK         0.0600 
    219 H219       -8.1723  -22.8706  -51.0605 H         1 UNK         0.0600 
    220 H220       -5.1848  -24.9360  -52.5859 H         1 UNK         0.3000 
    221 H221       -7.1540  -25.8475  -54.5475 H         1 UNK         0.0600 
    222 H222       -4.4935  -27.0934  -53.6687 H         1 UNK         0.0600 
    223 H223       -6.0680  -27.4450  -52.9572 H         1 UNK         0.0600 
    224 H224       -5.7422  -27.8673  -54.6311 H         1 UNK         0.0600 
    225 H225       -3.8504  -24.5289  -54.4950 H         1 UNK         0.3000 
    226 H226       -3.4214  -24.5827  -57.3541 H         1 UNK         0.0600 
    227 H227       -1.5661  -24.4891  -55.6693 H         1 UNK         0.0600 
    228 H228       -1.4847  -23.1375  -56.7896 H         1 UNK         0.0600 
    229 H229       -2.1021  -22.8870  -55.1636 H         1 UNK         0.0600 
    230 H230       -5.1752  -22.5107  -55.2221 H         1 UNK         0.3000 
    231 H231       -6.3830  -20.6831  -55.3405 H         1 UNK         0.0600 
    232 H232       -6.2735  -20.8738  -58.3967 H         1 UNK         0.0600 
    233 H233       -7.4276  -19.9532  -57.4431 H         1 UNK         0.0600 
    234 H234       -7.4399  -21.7075  -57.3697 H         1 UNK         0.0600 
    235 H235       -3.6088  -20.4846  -54.9853 H         1 UNK         0.3000 
    236 H236       -2.3608  -18.4850  -56.6027 H         1 UNK         0.0600 
    237 H237       -0.5856  -18.5863  -54.8556 H         1 UNK         0.0600 
    238 H238       -1.6562  -19.5002  -53.8016 H         1 UNK         0.0600 
    239 H239       -1.1003  -20.2015  -55.3201 H         1 UNK         0.0600 
    240 H240       -4.3783  -18.2727  -53.7404 H         1 UNK         0.3000 
    241 H241       -3.9330  -15.3804  -53.4045 H         1 UNK         0.0600 
    242 H242       -5.6997  -17.0093  -55.7405 H         1 UNK         0.3800 
    243 H243       -7.0062  -15.8613  -55.8510 H         1 UNK         0.3800 
    244 H244       -4.0468  -16.4648  -51.3195 H         1 UNK         0.0800 
    245 H245       -5.5406  -15.6076  -51.4697 H         1 UNK         0.0800 
    246 H246       -4.8912  -20.0426  -50.8996 H         1 UNK         0.0800 
    247 H247       -3.6711  -18.8275  -51.1678 H         1 UNK         0.0800 
@<TRIPOS>BOND
     1    1    2 1    
     2    1  127 1    
     3    1  128 1    
     4    1  129 1    
     5    2    3 2    
     6    2    4 am   BACKBONE|DICT|INTERRES
     7    4    5 1    
     8    4  130 1    
     9    5    6 1    
    10    5   65 1    
    11    5  131 1    
    12    6    7 1    
    13    6  132 1    
    14    6  133 1    
    15    7    8 1    
    16    8    9 1    
    17    8  134 1    
    18    8  135 1    
    19    9   10 ar   
    20    9   14 ar   
    21   10   11 ar   
    22   10  136 1    
    23   11   12 ar   
    24   11  126 1    
    25   12   13 ar   
    26   12  137 1    
    27   13   14 ar   
    28   13   15 1    
    29   14  138 1    
    30   15   16 1    
    31   15  139 1    
    32   15  140 1    
    33   16   17 1    
    34   17   18 1    
    35   17  141 1    
    36   17  142 1    
    37   18   19 1    
    38   18   67 1    
    39   18  143 1    
    40   19   20 am   BACKBONE|DICT|INTERRES
    41   19  144 1    
    42   20   21 2    
    43   20   22 1    
    44   22   23 1    
    45   22   24 1    
    46   22  145 1    
    47   23  146 1    
    48   23  147 1    
    49   23  148 1    
    50   24   25 am   BACKBONE|DICT|INTERRES
    51   24  149 1    
    52   25   26 2    
    53   25   27 1    
    54   27   28 1    
    55   27   29 1    
    56   27  150 1    
    57   28  151 1    
    58   28  152 1    
    59   28  153 1    
    60   29   30 am   BACKBONE|DICT|INTERRES
    61   29  154 1    
    62   30   31 2    
    63   30   32 1    
    64   32   33 1    
    65   32   34 1    
    66   32  155 1    
    67   33  156 1    
    68   33  157 1    
    69   33  158 1    
    70   34   35 am   BACKBONE|DICT|INTERRES
    71   34  159 1    
    72   35   36 2    
    73   35   37 1    
    74   37   38 1    
    75   37   39 1    
    76   37  160 1    
    77   38  161 1    
    78   38  162 1    
    79   38  163 1    
    80   39   40 am   BACKBONE|DICT|INTERRES
    81   39  164 1    
    82   40   41 2    
    83   40   42 1    
    84   42   43 1    
    85   42   44 1    
    86   42  165 1    
    87   43  166 1    
    88   43  167 1    
    89   43  168 1    
    90   44   45 am   BACKBONE|DICT|INTERRES
    91   44  169 1    
    92   45   46 2    
    93   45   47 1    
    94   47   48 1    
    95   47   49 1    
    96   47  170 1    
    97   48  171 1    
    98   48  172 1    
    99   48  173 1    
   100   49   50 am   BACKBONE|DICT|INTERRES
   101   49  174 1    
   102   50   51 2    
   103   50   52 1    
   104   52   53 1    
   105   52   54 1    
   106   52  175 1    
   107   53  176 1    
   108   53  177 1    
   109   53  178 1    
   110   54   55 am   BACKBONE|DICT|INTERRES
   111   54  179 1    
   112   55   56 2    
   113   55   57 1    
   114   57   58 1    
   115   57   59 1    
   116   57  180 1    
   117   58  181 1    
   118   58  182 1    
   119   58  183 1    
   120   59   60 am   BACKBONE|DICT|INTERRES
   121   59  184 1    
   122   60   61 2    
   123   60   62 1    
   124   62   63 1    
   125   62   64 1    
   126   62  185 1    
   127   63  186 1    
   128   63  187 1    
   129   63  188 1    
   130   64   65 am   BACKBONE|DICT|INTERRES
   131   64  189 1    
   132   65   66 2    
   133   67   68 2    
   134   67   69 am   BACKBONE|DICT|INTERRES
   135   69   70 1    
   136   69  190 1    
   137   70   71 1    
   138   70   72 1    
   139   70  191 1    
   140   71  192 1    
   141   71  193 1    
   142   71  194 1    
   143   72   73 2    
   144   72   74 am   BACKBONE|DICT|INTERRES
   145   74   75 1    
   146   74  195 1    
   147   75   76 1    
   148   75   77 1    
   149   75  196 1    
   150   76  197 1    
   151   76  198 1    
   152   76  199 1    
   153   77   78 2    
   154   77   79 am   BACKBONE|DICT|INTERRES
   155   79   80 1    
   156   79  200 1    
   157   80   81 1    
   158   80   82 1    
   159   80  201 1    
   160   81  202 1    
   161   81  203 1    
   162   81  204 1    
   163   82   83 2    
   164   82   84 am   BACKBONE|DICT|INTERRES
   165   84   85 1    
   166   84  205 1    
   167   85   86 1    
   168   85   87 1    
   169   85  206 1    
   170   86  207 1    
   171   86  208 1    
   172   86  209 1    
   173   87   88 2    
   174   87   89 am   BACKBONE|DICT|INTERRES
   175   89   90 1    
   176   89  210 1    
   177   90   91 1    
   178   90   92 1    
   179   90  211 1    
   180   91  212 1    
   181   91  213 1    
   182   91  214 1    
   183   92   93 2    
   184   92   94 am   BACKBONE|DICT|INTERRES
   185   94   95 1    
   186   94  215 1    
   187   95   96 1    
   188   95   97 1    
   189   95  216 1    
   190   96  217 1    
   191   96  218 1    
   192   96  219 1    
   193   97   98 2    
   194   97   99 am   BACKBONE|DICT|INTERRES
   195   99  100 1    
   196   99  220 1    
   197  100  101 1    
   198  100  102 1    
   199  100  221 1    
   200  101  222 1    
   201  101  223 1    
   202  101  224 1    
   203  102  103 2    
   204  102  104 am   BACKBONE|DICT|INTERRES
   205  104  105 1    
   206  104  225 1    
   207  105  106 1    
   208  105  107 1    
   209  105  226 1    
   210  106  227 1    
   211  106  228 1    
   212  106  229 1    
   213  107  108 2    
   214  107  109 am   BACKBONE|DICT|INTERRES
   215  109  110 1    
   216  109  230 1    
   217  110  111 1    
   218  110  112 1    
   219  110  231 1    
   220  111  232 1    
   221  111  233 1    
   222  111  234 1    
   223  112  113 2    
   224  112  114 am   BACKBONE|DICT|INTERRES
   225  114  115 1    
   226  114  235 1    
   227  115  116 1    
   228  115  117 1    
   229  115  236 1    
   230  116  237 1    
   231  116  238 1    
   232  116  239 1    
   233  117  118 2    
   234  117  119 am   BACKBONE|DICT|INTERRES
   235  119  120 1    
   236  119  240 1    
   237  120  121 1    
   238  120  124 1    
   239  120  241 1    
   240  121  122 am   BACKBONE|DICT|INTERRES
   241  121  123 2    
   242  122  242 1    
   243  122  243 1    
   244  124  125 1    
   245  124  244 1    
   246  124  245 1    
   247  125  126 1    
   248  126  246 1    
   249  126  247 1    
@<TRIPOS>SUBSTRUCTURE
     1 UNK         1 GROUP             0       ****    0 ROOT    
