@<TRIPOS>MOLECULE
3R540
247   249    1
SMALL
USER_CHARGES


@<TRIPOS>ATOM
      1 CA          8.0595  -12.0718  -46.3908 C.3       0 UNK        -0.1800 
      2 C           6.8799  -12.6747  -47.1407 C.2       0 UNK         0.5000 
      3 O           6.7542  -12.4669  -48.3473 O.2       0 UNK        -0.5000 
      4 N           6.0230  -13.4192  -46.4282 N.am      1 UNK        -0.5000 
      5 CA          4.8114  -14.0732  -46.9383 C.3       1 UNK         0.1400 
      6 C6          5.1139  -15.2050  -47.9590 C.3       23 UNK        -0.0398 
      7 S7          3.7700  -16.4407  -48.0540 S.3       23 UNK        -0.2404 
      8 C8          3.2663  -16.2624  -49.7923 C.3       23 UNK        -0.0205 
      9 C9          1.8680  -16.8045  -50.0407 C.ar      23 UNK        -0.0193 
     10 C10         0.7714  -15.9381  -50.0527 C.ar      23 UNK        -0.1150 
     11 C11        -0.5045  -16.4122  -50.3707 C.ar      23 UNK        -0.0193 
     12 C12        -0.6827  -17.7720  -50.6403 C.ar      23 UNK        -0.1150 
     13 C13         0.3981  -18.6582  -50.6015 C.ar      23 UNK        -0.0193 
     14 C14         1.6759  -18.1607  -50.3146 C.ar      23 UNK        -0.1150 
     15 C15         0.1544  -20.1333  -50.9190 C.3       23 UNK        -0.0205 
     16 S16         1.2710  -21.3050  -50.0756 S.3       23 UNK        -0.2404 
     17 C17         0.9517  -20.9068  -48.3261 C.3       23 UNK        -0.0398 
     18 CA          0.2562  -22.0457  -47.5490 C.3       11 UNK         0.1400 
     19 N           0.4410  -21.8803  -46.1061 N.am      11 UNK        -0.5000 
     20 C           0.0999  -22.7824  -45.1770 C.2       10 UNK         0.5000 
     21 O          -0.3659  -23.8909  -45.4391 O.2       10 UNK        -0.5000 
     22 CA          0.2613  -22.3510  -43.7084 C.3       10 UNK         0.1400 
     23 CB          1.7179  -22.5117  -43.2491 C.3       10 UNK        -0.1800 
     24 N          -0.1790  -20.9729  -43.4815 N.am      10 UNK        -0.5000 
     25 C          -1.4444  -20.5514  -43.6193 C.2       9 UNK         0.5000 
     26 O          -2.3820  -21.2996  -43.8934 O.2       9 UNK        -0.5000 
     27 CA         -1.7002  -19.0384  -43.4783 C.3       9 UNK         0.1400 
     28 CB         -1.7633  -18.6262  -42.0009 C.3       9 UNK        -0.1800 
     29 N          -0.6999  -18.2297  -44.1769 N.am      9 UNK        -0.5000 
     30 C          -0.5070  -18.2451  -45.5041 C.2       8 UNK         0.5000 
     31 O          -1.1847  -18.9092  -46.2848 O.2       8 UNK        -0.5000 
     32 CA          0.6749  -17.4303  -46.0495 C.3       8 UNK         0.1400 
     33 CB          0.2721  -15.9705  -46.2799 C.3       8 UNK        -0.1800 
     34 N           1.8361  -17.4957  -45.1644 N.am      8 UNK        -0.5000 
     35 C           2.5772  -18.5980  -44.9854 C.2       7 UNK         0.5000 
     36 O           2.3611  -19.6691  -45.5523 O.2       7 UNK        -0.5000 
     37 CA          3.7179  -18.4985  -43.9574 C.3       7 UNK         0.1400 
     38 CB          4.9164  -17.7371  -44.5452 C.3       7 UNK        -0.1800 
     39 N           3.2922  -17.8534  -42.7147 N.am      7 UNK        -0.5000 
     40 C           2.3592  -18.3406  -41.8835 C.2       6 UNK         0.5000 
     41 O           1.7922  -19.4195  -42.0489 O.2       6 UNK        -0.5000 
     42 CA          1.9597  -17.4533  -40.6891 C.3       6 UNK         0.1400 
     43 CB          2.8364  -17.7687  -39.4683 C.3       6 UNK        -0.1800 
     44 N           2.0297  -16.0184  -40.9784 N.am      6 UNK        -0.5000 
     45 C           1.3104  -15.3881  -41.9167 C.2       5 UNK         0.5000 
     46 O           0.5093  -15.9563  -42.6637 O.2       5 UNK        -0.5000 
     47 CA          1.6036  -13.8876  -42.0815 C.3       5 UNK         0.1400 
     48 CB          2.8732  -13.6896  -42.9278 C.3       5 UNK        -0.1800 
     49 N           0.4888  -13.1699  -42.7012 N.am      5 UNK        -0.5000 
     50 C          -0.6385  -12.8291  -42.0589 C.2       4 UNK         0.5000 
     51 O          -0.8456  -13.1045  -40.8755 O.2       4 UNK        -0.5000 
     52 CA         -1.7019  -12.0110  -42.8237 C.3       4 UNK         0.1400 
     53 CB         -1.8096  -10.5937  -42.2367 C.3       4 UNK        -0.1800 
     54 N          -1.4292  -11.8913  -44.2558 N.am      4 UNK        -0.5000 
     55 C          -1.8539  -12.7478  -45.1932 C.2       3 UNK         0.5000 
     56 O          -2.5766  -13.7157  -44.9557 O.2       3 UNK        -0.5000 
     57 CA         -1.3874  -12.4866  -46.6434 C.3       3 UNK         0.1400 
     58 CB         -2.4972  -11.7940  -47.4490 C.3       3 UNK        -0.1800 
     59 N          -0.1436  -11.7136  -46.7814 N.am      3 UNK        -0.5000 
     60 C           1.0357  -12.0777  -46.2634 C.2       2 UNK         0.5000 
     61 O           1.1670  -13.0287  -45.4934 O.2       2 UNK        -0.5000 
     62 CA          2.2714  -11.2316  -46.6221 C.3       2 UNK         0.1400 
     63 CB          2.4146  -10.0533  -45.6470 C.3       2 UNK        -0.1800 
     64 N           3.4734  -12.0631  -46.5405 N.am      2 UNK        -0.5000 
     65 C           3.7574  -13.0429  -47.4100 C.2       1 UNK         0.5000 
     66 O           3.2145  -13.1429  -48.5114 O.2       1 UNK        -0.5000 
     67 C          -1.2361  -22.1849  -47.9247 C.2       11 UNK         0.5000 
     68 O          -1.5890  -23.0749  -48.6977 O.2       11 UNK        -0.5000 
     69 N          -2.0924  -21.3435  -47.3295 N.am      12 UNK        -0.5000 
     70 CA         -3.5470  -21.3874  -47.4675 C.3       12 UNK         0.1400 
     71 CB         -4.1627  -20.1615  -46.7797 C.3       12 UNK        -0.1800 
     72 C          -4.1708  -22.6803  -46.9154 C.2       12 UNK         0.5000 
     73 O          -5.0851  -23.2196  -47.5373 O.2       12 UNK        -0.5000 
     74 N          -3.6592  -23.1597  -45.7728 N.am      13 UNK        -0.5000 
     75 CA         -4.0629  -24.4211  -45.1511 C.3       13 UNK         0.1400 
     76 CB         -3.4798  -24.5083  -43.7325 C.3       13 UNK        -0.1800 
     77 C          -3.6615  -25.6500  -45.9882 C.2       13 UNK         0.5000 
     78 O          -4.4406  -26.5999  -46.0769 O.2       13 UNK        -0.5000 
     79 N          -2.4677  -25.6048  -46.5971 N.am      14 UNK        -0.5000 
     80 CA         -1.9744  -26.6190  -47.5293 C.3       14 UNK         0.1400 
     81 CB         -0.4741  -26.4017  -47.7814 C.3       14 UNK        -0.1800 
     82 C          -2.7608  -26.6271  -48.8539 C.2       14 UNK         0.5000 
     83 O          -3.1311  -27.7016  -49.3282 O.2       14 UNK        -0.5000 
     84 N          -3.0161  -25.4284  -49.3998 N.am      15 UNK        -0.5000 
     85 CA         -3.7385  -25.1376  -50.6388 C.3       15 UNK         0.1400 
     86 CB         -5.2440  -25.4467  -50.4867 C.3       15 UNK        -0.1800 
     87 C          -3.0767  -25.8119  -51.8568 C.2       15 UNK         0.5000 
     88 O          -2.0316  -25.3373  -52.3055 O.2       15 UNK        -0.5000 
     89 N          -3.6859  -26.8934  -52.3666 N.am      16 UNK        -0.5000 
     90 CA         -3.2646  -27.6923  -53.5211 C.3       16 UNK         0.1400 
     91 CB         -1.9510  -28.4475  -53.2165 C.3       16 UNK        -0.1800 
     92 C          -3.2148  -26.8338  -54.7992 C.2       16 UNK         0.5000 
     93 O          -4.2695  -26.5373  -55.3615 O.2       16 UNK        -0.5000 
     94 N          -2.0092  -26.4208  -55.2138 N.am      17 UNK        -0.5000 
     95 CA         -1.7807  -25.4828  -56.3144 C.3       17 UNK         0.1400 
     96 CB         -0.2798  -25.4408  -56.6376 C.3       17 UNK        -0.1800 
     97 C          -2.3102  -24.0666  -56.0126 C.2       17 UNK         0.5000 
     98 O          -2.7540  -23.3768  -56.9310 O.2       17 UNK        -0.5000 
     99 N          -2.3003  -23.6727  -54.7317 N.am      18 UNK        -0.5000 
    100 CA        -2.8730  -22.4265  -54.2271 C.3       18 UNK         0.1400 
    101 CB        -2.0055  -21.9116  -53.0659 C.3       18 UNK        -0.1800 
    102 C         -4.3399  -22.6535  -53.8174 C.2       18 UNK         0.5000 
    103 O         -4.7101  -22.4151  -52.6670 O.2       18 UNK        -0.5000 
    104 N         -5.1521  -23.1292  -54.7712 N.am      19 UNK        -0.5000 
    105 CA        -6.5522  -23.5306  -54.5921 C.3       19 UNK         0.1400 
    106 CB        -7.0667  -24.1296  -55.9097 C.3       19 UNK        -0.1800 
    107 C         -7.4917  -22.4061  -54.1104 C.2       19 UNK         0.5000 
    108 O         -8.5300  -22.6989  -53.5169 O.2       19 UNK        -0.5000 
    109 N         -7.1051  -21.1456  -54.3531 N.am      20 UNK        -0.5000 
    110 CA        -7.7827  -19.9477  -53.8530 C.3       20 UNK         0.1400 
    111 CB        -7.2266  -18.7206  -54.5923 C.3       20 UNK        -0.1800 
    112 C         -7.6514  -19.7586  -52.3266 C.2       20 UNK         0.5000 
    113 O         -8.4843  -19.0684  -51.7392 O.2       20 UNK        -0.5000 
    114 N         -6.6205  -20.3723  -51.7218 N.am      21 UNK        -0.5000 
    115 CA        -6.2913  -20.3637  -50.2937 C.3       21 UNK         0.1400 
    116 CB        -7.3526  -21.1357  -49.4832 C.3       21 UNK        -0.1800 
    117 C         -5.9997  -18.9530  -49.7360 C.2       21 UNK         0.5000 
    118 O         -6.4179  -18.6299  -48.6233 O.2       21 UNK        -0.5000 
    119 N         -5.2642  -18.1482  -50.5168 N.am      22 UNK        -0.5000 
    120 CA        -4.8375  -16.7784  -50.1816 C.3       22 UNK         0.1400 
    121 C         -6.0279  -15.7874  -49.9641 C.2       22 UNK         0.5000 
    122 N         -5.8635  -14.7329  -49.1773 N.am      22 UNK        -0.7600 
    123 O         -7.0931  -15.9318  -50.5595 O.2       22 UNK        -0.5000 
    124 C124       -3.7540  -16.7826  -49.0565 C.3       23 UNK        -0.0398 
    125 S125       -2.6817  -15.3012  -49.0010 S.3       23 UNK        -0.2404 
    126 C126       -1.6677  -15.4403  -50.5084 C.3       23 UNK        -0.0205 
    127 H127        8.0493  -12.3394  -45.3340 H         1 UNK         0.0600 
    128 H128        8.0355  -10.9847  -46.4661 H         1 UNK         0.0600 
    129 H129        8.9970  -12.4237  -46.8212 H         1 UNK         0.0600 
    130 H130        6.1983  -13.5458  -45.4411 H         1 UNK         0.3000 
    131 H131        4.3693  -14.5479  -46.0607 H         1 UNK         0.0600 
    132 H132        6.0100  -15.7449  -47.6509 H         1 UNK         0.0800 
    133 H133        5.3419  -14.7963  -48.9446 H         1 UNK         0.0800 
    134 H134        3.9862  -16.7809  -50.4271 H         1 UNK         0.0800 
    135 H135        3.3040  -15.2137  -50.0881 H         1 UNK         0.0800 
    136 H136        0.9202  -14.8858  -49.8523 H         1 UNK         0.1150 
    137 H137       -1.6639  -18.1390  -50.9051 H         1 UNK         0.1150 
    138 H138        2.5298  -18.8229  -50.3132 H         1 UNK         0.1150 
    139 H139       -0.8722  -20.4060  -50.6689 H         1 UNK         0.0800 
    140 H140        0.2631  -20.2690  -51.9948 H         1 UNK         0.0800 
    141 H141        0.3941  -19.9746  -48.2315 H         1 UNK         0.0800 
    142 H142        1.9303  -20.7078  -47.8888 H         1 UNK         0.0800 
    143 H143        0.7461  -22.9845  -47.8164 H         1 UNK         0.0600 
    144 H144        0.8648  -21.0093  -45.8026 H         1 UNK         0.3000 
    145 H145       -0.3617  -23.0081  -43.0982 H         1 UNK         0.0600 
    146 H146        1.8215  -22.2899  -42.1869 H         1 UNK         0.0600 
    147 H147        2.3888  -21.8475  -43.7949 H         1 UNK         0.0600 
    148 H148        2.0666  -23.5334  -43.4041 H         1 UNK         0.0600 
    149 H149        0.5347  -20.3086  -43.1942 H         1 UNK         0.3000 
    150 H150       -2.6701  -18.8209  -43.9298 H         1 UNK         0.0600 
    151 H151       -2.5716  -19.1480  -41.4873 H         1 UNK         0.0600 
    152 H152       -1.9454  -17.5564  -41.8951 H         1 UNK         0.0600 
    153 H153       -0.8384  -18.8632  -41.4769 H         1 UNK         0.0600 
    154 H154       -0.1302  -17.6084  -43.6110 H         1 UNK         0.3000 
    155 H155        0.9576  -17.8538  -47.0159 H         1 UNK         0.0600 
    156 H156        1.0813  -15.4090  -46.7466 H         1 UNK         0.0600 
    157 H157       -0.5885  -15.9083  -46.9454 H         1 UNK         0.0600 
    158 H158        0.0036  -15.4723  -45.3477 H         1 UNK         0.0600 
    159 H159        2.0332  -16.6730  -44.6150 H         1 UNK         0.3000 
    160 H160        4.0403  -19.5141  -43.7181 H         1 UNK         0.0600 
    161 H161        5.7635  -17.7447  -43.8592 H         1 UNK         0.0600 
    162 H162        4.6689  -16.6975  -44.7618 H         1 UNK         0.0600 
    163 H163        5.2496  -18.1944  -45.4779 H         1 UNK         0.0600 
    164 H164        3.7099  -16.9619  -42.4953 H         1 UNK         0.3000 
    165 H165        0.9252  -17.6879  -40.4334 H         1 UNK         0.0600 
    166 H166        2.5075  -17.2111  -38.5912 H         1 UNK         0.0600 
    167 H167        2.7855  -18.8287  -39.2151 H         1 UNK         0.0600 
    168 H168        3.8838  -17.5245  -39.6497 H         1 UNK         0.0600 
    169 H169        2.6741  -15.4817  -40.4157 H         1 UNK         0.3000 
    170 H170        1.7803  -13.4560  -41.0939 H         1 UNK         0.0600 
    171 H171        2.8087  -14.2126  -43.8824 H         1 UNK         0.0600 
    172 H172        3.0524  -12.6342  -43.1336 H         1 UNK         0.0600 
    173 H173        3.7528  -14.0717  -42.4089 H         1 UNK         0.0600 
    174 H174        0.5700  -13.0008  -43.6999 H         1 UNK         0.3000 
    175 H175       -2.6620  -12.5099  -42.6759 H         1 UNK         0.0600 
    176 H176       -0.8736  -10.0433  -42.3398 H         1 UNK         0.0600 
    177 H177       -2.5932  -10.0201  -42.7322 H         1 UNK         0.0600 
    178 H178       -2.0564  -10.6255  -41.1747 H         1 UNK         0.0600 
    179 H179       -0.8328  -11.1292  -44.5417 H         1 UNK         0.3000 
    180 H180       -1.2046  -13.4637  -47.0935 H         1 UNK         0.0600 
    181 H181       -2.2318  -11.7207  -48.5039 H         1 UNK         0.0600 
    182 H182       -2.6947  -10.7876  -47.0782 H         1 UNK         0.0600 
    183 H183       -3.4308  -12.3553  -47.3915 H         1 UNK         0.0600 
    184 H184       -0.1852  -10.9040  -47.3835 H         1 UNK         0.3000 
    185 H185        2.1647  -10.8481  -47.6389 H         1 UNK         0.0600 
    186 H186        2.5041  -10.3925  -44.6139 H         1 UNK         0.0600 
    187 H187        3.2946   -9.4536  -45.8805 H         1 UNK         0.0600 
    188 H188        1.5486   -9.3925  -45.7016 H         1 UNK         0.0600 
    189 H189        3.9640  -12.0493  -45.6593 H         1 UNK         0.3000 
    190 H190       -1.7207  -20.5901  -46.7543 H         1 UNK         0.3000 
    191 H191       -3.7773  -21.3375  -48.5325 H         1 UNK         0.0600 
    192 H192       -3.8365  -19.2376  -47.2555 H         1 UNK         0.0600 
    193 H193       -3.8889  -20.1077  -45.7270 H         1 UNK         0.0600 
    194 H194       -5.2513  -20.1907  -46.8275 H         1 UNK         0.0600 
    195 H195       -2.9602  -22.6109  -45.2819 H         1 UNK         0.3000 
    196 H196       -5.1517  -24.4187  -45.0678 H         1 UNK         0.0600 
    197 H197       -3.8155  -23.6737  -43.1166 H         1 UNK         0.0600 
    198 H198       -2.3900  -24.4990  -43.7420 H         1 UNK         0.0600 
    199 H199       -3.7959  -25.4268  -43.2367 H         1 UNK         0.0600 
    200 H200       -1.8566  -24.8155  -46.4132 H         1 UNK         0.3000 
    201 H201       -2.0984  -27.5976  -47.0608 H         1 UNK         0.0600 
    202 H202        0.0936  -26.4632  -46.8527 H         1 UNK         0.0600 
    203 H203       -0.2751  -25.4278  -48.2291 H         1 UNK         0.0600 
    204 H204       -0.0783  -27.1608  -48.4570 H         1 UNK         0.0600 
    205 H205       -2.5901  -24.6136  -48.9632 H         1 UNK         0.3000 
    206 H206       -3.6422  -24.0624  -50.7945 H         1 UNK         0.0600 
    207 H207       -5.4343  -26.4937  -50.2500 H         1 UNK         0.0600 
    208 H208       -5.6813  -24.8467  -49.6887 H         1 UNK         0.0600 
    209 H209       -5.7869  -25.2034  -51.4011 H         1 UNK         0.0600 
    210 H210       -4.5372  -27.1999  -51.9178 H         1 UNK         0.3000 
    211 H211       -4.0417  -28.4406  -53.6833 H         1 UNK         0.0600 
    212 H212       -1.1255  -27.7770  -52.9768 H         1 UNK         0.0600 
    213 H213       -1.6457  -29.0598  -54.0659 H         1 UNK         0.0600 
    214 H214       -2.0810  -29.1185  -52.3673 H         1 UNK         0.0600 
    215 H215       -1.2011  -26.6883  -54.6706 H         1 UNK         0.3000 
    216 H216       -2.3111  -25.8551  -57.1934 H         1 UNK         0.0600 
    217 H217       -0.0790  -24.7667  -57.4714 H         1 UNK         0.0600 
    218 H218        0.0906  -26.4261  -56.9213 H         1 UNK         0.0600 
    219 H219        0.3060  -25.0933  -55.7857 H         1 UNK         0.0600 
    220 H220       -1.9857  -24.3291  -54.0228 H         1 UNK         0.3000 
    221 H221       -2.8633  -21.6658  -55.0103 H         1 UNK         0.0600 
    222 H222       -1.9982  -22.6019  -52.2216 H         1 UNK         0.0600 
    223 H223       -0.9741  -21.7689  -53.3873 H         1 UNK         0.0600 
    224 H224       -2.3714  -20.9507  -52.7023 H         1 UNK         0.0600 
    225 H225       -4.7531  -23.2995  -55.6851 H         1 UNK         0.3000 
    226 H226       -6.5704  -24.3134  -53.8311 H         1 UNK         0.0600 
    227 H227       -6.4693  -24.9900  -56.2120 H         1 UNK         0.0600 
    228 H228       -8.0975  -24.4720  -55.8090 H         1 UNK         0.0600 
    229 H229       -7.0398  -23.4001  -56.7201 H         1 UNK         0.0600 
    230 H230       -6.2473  -21.0025  -54.8649 H         1 UNK         0.3000 
    231 H231       -8.8465  -20.0351  -54.0840 H         1 UNK         0.0600 
    232 H232       -7.7257  -17.8076  -54.2643 H         1 UNK         0.0600 
    233 H233       -7.3806  -18.8044  -55.6683 H         1 UNK         0.0600 
    234 H234       -6.1584  -18.5923  -54.4135 H         1 UNK         0.0600 
    235 H235       -6.0120  -20.9551  -52.2882 H         1 UNK         0.3000 
    236 H236       -5.3569  -20.9188  -50.2079 H         1 UNK         0.0600 
    237 H237       -8.3166  -20.6265  -49.4877 H         1 UNK         0.0600 
    238 H238       -7.4990  -22.1388  -49.8843 H         1 UNK         0.0600 
    239 H239       -7.0454  -21.2475  -48.4428 H         1 UNK         0.0600 
    240 H240       -5.0083  -18.4796  -51.4350 H         1 UNK         0.3000 
    241 H241       -4.3690  -16.4243  -51.0977 H         1 UNK         0.0600 
    242 H242       -4.9789  -14.5676  -48.7201 H         1 UNK         0.3800 
    243 H243       -6.6234  -14.0822  -49.0552 H         1 UNK         0.3800 
    244 H244       -3.1049  -17.6521  -49.1564 H         1 UNK         0.0800 
    245 H245       -4.2297  -16.8957  -48.0811 H         1 UNK         0.0800 
    246 H246       -2.2817  -15.7172  -51.3644 H         1 UNK         0.0800 
    247 H247       -1.2812  -14.4470  -50.7416 H         1 UNK         0.0800 
@<TRIPOS>BOND
     1    1    2 1    
     2    1  127 1    
     3    1  128 1    
     4    1  129 1    
     5    2    3 2    
     6    2    4 am   BACKBONE|DICT|INTERRES
     7    4    5 1    
     8    4  130 1    
     9    5    6 1    
    10    5   65 1    
    11    5  131 1    
    12    6    7 1    
    13    6  132 1    
    14    6  133 1    
    15    7    8 1    
    16    8    9 1    
    17    8  134 1    
    18    8  135 1    
    19    9   10 ar   
    20    9   14 ar   
    21   10   11 ar   
    22   10  136 1    
    23   11   12 ar   
    24   11  126 1    
    25   12   13 ar   
    26   12  137 1    
    27   13   14 ar   
    28   13   15 1    
    29   14  138 1    
    30   15   16 1    
    31   15  139 1    
    32   15  140 1    
    33   16   17 1    
    34   17   18 1    
    35   17  141 1    
    36   17  142 1    
    37   18   19 1    
    38   18   67 1    
    39   18  143 1    
    40   19   20 am   BACKBONE|DICT|INTERRES
    41   19  144 1    
    42   20   21 2    
    43   20   22 1    
    44   22   23 1    
    45   22   24 1    
    46   22  145 1    
    47   23  146 1    
    48   23  147 1    
    49   23  148 1    
    50   24   25 am   BACKBONE|DICT|INTERRES
    51   24  149 1    
    52   25   26 2    
    53   25   27 1    
    54   27   28 1    
    55   27   29 1    
    56   27  150 1    
    57   28  151 1    
    58   28  152 1    
    59   28  153 1    
    60   29   30 am   BACKBONE|DICT|INTERRES
    61   29  154 1    
    62   30   31 2    
    63   30   32 1    
    64   32   33 1    
    65   32   34 1    
    66   32  155 1    
    67   33  156 1    
    68   33  157 1    
    69   33  158 1    
    70   34   35 am   BACKBONE|DICT|INTERRES
    71   34  159 1    
    72   35   36 2    
    73   35   37 1    
    74   37   38 1    
    75   37   39 1    
    76   37  160 1    
    77   38  161 1    
    78   38  162 1    
    79   38  163 1    
    80   39   40 am   BACKBONE|DICT|INTERRES
    81   39  164 1    
    82   40   41 2    
    83   40   42 1    
    84   42   43 1    
    85   42   44 1    
    86   42  165 1    
    87   43  166 1    
    88   43  167 1    
    89   43  168 1    
    90   44   45 am   BACKBONE|DICT|INTERRES
    91   44  169 1    
    92   45   46 2    
    93   45   47 1    
    94   47   48 1    
    95   47   49 1    
    96   47  170 1    
    97   48  171 1    
    98   48  172 1    
    99   48  173 1    
   100   49   50 am   BACKBONE|DICT|INTERRES
   101   49  174 1    
   102   50   51 2    
   103   50   52 1    
   104   52   53 1    
   105   52   54 1    
   106   52  175 1    
   107   53  176 1    
   108   53  177 1    
   109   53  178 1    
   110   54   55 am   BACKBONE|DICT|INTERRES
   111   54  179 1    
   112   55   56 2    
   113   55   57 1    
   114   57   58 1    
   115   57   59 1    
   116   57  180 1    
   117   58  181 1    
   118   58  182 1    
   119   58  183 1    
   120   59   60 am   BACKBONE|DICT|INTERRES
   121   59  184 1    
   122   60   61 2    
   123   60   62 1    
   124   62   63 1    
   125   62   64 1    
   126   62  185 1    
   127   63  186 1    
   128   63  187 1    
   129   63  188 1    
   130   64   65 am   BACKBONE|DICT|INTERRES
   131   64  189 1    
   132   65   66 2    
   133   67   68 2    
   134   67   69 am   BACKBONE|DICT|INTERRES
   135   69   70 1    
   136   69  190 1    
   137   70   71 1    
   138   70   72 1    
   139   70  191 1    
   140   71  192 1    
   141   71  193 1    
   142   71  194 1    
   143   72   73 2    
   144   72   74 am   BACKBONE|DICT|INTERRES
   145   74   75 1    
   146   74  195 1    
   147   75   76 1    
   148   75   77 1    
   149   75  196 1    
   150   76  197 1    
   151   76  198 1    
   152   76  199 1    
   153   77   78 2    
   154   77   79 am   BACKBONE|DICT|INTERRES
   155   79   80 1    
   156   79  200 1    
   157   80   81 1    
   158   80   82 1    
   159   80  201 1    
   160   81  202 1    
   161   81  203 1    
   162   81  204 1    
   163   82   83 2    
   164   82   84 am   BACKBONE|DICT|INTERRES
   165   84   85 1    
   166   84  205 1    
   167   85   86 1    
   168   85   87 1    
   169   85  206 1    
   170   86  207 1    
   171   86  208 1    
   172   86  209 1    
   173   87   88 2    
   174   87   89 am   BACKBONE|DICT|INTERRES
   175   89   90 1    
   176   89  210 1    
   177   90   91 1    
   178   90   92 1    
   179   90  211 1    
   180   91  212 1    
   181   91  213 1    
   182   91  214 1    
   183   92   93 2    
   184   92   94 am   BACKBONE|DICT|INTERRES
   185   94   95 1    
   186   94  215 1    
   187   95   96 1    
   188   95   97 1    
   189   95  216 1    
   190   96  217 1    
   191   96  218 1    
   192   96  219 1    
   193   97   98 2    
   194   97   99 am   BACKBONE|DICT|INTERRES
   195   99  100 1    
   196   99  220 1    
   197  100  101 1    
   198  100  102 1    
   199  100  221 1    
   200  101  222 1    
   201  101  223 1    
   202  101  224 1    
   203  102  103 2    
   204  102  104 am   BACKBONE|DICT|INTERRES
   205  104  105 1    
   206  104  225 1    
   207  105  106 1    
   208  105  107 1    
   209  105  226 1    
   210  106  227 1    
   211  106  228 1    
   212  106  229 1    
   213  107  108 2    
   214  107  109 am   BACKBONE|DICT|INTERRES
   215  109  110 1    
   216  109  230 1    
   217  110  111 1    
   218  110  112 1    
   219  110  231 1    
   220  111  232 1    
   221  111  233 1    
   222  111  234 1    
   223  112  113 2    
   224  112  114 am   BACKBONE|DICT|INTERRES
   225  114  115 1    
   226  114  235 1    
   227  115  116 1    
   228  115  117 1    
   229  115  236 1    
   230  116  237 1    
   231  116  238 1    
   232  116  239 1    
   233  117  118 2    
   234  117  119 am   BACKBONE|DICT|INTERRES
   235  119  120 1    
   236  119  240 1    
   237  120  121 1    
   238  120  124 1    
   239  120  241 1    
   240  121  122 am   BACKBONE|DICT|INTERRES
   241  121  123 2    
   242  122  242 1    
   243  122  243 1    
   244  124  125 1    
   245  124  244 1    
   246  124  245 1    
   247  125  126 1    
   248  126  246 1    
   249  126  247 1    
@<TRIPOS>SUBSTRUCTURE
     1 UNK         1 GROUP             0       ****    0 ROOT    
