@<TRIPOS>MOLECULE
3R540
247   249    1
SMALL
USER_CHARGES


@<TRIPOS>ATOM
      1 CA         -2.8202  -13.0621  -49.8660 C.3       0 UNK        -0.1800 
      2 C          -1.4762  -13.2171  -49.1688 C.2       0 UNK         0.5000 
      3 O          -1.0444  -12.3112  -48.4567 O.2       0 UNK        -0.5000 
      4 N          -0.8197  -14.3684  -49.3625 N.am      1 UNK        -0.5000 
      5 CA          0.4987  -14.6990  -48.7975 C.3       1 UNK         0.1400 
      6 C6          1.1859  -15.8586  -49.5592 C.3       23 UNK        -0.0398 
      7 S7          1.3944  -15.4743  -51.3328 S.3       23 UNK        -0.2404 
      8 C8          0.3352  -16.7266  -52.1193 C.3       23 UNK        -0.0205 
      9 C9          1.1049  -18.0079  -52.3948 C.ar      23 UNK        -0.0193 
     10 C10         1.7452  -18.1806  -53.6250 C.ar      23 UNK        -0.1150 
     11 C11         2.4100  -19.3730  -53.9165 C.ar      23 UNK        -0.0193 
     12 C12         2.4748  -20.3775  -52.9470 C.ar      23 UNK        -0.1150 
     13 C13         1.8521  -20.2151  -51.7058 C.ar      23 UNK        -0.0193 
     14 C14         1.1537  -19.0309  -51.4432 C.ar      23 UNK        -0.1150 
     15 C15         1.9178  -21.3395  -50.6782 C.3       23 UNK        -0.0205 
     16 S16         2.6247  -20.8054  -49.0842 S.3       23 UNK        -0.2404 
     17 C17         1.1103  -20.5243  -48.1093 C.3       23 UNK        -0.0398 
     18 CA          0.7779  -21.7431  -47.2148 C.3       11 UNK         0.1400 
     19 N           1.6766  -21.8518  -46.0746 N.am      11 UNK        -0.5000 
     20 C           2.2905  -22.9684  -45.6748 C.2       10 UNK         0.5000 
     21 O           2.3022  -24.0185  -46.3183 O.2       10 UNK        -0.5000 
     22 CA          2.9541  -22.9120  -44.2879 C.3       10 UNK         0.1400 
     23 CB          4.2620  -22.1072  -44.3395 C.3       10 UNK        -0.1800 
     24 N           2.0709  -22.3470  -43.2633 N.am      10 UNK        -0.5000 
     25 C           0.9128  -22.8924  -42.8577 C.2       9 UNK         0.5000 
     26 O           0.4563  -23.9454  -43.3036 O.2       9 UNK        -0.5000 
     27 CA          0.1289  -22.1357  -41.7730 C.3       9 UNK         0.1400 
     28 CB          0.7654  -22.3431  -40.3899 C.3       9 UNK        -0.1800 
     29 N           0.0605  -20.7084  -42.0708 N.am      9 UNK        -0.5000 
     30 C          -0.8769  -20.1339  -42.8360 C.2       8 UNK         0.5000 
     31 O          -1.8597  -20.7265  -43.2814 O.2       8 UNK        -0.5000 
     32 CA         -0.7112  -18.6356  -43.1474 C.3       8 UNK         0.1400 
     33 CB         -1.5817  -17.8074  -42.1904 C.3       8 UNK        -0.1800 
     34 N           0.6689  -18.1602  -43.0570 N.am      8 UNK        -0.5000 
     35 C           1.6799  -18.5346  -43.8524 C.2       7 UNK         0.5000 
     36 O           1.5676  -19.3262  -44.7861 O.2       7 UNK        -0.5000 
     37 CA          3.0669  -17.9740  -43.4975 C.3       7 UNK         0.1400 
     38 CB          3.2467  -16.5554  -44.0576 C.3       7 UNK        -0.1800 
     39 N           3.3040  -17.9679  -42.0531 N.am      7 UNK        -0.5000 
     40 C           3.4244  -19.0705  -41.3002 C.2       6 UNK         0.5000 
     41 O           3.3517  -20.2148  -41.7479 O.2       6 UNK        -0.5000 
     42 CA          3.6063  -18.8533  -39.7878 C.3       6 UNK         0.1400 
     43 CB          5.0554  -18.4614  -39.4624 C.3       6 UNK        -0.1800 
     44 N           2.6948  -17.8347  -39.2654 N.am      6 UNK        -0.5000 
     45 C           1.3660  -17.9880  -39.1771 C.2       5 UNK         0.5000 
     46 O           0.7760  -19.0246  -39.4788 O.2       5 UNK        -0.5000 
     47 CA          0.5555  -16.7643  -38.7086 C.3       5 UNK         0.1400 
     48 CB          0.4530  -16.7414  -37.1762 C.3       5 UNK        -0.1800 
     49 N           1.0858  -15.4794  -39.1786 N.am      5 UNK        -0.5000 
     50 C           1.2263  -15.1369  -40.4652 C.2       4 UNK         0.5000 
     51 O           0.9932  -15.8983  -41.4075 O.2       4 UNK        -0.5000 
     52 CA          1.7426  -13.7230  -40.7531 C.3       4 UNK         0.1400 
     53 CB          3.2727  -13.6582  -40.6152 C.3       4 UNK        -0.1800 
     54 N           1.3653  -13.3827  -42.1184 N.am      4 UNK        -0.5000 
     55 C           1.0091  -12.1759  -42.5659 C.2       3 UNK         0.5000 
     56 O           1.0164  -11.1598  -41.8695 O.2       3 UNK        -0.5000 
     57 CA          0.5759  -12.0810  -44.0420 C.3       3 UNK         0.1400 
     58 CB          1.6796  -11.4219  -44.8840 C.3       3 UNK        -0.1800 
     59 N           0.2503  -13.3771  -44.6422 N.am      3 UNK        -0.5000 
     60 C          -0.8973  -14.0472  -44.4830 C.2       2 UNK         0.5000 
     61 O          -1.8102  -13.6564  -43.7544 O.2       2 UNK        -0.5000 
     62 CA         -1.0498  -15.3536  -45.3000 C.3       2 UNK         0.1400 
     63 CB         -2.4599  -15.9648  -45.1916 C.3       2 UNK        -0.1800 
     64 N          -0.7545  -15.1636  -46.7218 N.am      2 UNK        -0.5000 
     65 C           0.4512  -14.9935  -47.2810 C.2       1 UNK         0.5000 
     66 O           1.5005  -15.0306  -46.6385 O.2       1 UNK        -0.5000 
     67 C          -0.6232  -21.6358  -46.6036 C.2       11 UNK         0.5000 
     68 O          -1.0889  -20.5214  -46.3651 O.2       11 UNK        -0.5000 
     69 N          -1.2282  -22.7998  -46.3221 N.am      12 UNK        -0.5000 
     70 CA         -2.5056  -23.0136  -45.6321 C.3       12 UNK         0.1400 
     71 CB         -2.8981  -24.4927  -45.7829 C.3       12 UNK        -0.1800 
     72 C          -3.6359  -22.0875  -46.1208 C.2       12 UNK         0.5000 
     73 O          -4.2398  -22.3604  -47.1595 O.2       12 UNK        -0.5000 
     74 N          -3.8451  -20.9775  -45.3997 N.am      13 UNK        -0.5000 
     75 CA         -4.7694  -19.8811  -45.7153 C.3       13 UNK         0.1400 
     76 CB         -6.2301  -20.3416  -45.5305 C.3       13 UNK        -0.1800 
     77 C          -4.5093  -19.2565  -47.1058 C.2       13 UNK         0.5000 
     78 O          -5.4509  -19.0184  -47.8628 O.2       13 UNK        -0.5000 
     79 N          -3.2241  -19.0531  -47.4342 N.am      14 UNK        -0.5000 
     80 CA         -2.7002  -18.5995  -48.7287 C.3       14 UNK         0.1400 
     81 CB         -3.1625  -17.1628  -49.0517 C.3       14 UNK        -0.1800 
     82 C          -3.0035  -19.6032  -49.8611 C.2       14 UNK         0.5000 
     83 O          -3.3428  -19.1986  -50.9732 O.2       14 UNK        -0.5000 
     84 N          -2.9009  -20.9001  -49.5334 N.am      15 UNK        -0.5000 
     85 CA         -3.2682  -22.0568  -50.3572 C.3       15 UNK         0.1400 
     86 CB         -2.3806  -22.1515  -51.6133 C.3       15 UNK        -0.1800 
     87 C          -4.7749  -22.0551  -50.6814 C.2       15 UNK         0.5000 
     88 O          -5.1630  -22.1357  -51.8497 O.2       15 UNK        -0.5000 
     89 N          -5.5895  -21.9265  -49.6250 N.am      16 UNK        -0.5000 
     90 CA         -7.0500  -21.7989  -49.6411 C.3       16 UNK         0.1400 
     91 CB         -7.6973  -23.1370  -50.0554 C.3       16 UNK        -0.1800 
     92 C          -7.5250  -20.6003  -50.4913 C.2       16 UNK         0.5000 
     93 O          -8.4347  -20.7426  -51.3085 O.2       16 UNK        -0.5000 
     94 N          -6.8680  -19.4480  -50.2920 N.am      17 UNK        -0.5000 
     95 CA         -7.0044  -18.2024  -51.0523 C.3       17 UNK         0.1400 
     96 CB         -8.3797  -17.5518  -50.7950 C.3       17 UNK        -0.1800 
     97 C          -6.6862  -18.3948  -52.5510 C.2       17 UNK         0.5000 
     98 O          -7.4794  -18.0040  -53.4100 O.2       17 UNK        -0.5000 
     99 N          -5.5220  -19.0038  -52.8215 N.am      18 UNK        -0.5000 
    100 CA        -4.9724  -19.3416  -54.1372 C.3       18 UNK         0.1400 
    101 CB        -4.5582  -18.0627  -54.8931 C.3       18 UNK        -0.1800 
    102 C         -5.8934  -20.2662  -54.9611 C.2       18 UNK         0.5000 
    103 O         -6.1563  -19.9955  -56.1355 O.2       18 UNK        -0.5000 
    104 N         -6.3755  -21.3371  -54.3190 N.am      19 UNK        -0.5000 
    105 CA        -7.2181  -22.3663  -54.9286 C.3       19 UNK         0.1400 
    106 CB        -8.5582  -22.4392  -54.1826 C.3       19 UNK        -0.1800 
    107 C         -6.5260  -23.7383  -54.9229 C.2       19 UNK         0.5000 
    108 O         -6.6903  -24.4961  -55.8799 O.2       19 UNK        -0.5000 
    109 N         -5.7622  -24.0414  -53.8634 N.am      20 UNK        -0.5000 
    110 CA        -5.0151  -25.2941  -53.7191 C.3       20 UNK         0.1400 
    111 CB        -4.8326  -25.5963  -52.2232 C.3       20 UNK        -0.1800 
    112 C         -3.6501  -25.2533  -54.4335 C.2       20 UNK         0.5000 
    113 O         -3.0837  -26.3086  -54.7204 O.2       20 UNK        -0.5000 
    114 N         -3.1522  -24.0432  -54.7055 N.am      21 UNK        -0.5000 
    115 CA        -1.9037  -23.7336  -55.3927 C.3       21 UNK         0.1400 
    116 CB        -0.6881  -24.0440  -54.4892 C.3       21 UNK        -0.1800 
    117 C         -1.9673  -22.2575  -55.8242 C.2       21 UNK         0.5000 
    118 O         -3.0601  -21.6905  -55.8943 O.2       21 UNK        -0.5000 
    119 N         -0.8035  -21.6507  -56.0795 N.am      22 UNK        -0.5000 
    120 CA        -0.6294  -20.2208  -56.3916 C.3       22 UNK         0.1400 
    121 C         -1.0143  -19.2242  -55.2569 C.2       22 UNK         0.5000 
    122 N         -1.2659  -19.6702  -54.0327 N.am      22 UNK        -0.7600 
    123 O         -1.1056  -18.0246  -55.5023 O.2       22 UNK        -0.5000 
    124 C124        0.7753  -19.9187  -56.9939 C.3       23 UNK        -0.0398 
    125 S125        2.1723  -20.8466  -56.2537 S.3       23 UNK        -0.2404 
    126 C126        3.0539  -19.5853  -55.2773 C.3       23 UNK        -0.0205 
    127 H127       -2.7952  -12.2077  -50.5423 H         1 UNK         0.0600 
    128 H128       -3.6069  -12.8935  -49.1306 H         1 UNK         0.0600 
    129 H129       -3.0817  -13.9476  -50.4460 H         1 UNK         0.0600 
    130 H130       -1.2099  -15.0553  -49.9897 H         1 UNK         0.3000 
    131 H131        1.1319  -13.8161  -48.9108 H         1 UNK         0.0600 
    132 H132        2.1793  -16.0505  -49.1491 H         1 UNK         0.0800 
    133 H133        0.6245  -16.7850  -49.4344 H         1 UNK         0.0800 
    134 H134       -0.5439  -16.9306  -51.5068 H         1 UNK         0.0800 
    135 H135       -0.0450  -16.3214  -53.0587 H         1 UNK         0.0800 
    136 H136        1.6930  -17.3982  -54.3690 H         1 UNK         0.1150 
    137 H137        2.9979  -21.2963  -53.1725 H         1 UNK         0.1150 
    138 H138        0.6513  -18.8997  -50.4983 H         1 UNK         0.1150 
    139 H139        0.9235  -21.7626  -50.5357 H         1 UNK         0.0800 
    140 H140        2.5356  -22.1564  -51.0543 H         1 UNK         0.0800 
    141 H141        0.2825  -20.3138  -48.7867 H         1 UNK         0.0800 
    142 H142        1.2451  -19.6231  -47.5083 H         1 UNK         0.0800 
    143 H143        0.8091  -22.6428  -47.8334 H         1 UNK         0.0600 
    144 H144        1.6945  -21.0314  -45.4708 H         1 UNK         0.3000 
    145 H145        3.1958  -23.9348  -43.9919 H         1 UNK         0.0600 
    146 H146        4.7798  -22.1359  -43.3806 H         1 UNK         0.0600 
    147 H147        4.9420  -22.5131  -45.0895 H         1 UNK         0.0600 
    148 H148        4.0817  -21.0613  -44.5898 H         1 UNK         0.0600 
    149 H149        2.3995  -21.5003  -42.8078 H         1 UNK         0.3000 
    150 H150       -0.8821  -22.5474  -41.7389 H         1 UNK         0.0600 
    151 H151        0.8212  -23.4035  -40.1410 H         1 UNK         0.0600 
    152 H152        0.1776  -21.8563  -39.6115 H         1 UNK         0.0600 
    153 H153        1.7774  -21.9402  -40.3420 H         1 UNK         0.0600 
    154 H154        0.8022  -20.1297  -41.7014 H         1 UNK         0.3000 
    155 H155       -1.0549  -18.4720  -44.1705 H         1 UNK         0.0600 
    156 H156       -2.6389  -18.0396  -42.3239 H         1 UNK         0.0600 
    157 H157       -1.4557  -16.7379  -42.3561 H         1 UNK         0.0600 
    158 H158       -1.3305  -18.0089  -41.1488 H         1 UNK         0.0600 
    159 H159        0.8571  -17.4686  -42.3341 H         1 UNK         0.3000 
    160 H160        3.8176  -18.6186  -43.9594 H         1 UNK         0.0600 
    161 H161        2.5005  -15.8634  -43.6674 H         1 UNK         0.0600 
    162 H162        3.1539  -16.5573  -45.1441 H         1 UNK         0.0600 
    163 H163        4.2325  -16.1566  -43.8183 H         1 UNK         0.0600 
    164 H164        3.3153  -17.0675  -41.5989 H         1 UNK         0.3000 
    165 H165        3.3885  -19.7989  -39.2863 H         1 UNK         0.0600 
    166 H166        5.2089  -18.3811  -38.3861 H         1 UNK         0.0600 
    167 H167        5.7546  -19.2116  -39.8343 H         1 UNK         0.0600 
    168 H168        5.3285  -17.5061  -39.9125 H         1 UNK         0.0600 
    169 H169        3.0976  -16.9507  -38.9922 H         1 UNK         0.3000 
    170 H170       -0.4531  -16.8689  -39.1133 H         1 UNK         0.0600 
    171 H171        0.0412  -17.6782  -36.7982 H         1 UNK         0.0600 
    172 H172        1.4283  -16.5991  -36.7090 H         1 UNK         0.0600 
    173 H173       -0.2032  -15.9399  -36.8362 H         1 UNK         0.0600 
    174 H174        1.3136  -14.8021  -38.4649 H         1 UNK         0.3000 
    175 H175        1.2739  -13.0321  -40.0492 H         1 UNK         0.0600 
    176 H176        3.7680  -14.3485  -41.2995 H         1 UNK         0.0600 
    177 H177        3.6435  -12.6554  -40.8279 H         1 UNK         0.0600 
    178 H178        3.5887  -13.9122  -39.6028 H         1 UNK         0.0600 
    179 H179        1.2561  -14.1808  -42.7294 H         1 UNK         0.3000 
    180 H180       -0.3109  -11.4450  -44.0832 H         1 UNK         0.0600 
    181 H181        2.5920  -12.0197  -44.8888 H         1 UNK         0.0600 
    182 H182        1.9342  -10.4353  -44.4946 H         1 UNK         0.0600 
    183 H183        1.3596  -11.2896  -45.9179 H         1 UNK         0.0600 
    184 H184        0.9407  -13.7780  -45.2703 H         1 UNK         0.3000 
    185 H185       -0.3364  -16.0700  -44.8884 H         1 UNK         0.0600 
    186 H186       -2.7662  -16.0968  -44.1548 H         1 UNK         0.0600 
    187 H187       -3.2086  -15.3315  -45.6687 H         1 UNK         0.0600 
    188 H188       -2.4991  -16.9448  -45.6658 H         1 UNK         0.0600 
    189 H189       -1.5553  -15.0528  -47.3247 H         1 UNK         0.3000 
    190 H190       -0.7216  -23.6459  -46.5393 H         1 UNK         0.3000 
    191 H191       -2.3414  -22.8335  -44.5702 H         1 UNK         0.0600 
    192 H192       -3.0013  -24.7789  -46.8305 H         1 UNK         0.0600 
    193 H193       -2.1533  -25.1462  -45.3280 H         1 UNK         0.0600 
    194 H194       -3.8503  -24.6965  -45.2914 H         1 UNK         0.0600 
    195 H195       -3.2296  -20.8225  -44.6032 H         1 UNK         0.3000 
    196 H196       -4.5739  -19.0930  -44.9868 H         1 UNK         0.0600 
    197 H197       -6.3921  -20.7428  -44.5301 H         1 UNK         0.0600 
    198 H198       -6.5064  -21.1136  -46.2490 H         1 UNK         0.0600 
    199 H199       -6.9230  -19.5096  -45.6613 H         1 UNK         0.0600 
    200 H200       -2.5152  -19.3826  -46.7815 H         1 UNK         0.3000 
    201 H201       -1.6145  -18.5769  -48.6261 H         1 UNK         0.0600 
    202 H202       -2.6690  -16.7869  -49.9480 H         1 UNK         0.0600 
    203 H203       -2.9279  -16.4799  -48.2368 H         1 UNK         0.0600 
    204 H204       -4.2364  -17.1101  -49.2298 H         1 UNK         0.0600 
    205 H205       -2.6979  -21.1133  -48.5674 H         1 UNK         0.3000 
    206 H206       -3.0787  -22.9432  -49.7499 H         1 UNK         0.0600 
    207 H207       -2.6180  -21.3716  -52.3355 H         1 UNK         0.0600 
    208 H208       -2.5254  -23.1097  -52.1102 H         1 UNK         0.0600 
    209 H209       -1.3240  -22.0709  -51.3622 H         1 UNK         0.0600 
    210 H210       -5.1590  -21.9107  -48.7024 H         1 UNK         0.3000 
    211 H211       -7.3543  -21.5858  -48.6156 H         1 UNK         0.0600 
    212 H212       -7.3827  -23.9447  -49.3947 H         1 UNK         0.0600 
    213 H213       -8.7851  -23.0801  -50.0022 H         1 UNK         0.0600 
    214 H214       -7.4324  -23.4194  -51.0741 H         1 UNK         0.0600 
    215 H215       -6.1831  -19.4192  -49.5397 H         1 UNK         0.3000 
    216 H216       -6.2441  -17.5240  -50.6633 H         1 UNK         0.0600 
    217 H217       -8.4412  -16.5717  -51.2692 H         1 UNK         0.0600 
    218 H218       -9.1969  -18.1568  -51.1888 H         1 UNK         0.0600 
    219 H219       -8.5526  -17.4077  -49.7285 H         1 UNK         0.0600 
    220 H220       -4.9192  -19.2510  -52.0407 H         1 UNK         0.3000 
    221 H221       -4.0665  -19.9168  -53.9443 H         1 UNK         0.0600 
    222 H222       -4.0536  -18.3109  -55.8275 H         1 UNK         0.0600 
    223 H223       -5.4172  -17.4380  -55.1390 H         1 UNK         0.0600 
    224 H224       -3.8638  -17.4656  -54.3020 H         1 UNK         0.0600 
    225 H225       -6.0944  -21.4847  -53.3533 H         1 UNK         0.3000 
    226 H226       -7.4312  -22.1192  -55.9705 H         1 UNK         0.0600 
    227 H227       -9.0625  -21.4727  -54.1838 H         1 UNK         0.0600 
    228 H228       -9.2286  -23.1594  -54.6531 H         1 UNK         0.0600 
    229 H229       -8.4256  -22.7443  -53.1450 H         1 UNK         0.0600 
    230 H230       -5.6503  -23.3627  -53.1143 H         1 UNK         0.3000 
    231 H231       -5.5945  -26.1095  -54.1574 H         1 UNK         0.0600 
    232 H232       -4.3495  -26.5633  -52.0780 H         1 UNK         0.0600 
    233 H233       -5.7921  -25.6312  -51.7067 H         1 UNK         0.0600 
    234 H234       -4.2142  -24.8465  -51.7310 H         1 UNK         0.0600 
    235 H235       -3.7244  -23.2303  -54.5145 H         1 UNK         0.3000 
    236 H236       -1.8457  -24.3403  -56.2982 H         1 UNK         0.0600 
    237 H237       -0.6384  -23.3732  -53.6316 H         1 UNK         0.0600 
    238 H238       -0.7190  -25.0647  -54.1091 H         1 UNK         0.0600 
    239 H239        0.2488  -23.9451  -55.0382 H         1 UNK         0.0600 
    240 H240        0.0565  -22.1719  -55.9842 H         1 UNK         0.3000 
    241 H241       -1.3518  -20.0023  -57.1806 H         1 UNK         0.0600 
    242 H242       -1.5191  -19.0165  -53.3108 H         1 UNK         0.3800 
    243 H243       -1.1533  -20.6445  -53.8166 H         1 UNK         0.3800 
    244 H244        0.9949  -18.8496  -56.9899 H         1 UNK         0.0800 
    245 H245        0.7584  -20.1935  -58.0492 H         1 UNK         0.0800 
    246 H246        3.1126  -18.6518  -55.8389 H         1 UNK         0.0800 
    247 H247        4.0831  -19.9153  -55.1297 H         1 UNK         0.0800 
@<TRIPOS>BOND
     1    1    2 1    
     2    1  127 1    
     3    1  128 1    
     4    1  129 1    
     5    2    3 2    
     6    2    4 am   BACKBONE|DICT|INTERRES
     7    4    5 1    
     8    4  130 1    
     9    5    6 1    
    10    5   65 1    
    11    5  131 1    
    12    6    7 1    
    13    6  132 1    
    14    6  133 1    
    15    7    8 1    
    16    8    9 1    
    17    8  134 1    
    18    8  135 1    
    19    9   10 ar   
    20    9   14 ar   
    21   10   11 ar   
    22   10  136 1    
    23   11   12 ar   
    24   11  126 1    
    25   12   13 ar   
    26   12  137 1    
    27   13   14 ar   
    28   13   15 1    
    29   14  138 1    
    30   15   16 1    
    31   15  139 1    
    32   15  140 1    
    33   16   17 1    
    34   17   18 1    
    35   17  141 1    
    36   17  142 1    
    37   18   19 1    
    38   18   67 1    
    39   18  143 1    
    40   19   20 am   BACKBONE|DICT|INTERRES
    41   19  144 1    
    42   20   21 2    
    43   20   22 1    
    44   22   23 1    
    45   22   24 1    
    46   22  145 1    
    47   23  146 1    
    48   23  147 1    
    49   23  148 1    
    50   24   25 am   BACKBONE|DICT|INTERRES
    51   24  149 1    
    52   25   26 2    
    53   25   27 1    
    54   27   28 1    
    55   27   29 1    
    56   27  150 1    
    57   28  151 1    
    58   28  152 1    
    59   28  153 1    
    60   29   30 am   BACKBONE|DICT|INTERRES
    61   29  154 1    
    62   30   31 2    
    63   30   32 1    
    64   32   33 1    
    65   32   34 1    
    66   32  155 1    
    67   33  156 1    
    68   33  157 1    
    69   33  158 1    
    70   34   35 am   BACKBONE|DICT|INTERRES
    71   34  159 1    
    72   35   36 2    
    73   35   37 1    
    74   37   38 1    
    75   37   39 1    
    76   37  160 1    
    77   38  161 1    
    78   38  162 1    
    79   38  163 1    
    80   39   40 am   BACKBONE|DICT|INTERRES
    81   39  164 1    
    82   40   41 2    
    83   40   42 1    
    84   42   43 1    
    85   42   44 1    
    86   42  165 1    
    87   43  166 1    
    88   43  167 1    
    89   43  168 1    
    90   44   45 am   BACKBONE|DICT|INTERRES
    91   44  169 1    
    92   45   46 2    
    93   45   47 1    
    94   47   48 1    
    95   47   49 1    
    96   47  170 1    
    97   48  171 1    
    98   48  172 1    
    99   48  173 1    
   100   49   50 am   BACKBONE|DICT|INTERRES
   101   49  174 1    
   102   50   51 2    
   103   50   52 1    
   104   52   53 1    
   105   52   54 1    
   106   52  175 1    
   107   53  176 1    
   108   53  177 1    
   109   53  178 1    
   110   54   55 am   BACKBONE|DICT|INTERRES
   111   54  179 1    
   112   55   56 2    
   113   55   57 1    
   114   57   58 1    
   115   57   59 1    
   116   57  180 1    
   117   58  181 1    
   118   58  182 1    
   119   58  183 1    
   120   59   60 am   BACKBONE|DICT|INTERRES
   121   59  184 1    
   122   60   61 2    
   123   60   62 1    
   124   62   63 1    
   125   62   64 1    
   126   62  185 1    
   127   63  186 1    
   128   63  187 1    
   129   63  188 1    
   130   64   65 am   BACKBONE|DICT|INTERRES
   131   64  189 1    
   132   65   66 2    
   133   67   68 2    
   134   67   69 am   BACKBONE|DICT|INTERRES
   135   69   70 1    
   136   69  190 1    
   137   70   71 1    
   138   70   72 1    
   139   70  191 1    
   140   71  192 1    
   141   71  193 1    
   142   71  194 1    
   143   72   73 2    
   144   72   74 am   BACKBONE|DICT|INTERRES
   145   74   75 1    
   146   74  195 1    
   147   75   76 1    
   148   75   77 1    
   149   75  196 1    
   150   76  197 1    
   151   76  198 1    
   152   76  199 1    
   153   77   78 2    
   154   77   79 am   BACKBONE|DICT|INTERRES
   155   79   80 1    
   156   79  200 1    
   157   80   81 1    
   158   80   82 1    
   159   80  201 1    
   160   81  202 1    
   161   81  203 1    
   162   81  204 1    
   163   82   83 2    
   164   82   84 am   BACKBONE|DICT|INTERRES
   165   84   85 1    
   166   84  205 1    
   167   85   86 1    
   168   85   87 1    
   169   85  206 1    
   170   86  207 1    
   171   86  208 1    
   172   86  209 1    
   173   87   88 2    
   174   87   89 am   BACKBONE|DICT|INTERRES
   175   89   90 1    
   176   89  210 1    
   177   90   91 1    
   178   90   92 1    
   179   90  211 1    
   180   91  212 1    
   181   91  213 1    
   182   91  214 1    
   183   92   93 2    
   184   92   94 am   BACKBONE|DICT|INTERRES
   185   94   95 1    
   186   94  215 1    
   187   95   96 1    
   188   95   97 1    
   189   95  216 1    
   190   96  217 1    
   191   96  218 1    
   192   96  219 1    
   193   97   98 2    
   194   97   99 am   BACKBONE|DICT|INTERRES
   195   99  100 1    
   196   99  220 1    
   197  100  101 1    
   198  100  102 1    
   199  100  221 1    
   200  101  222 1    
   201  101  223 1    
   202  101  224 1    
   203  102  103 2    
   204  102  104 am   BACKBONE|DICT|INTERRES
   205  104  105 1    
   206  104  225 1    
   207  105  106 1    
   208  105  107 1    
   209  105  226 1    
   210  106  227 1    
   211  106  228 1    
   212  106  229 1    
   213  107  108 2    
   214  107  109 am   BACKBONE|DICT|INTERRES
   215  109  110 1    
   216  109  230 1    
   217  110  111 1    
   218  110  112 1    
   219  110  231 1    
   220  111  232 1    
   221  111  233 1    
   222  111  234 1    
   223  112  113 2    
   224  112  114 am   BACKBONE|DICT|INTERRES
   225  114  115 1    
   226  114  235 1    
   227  115  116 1    
   228  115  117 1    
   229  115  236 1    
   230  116  237 1    
   231  116  238 1    
   232  116  239 1    
   233  117  118 2    
   234  117  119 am   BACKBONE|DICT|INTERRES
   235  119  120 1    
   236  119  240 1    
   237  120  121 1    
   238  120  124 1    
   239  120  241 1    
   240  121  122 am   BACKBONE|DICT|INTERRES
   241  121  123 2    
   242  122  242 1    
   243  122  243 1    
   244  124  125 1    
   245  124  244 1    
   246  124  245 1    
   247  125  126 1    
   248  126  246 1    
   249  126  247 1    
@<TRIPOS>SUBSTRUCTURE
     1 UNK         1 GROUP             0       ****    0 ROOT    
