@<TRIPOS>MOLECULE
3R540
247   249    1
SMALL
USER_CHARGES


@<TRIPOS>ATOM
      1 CA          1.8532  -12.5301  -51.8874 C.3       0 UNK        -0.1800 
      2 C           2.0441  -11.8371  -50.5460 C.2       0 UNK         0.5000 
      3 O           1.8648  -10.6228  -50.4467 O.2       0 UNK        -0.5000 
      4 N           2.3929  -12.6041  -49.5071 N.am      1 UNK        -0.5000 
      5 CA          2.6191  -12.1582  -48.1270 C.3       1 UNK         0.1400 
      6 C6          3.5906  -13.1034  -47.3633 C.3       23 UNK        -0.0398 
      7 S7          3.1940  -14.8842  -47.5154 S.3       23 UNK        -0.2404 
      8 C8          4.4830  -15.3976  -48.6880 C.3       23 UNK        -0.0205 
      9 C9          4.2280  -16.7852  -49.2525 C.ar      23 UNK        -0.0193 
     10 C10         3.4286  -16.9435  -50.3902 C.ar      23 UNK        -0.1150 
     11 C11         3.2690  -18.2024  -50.9770 C.ar      23 UNK        -0.0193 
     12 C12         3.9263  -19.3008  -50.4173 C.ar      23 UNK        -0.1150 
     13 C13         4.6887  -19.1660  -49.2564 C.ar      23 UNK        -0.0193 
     14 C14         4.8370  -17.9039  -48.6752 C.ar      23 UNK        -0.1150 
     15 C15         5.3623  -20.3883  -48.6524 C.3       23 UNK        -0.0205 
     16 S16         4.3032  -21.2097  -47.4217 S.3       23 UNK        -0.2404 
     17 C17         2.8439  -21.6711  -48.4210 C.3       23 UNK        -0.0398 
     18 CA          2.0123  -22.7884  -47.7557 C.3       11 UNK         0.1400 
     19 N           1.4318  -22.3673  -46.4786 N.am      11 UNK        -0.5000 
     20 C           1.0273  -23.2095  -45.5195 C.2       10 UNK         0.5000 
     21 O           1.1536  -24.4313  -45.5849 O.2       10 UNK        -0.5000 
     22 CA          0.3444  -22.5928  -44.2856 C.3       10 UNK         0.1400 
     23 CB          1.3836  -22.2101  -43.2215 C.3       10 UNK        -0.1800 
     24 N          -0.4838  -21.4311  -44.6105 N.am      10 UNK        -0.5000 
     25 C          -1.5827  -21.4773  -45.3772 C.2       9 UNK         0.5000 
     26 O          -2.0298  -22.5154  -45.8678 O.2       9 UNK        -0.5000 
     27 CA         -2.2731  -20.1347  -45.6759 C.3       9 UNK         0.1400 
     28 CB         -3.0865  -19.6652  -44.4605 C.3       9 UNK        -0.1800 
     29 N          -1.3326  -19.0839  -46.0620 N.am      9 UNK        -0.5000 
     30 C          -0.5342  -19.1153  -47.1384 C.2       8 UNK         0.5000 
     31 O          -0.5332  -20.0250  -47.9664 O.2       8 UNK        -0.5000 
     32 CA          0.4786  -17.9633  -47.2770 C.3       8 UNK         0.1400 
     33 CB         -0.1867  -16.7202  -47.8864 C.3       8 UNK        -0.1800 
     34 N           1.1030  -17.6134  -45.9996 N.am      8 UNK        -0.5000 
     35 C           1.8501  -18.4528  -45.2682 C.2       7 UNK         0.5000 
     36 O           2.0971  -19.6112  -45.5966 O.2       7 UNK        -0.5000 
     37 CA          2.3442  -17.9316  -43.9095 C.3       7 UNK         0.1400 
     38 CB          3.5021  -16.9375  -44.0875 C.3       7 UNK        -0.1800 
     39 N           1.2613  -17.3093  -43.1476 N.am      7 UNK        -0.5000 
     40 C           0.2234  -17.9842  -42.6283 C.2       6 UNK         0.5000 
     41 O           0.1108  -19.2081  -42.6873 O.2       6 UNK        -0.5000 
     42 CA         -0.9020  -17.1598  -41.9687 C.3       6 UNK         0.1400 
     43 CB         -0.6093  -16.9490  -40.4760 C.3       6 UNK        -0.1800 
     44 N          -1.1159  -15.8592  -42.6034 N.am      6 UNK        -0.5000 
     45 C          -1.4342  -15.6745  -43.8917 C.2       5 UNK         0.5000 
     46 O          -1.7097  -16.5951  -44.6603 O.2       5 UNK        -0.5000 
     47 CA         -1.3918  -14.2327  -44.4343 C.3       5 UNK         0.1400 
     48 CB         -2.8159  -13.6792  -44.5894 C.3       5 UNK        -0.1800 
     49 N          -0.5902  -13.2767  -43.6592 N.am      5 UNK        -0.5000 
     50 C           0.7059  -13.4003  -43.3311 C.2       4 UNK         0.5000 
     51 O           1.3634  -14.4283  -43.5000 O.2       4 UNK        -0.5000 
     52 CA          1.3700  -12.1405  -42.7548 C.3       4 UNK         0.1400 
     53 CB          2.8910  -12.2900  -42.5638 C.3       4 UNK        -0.1800 
     54 N           1.0998  -11.0263  -43.6581 N.am      4 UNK        -0.5000 
     55 C           0.8065   -9.7726  -43.2922 C.2       3 UNK         0.5000 
     56 O           0.7501   -9.4036  -42.1184 O.2       3 UNK        -0.5000 
     57 CA          0.5319   -8.7487  -44.4157 C.3       3 UNK         0.1400 
     58 CB          1.7241   -7.7914  -44.5703 C.3       3 UNK        -0.1800 
     59 N           0.2533   -9.3611  -45.7169 N.am      3 UNK        -0.5000 
     60 C          -0.8682  -10.0221  -46.0354 C.2       2 UNK         0.5000 
     61 O          -1.8334  -10.1284  -45.2787 O.2       2 UNK        -0.5000 
     62 CA         -0.9034  -10.7108  -47.4162 C.3       2 UNK         0.1400 
     63 CB         -1.6350   -9.8299  -48.4396 C.3       2 UNK        -0.1800 
     64 N           0.4181  -11.0632  -47.9501 N.am      2 UNK        -0.5000 
     65 C           1.2908  -11.9033  -47.3774 C.2       1 UNK         0.5000 
     66 O           1.0762  -12.4439  -46.2950 O.2       1 UNK        -0.5000 
     67 C           0.9443  -23.3460  -48.7230 C.2       11 UNK         0.5000 
     68 O           1.2459  -24.2892  -49.4557 O.2       11 UNK        -0.5000 
     69 N          -0.2789  -22.7892  -48.7040 N.am      12 UNK        -0.5000 
     70 CA         -1.4353  -23.2975  -49.4530 C.3       12 UNK         0.1400 
     71 CB         -2.6028  -22.2997  -49.3740 C.3       12 UNK        -0.1800 
     72 C          -1.8724  -24.6953  -48.9737 C.2       12 UNK         0.5000 
     73 O          -2.1831  -25.5500  -49.8048 O.2       12 UNK        -0.5000 
     74 N          -1.8330  -24.9084  -47.6486 N.am      13 UNK        -0.5000 
     75 CA         -1.9760  -26.1874  -46.9473 C.3       13 UNK         0.1400 
     76 CB         -0.6977  -27.0350  -47.1428 C.3       13 UNK        -0.1800 
     77 C          -3.2677  -26.9382  -47.3308 C.2       13 UNK         0.5000 
     78 O          -4.3533  -26.5166  -46.9324 O.2       13 UNK        -0.5000 
     79 N          -3.1300  -28.0195  -48.1113 N.am      14 UNK        -0.5000 
     80 CA         -4.2127  -28.8700  -48.6071 C.3       14 UNK         0.1400 
     81 CB         -3.6028  -30.0717  -49.3443 C.3       14 UNK        -0.1800 
     82 C          -5.2277  -28.1432  -49.5103 C.2       14 UNK         0.5000 
     83 O          -6.3740  -28.5865  -49.5980 O.2       14 UNK        -0.5000 
     84 N          -4.8248  -27.0251  -50.1321 N.am      15 UNK        -0.5000 
     85 CA         -5.6896  -26.1416  -50.9157 C.3       15 UNK         0.1400 
     86 CB         -4.8237  -25.3437  -51.9055 C.3       15 UNK        -0.1800 
     87 C          -6.5346  -25.2339  -49.9964 C.2       15 UNK         0.5000 
     88 O          -6.4215  -24.0081  -50.0560 O.2       15 UNK        -0.5000 
     89 N          -7.3297  -25.8571  -49.1138 N.am      16 UNK        -0.5000 
     90 CA         -8.2542  -25.2565  -48.1389 C.3       16 UNK         0.1400 
     91 CB         -9.4487  -24.6260  -48.8848 C.3       16 UNK        -0.1800 
     92 C          -7.6070  -24.2523  -47.1553 C.2       16 UNK         0.5000 
     93 O          -8.3241  -23.4740  -46.5246 O.2       16 UNK        -0.5000 
     94 N          -6.2682  -24.2633  -47.0719 N.am      17 UNK        -0.5000 
     95 CA         -5.3951  -23.2777  -46.4329 C.3       17 UNK         0.1400 
     96 CB         -5.4438  -23.4332  -44.9000 C.3       17 UNK        -0.1800 
     97 C          -5.6585  -21.8288  -46.9063 C.2       17 UNK         0.5000 
     98 O          -5.5475  -20.9012  -46.1046 O.2       17 UNK        -0.5000 
     99 N          -6.0281  -21.6483  -48.1845 N.am      18 UNK        -0.5000 
    100 CA        -6.4275  -20.3455  -48.7275 C.3       18 UNK         0.1400 
    101 CB        -7.8236  -19.9581  -48.1973 C.3       18 UNK        -0.1800 
    102 C         -6.4239  -20.2664  -50.2628 C.2       18 UNK         0.5000 
    103 O         -6.2934  -19.1603  -50.7905 O.2       18 UNK        -0.5000 
    104 N         -6.6008  -21.3972  -50.9567 N.am      19 UNK        -0.5000 
    105 CA        -6.7315  -21.4749  -52.4106 C.3       19 UNK         0.1400 
    106 CB        -7.8100  -22.5250  -52.7459 C.3       19 UNK        -0.1800 
    107 C         -5.3776  -21.7652  -53.0912 C.2       19 UNK         0.5000 
    108 O         -4.3183  -21.5518  -52.4954 O.2       19 UNK        -0.5000 
    109 N         -5.4384  -22.2190  -54.3510 N.am      20 UNK        -0.5000 
    110 CA        -4.3109  -22.4293  -55.2633 C.3       20 UNK         0.1400 
    111 CB        -3.3935  -23.5724  -54.7697 C.3       20 UNK        -0.1800 
    112 C         -3.5806  -21.1025  -55.5644 C.2       20 UNK         0.5000 
    113 O         -4.2460  -20.0835  -55.7649 O.2       20 UNK        -0.5000 
    114 N         -2.2439  -21.1308  -55.6214 N.am      21 UNK        -0.5000 
    115 CA        -1.4102  -19.9693  -55.9312 C.3       21 UNK         0.1400 
    116 CB        -0.0038  -20.4540  -56.3178 C.3       21 UNK        -0.1800 
    117 C         -1.3234  -18.9490  -54.7808 C.2       21 UNK         0.5000 
    118 O         -1.1772  -17.7559  -55.0517 O.2       21 UNK        -0.5000 
    119 N         -1.3797  -19.4327  -53.5332 N.am      22 UNK        -0.5000 
    120 CA        -1.1206  -18.6285  -52.3241 C.3       22 UNK         0.1400 
    121 C         -2.4065  -18.2264  -51.5527 C.2       22 UNK         0.5000 
    122 N         -3.5285  -18.9084  -51.7324 N.am      22 UNK        -0.7600 
    123 O         -2.3932  -17.2577  -50.8001 O.2       22 UNK        -0.5000 
    124 C124       -0.0888  -19.3036  -51.3805 C.3       23 UNK        -0.0398 
    125 S125        1.4082  -19.8626  -52.2651 S.3       23 UNK        -0.2404 
    126 C126        2.4457  -18.3606  -52.2503 C.3       23 UNK        -0.0205 
    127 H127        2.5309  -12.1058  -52.6283 H         1 UNK         0.0600 
    128 H128        2.0480  -13.6009  -51.8222 H         1 UNK         0.0600 
    129 H129        0.8310  -12.3909  -52.2391 H         1 UNK         0.0600 
    130 H130        2.4759  -13.6019  -49.6380 H         1 UNK         0.3000 
    131 H131        3.1132  -11.1852  -48.1711 H         1 UNK         0.0600 
    132 H132        4.6041  -12.9378  -47.7307 H         1 UNK         0.0800 
    133 H133        3.6365  -12.8484  -46.3029 H         1 UNK         0.0800 
    134 H134        4.5424  -14.6810  -49.5086 H         1 UNK         0.0800 
    135 H135        5.4523  -15.3668  -48.1878 H         1 UNK         0.0800 
    136 H136        2.9558  -16.0797  -50.8357 H         1 UNK         0.1150 
    137 H137        3.8372  -20.2712  -50.8837 H         1 UNK         0.1150 
    138 H138        5.4438  -17.7894  -47.7880 H         1 UNK         0.1150 
    139 H139        5.6301  -21.1006  -49.4344 H         1 UNK         0.0800 
    140 H140        6.2983  -20.0968  -48.1739 H         1 UNK         0.0800 
    141 H141        3.1943  -22.0004  -49.4006 H         1 UNK         0.0800 
    142 H142        2.2308  -20.7831  -48.5863 H         1 UNK         0.0800 
    143 H143        2.6964  -23.6146  -47.5484 H         1 UNK         0.0600 
    144 H144        1.3805  -21.3678  -46.3071 H         1 UNK         0.3000 
    145 H145       -0.3100  -23.3556  -43.8586 H         1 UNK         0.0600 
    146 H146        0.9017  -21.8633  -42.3074 H         1 UNK         0.0600 
    147 H147        2.0052  -23.0661  -42.9564 H         1 UNK         0.0600 
    148 H148        2.0465  -21.4185  -43.5714 H         1 UNK         0.0600 
    149 H149       -0.1921  -20.5435  -44.2148 H         1 UNK         0.3000 
    150 H150       -2.9549  -20.2885  -46.5137 H         1 UNK         0.0600 
    151 H151       -3.7898  -20.4331  -44.1375 H         1 UNK         0.0600 
    152 H152       -3.6655  -18.7721  -44.6959 H         1 UNK         0.0600 
    153 H153       -2.4459  -19.4363  -43.6103 H         1 UNK         0.0600 
    154 H154       -1.3024  -18.2618  -45.4641 H         1 UNK         0.3000 
    155 H155        1.2708  -18.2927  -47.9533 H         1 UNK         0.0600 
    156 H156        0.5320  -15.9180  -48.0444 H         1 UNK         0.0600 
    157 H157       -0.9857  -16.3342  -47.2534 H         1 UNK         0.0600 
    158 H158       -0.6233  -16.9537  -48.8566 H         1 UNK         0.0600 
    159 H159        0.9296  -16.6852  -45.6438 H         1 UNK         0.3000 
    160 H160        2.7169  -18.7844  -43.3381 H         1 UNK         0.0600 
    161 H161        3.1941  -16.0516  -44.6436 H         1 UNK         0.0600 
    162 H162        4.3273  -17.3952  -44.6346 H         1 UNK         0.0600 
    163 H163        3.8904  -16.6077  -43.1240 H         1 UNK         0.0600 
    164 H164        1.2632  -16.2929  -43.1081 H         1 UNK         0.3000 
    165 H165       -1.8291  -17.7285  -42.0581 H         1 UNK         0.0600 
    166 H166        0.2941  -16.3572  -40.3230 H         1 UNK         0.0600 
    167 H167       -1.4347  -16.4384  -39.9797 H         1 UNK         0.0600 
    168 H168       -0.4666  -17.9038  -39.9681 H         1 UNK         0.0600 
    169 H169       -0.8945  -15.0437  -42.0524 H         1 UNK         0.3000 
    170 H170       -0.9411  -14.2877  -45.4273 H         1 UNK         0.0600 
    171 H171       -3.4375  -14.3538  -45.1801 H         1 UNK         0.0600 
    172 H172       -3.3019  -13.5462  -43.6222 H         1 UNK         0.0600 
    173 H173       -2.8125  -12.7165  -45.1001 H         1 UNK         0.0600 
    174 H174       -1.0290  -12.3839  -43.4844 H         1 UNK         0.3000 
    175 H175        0.9115  -11.9593  -41.7806 H         1 UNK         0.0600 
    176 H176        3.1217  -13.1104  -41.8831 H         1 UNK         0.0600 
    177 H177        3.3260  -11.3845  -42.1408 H         1 UNK         0.0600 
    178 H178        3.3943  -12.4939  -43.5098 H         1 UNK         0.0600 
    179 H179        1.0802  -11.2753  -44.6427 H         1 UNK         0.3000 
    180 H180       -0.3408   -8.1637  -44.1179 H         1 UNK         0.0600 
    181 H181        2.6276   -8.3205  -44.8761 H         1 UNK         0.0600 
    182 H182        1.9436   -7.2840  -43.6299 H         1 UNK         0.0600 
    183 H183        1.5177   -7.0201  -45.3126 H         1 UNK         0.0600 
    184 H184        0.9910   -9.3190  -46.4043 H         1 UNK         0.3000 
    185 H185       -1.4670  -11.6386  -47.2982 H         1 UNK         0.0600 
    186 H186       -1.7492  -10.3453  -49.3934 H         1 UNK         0.0600 
    187 H187       -2.6351   -9.5705  -48.0895 H         1 UNK         0.0600 
    188 H188       -1.0985   -8.8982  -48.6233 H         1 UNK         0.0600 
    189 H189        0.6773  -10.6609  -48.8456 H         1 UNK         0.3000 
    190 H190       -0.4318  -21.9578  -48.1405 H         1 UNK         0.3000 
    191 H191       -1.1416  -23.3859  -50.5010 H         1 UNK         0.0600 
    192 H192       -2.3365  -21.3402  -49.8161 H         1 UNK         0.0600 
    193 H193       -3.4744  -22.6708  -49.9155 H         1 UNK         0.0600 
    194 H194       -2.9096  -22.1156  -48.3457 H         1 UNK         0.0600 
    195 H195       -1.6459  -24.1073  -47.0530 H         1 UNK         0.3000 
    196 H196       -2.0598  -25.9509  -45.8856 H         1 UNK         0.0600 
    197 H197       -0.7672  -27.9850  -46.6112 H         1 UNK         0.0600 
    198 H198        0.1771  -26.5184  -46.7521 H         1 UNK         0.0600 
    199 H199       -0.4995  -27.2501  -48.1934 H         1 UNK         0.0600 
    200 H200       -2.1987  -28.2622  -48.4161 H         1 UNK         0.3000 
    201 H201       -4.7613  -29.2422  -47.7396 H         1 UNK         0.0600 
    202 H202       -2.9520  -30.6496  -48.6879 H         1 UNK         0.0600 
    203 H203       -3.0164  -29.7569  -50.2085 H         1 UNK         0.0600 
    204 H204       -4.3808  -30.7467  -49.7036 H         1 UNK         0.0600 
    205 H205       -3.8748  -26.6992  -49.9809 H         1 UNK         0.3000 
    206 H206       -6.3822  -26.7502  -51.5006 H         1 UNK         0.0600 
    207 H207       -4.2026  -26.0047  -52.5098 H         1 UNK         0.0600 
    208 H208       -5.4477  -24.7719  -52.5911 H         1 UNK         0.0600 
    209 H209       -4.1650  -24.6383  -51.3981 H         1 UNK         0.0600 
    210 H210       -7.2992  -26.8721  -49.1192 H         1 UNK         0.3000 
    211 H211       -8.6332  -26.0777  -47.5293 H         1 UNK         0.0600 
    212 H212       -9.1448  -23.7567  -49.4694 H         1 UNK         0.0600 
    213 H213      -10.2215  -24.2982  -48.1886 H         1 UNK         0.0600 
    214 H214       -9.9117  -25.3414  -49.5645 H         1 UNK         0.0600 
    215 H215       -5.7799  -25.0027  -47.5621 H         1 UNK         0.3000 
    216 H216       -4.3830  -23.5219  -46.7563 H         1 UNK         0.0600 
    217 H217       -5.2348  -24.4612  -44.6041 H         1 UNK         0.0600 
    218 H218       -6.4187  -23.1572  -44.4973 H         1 UNK         0.0600 
    219 H219       -4.6959  -22.8017  -44.4192 H         1 UNK         0.0600 
    220 H220       -6.0997  -22.4545  -48.7957 H         1 UNK         0.3000 
    221 H221       -5.7068  -19.5995  -48.3851 H         1 UNK         0.0600 
    222 H222       -8.5669  -20.7165  -48.4466 H         1 UNK         0.0600 
    223 H223       -7.8245  -19.8348  -47.1145 H         1 UNK         0.0600 
    224 H224       -8.1608  -19.0128  -48.6249 H         1 UNK         0.0600 
    225 H225       -6.6240  -22.2970  -50.4846 H         1 UNK         0.3000 
    226 H226       -7.0786  -20.5143  -52.7962 H         1 UNK         0.0600 
    227 H227       -8.7255  -22.3380  -52.1840 H         1 UNK         0.0600 
    228 H228       -8.0797  -22.5015  -53.8019 H         1 UNK         0.0600 
    229 H229       -7.4814  -23.5367  -52.5105 H         1 UNK         0.0600 
    230 H230       -6.3514  -22.3326  -54.7669 H         1 UNK         0.3000 
    231 H231       -4.7450  -22.7493  -56.2115 H         1 UNK         0.0600 
    232 H232       -2.6332  -23.8207  -55.5108 H         1 UNK         0.0600 
    233 H233       -3.9689  -24.4815  -54.5989 H         1 UNK         0.0600 
    234 H234       -2.8836  -23.3231  -53.8386 H         1 UNK         0.0600 
    235 H235       -1.7663  -22.0032  -55.4486 H         1 UNK         0.3000 
    236 H236       -1.8397  -19.4574  -56.7953 H         1 UNK         0.0600 
    237 H237        0.6389  -19.6137  -56.5840 H         1 UNK         0.0600 
    238 H238        0.4783  -20.9869  -55.4971 H         1 UNK         0.0600 
    239 H239       -0.0381  -21.1210  -57.1794 H         1 UNK         0.0600 
    240 H240       -1.5236  -20.4218  -53.3975 H         1 UNK         0.3000 
    241 H241       -0.6698  -17.6816  -52.6264 H         1 UNK         0.0600 
    242 H242       -3.5548  -19.7586  -52.2833 H         1 UNK         0.3800 
    243 H243       -4.3749  -18.6312  -51.2523 H         1 UNK         0.3800 
    244 H244        0.2039  -18.6277  -50.5753 H         1 UNK         0.0800 
    245 H245       -0.5292  -20.1766  -50.8968 H         1 UNK         0.0800 
    246 H246        1.8180  -17.4849  -52.4211 H         1 UNK         0.0800 
    247 H247        3.1352  -18.4121  -53.0937 H         1 UNK         0.0800 
@<TRIPOS>BOND
     1    1    2 1    
     2    1  127 1    
     3    1  128 1    
     4    1  129 1    
     5    2    3 2    
     6    2    4 am   BACKBONE|DICT|INTERRES
     7    4    5 1    
     8    4  130 1    
     9    5    6 1    
    10    5   65 1    
    11    5  131 1    
    12    6    7 1    
    13    6  132 1    
    14    6  133 1    
    15    7    8 1    
    16    8    9 1    
    17    8  134 1    
    18    8  135 1    
    19    9   10 ar   
    20    9   14 ar   
    21   10   11 ar   
    22   10  136 1    
    23   11   12 ar   
    24   11  126 1    
    25   12   13 ar   
    26   12  137 1    
    27   13   14 ar   
    28   13   15 1    
    29   14  138 1    
    30   15   16 1    
    31   15  139 1    
    32   15  140 1    
    33   16   17 1    
    34   17   18 1    
    35   17  141 1    
    36   17  142 1    
    37   18   19 1    
    38   18   67 1    
    39   18  143 1    
    40   19   20 am   BACKBONE|DICT|INTERRES
    41   19  144 1    
    42   20   21 2    
    43   20   22 1    
    44   22   23 1    
    45   22   24 1    
    46   22  145 1    
    47   23  146 1    
    48   23  147 1    
    49   23  148 1    
    50   24   25 am   BACKBONE|DICT|INTERRES
    51   24  149 1    
    52   25   26 2    
    53   25   27 1    
    54   27   28 1    
    55   27   29 1    
    56   27  150 1    
    57   28  151 1    
    58   28  152 1    
    59   28  153 1    
    60   29   30 am   BACKBONE|DICT|INTERRES
    61   29  154 1    
    62   30   31 2    
    63   30   32 1    
    64   32   33 1    
    65   32   34 1    
    66   32  155 1    
    67   33  156 1    
    68   33  157 1    
    69   33  158 1    
    70   34   35 am   BACKBONE|DICT|INTERRES
    71   34  159 1    
    72   35   36 2    
    73   35   37 1    
    74   37   38 1    
    75   37   39 1    
    76   37  160 1    
    77   38  161 1    
    78   38  162 1    
    79   38  163 1    
    80   39   40 am   BACKBONE|DICT|INTERRES
    81   39  164 1    
    82   40   41 2    
    83   40   42 1    
    84   42   43 1    
    85   42   44 1    
    86   42  165 1    
    87   43  166 1    
    88   43  167 1    
    89   43  168 1    
    90   44   45 am   BACKBONE|DICT|INTERRES
    91   44  169 1    
    92   45   46 2    
    93   45   47 1    
    94   47   48 1    
    95   47   49 1    
    96   47  170 1    
    97   48  171 1    
    98   48  172 1    
    99   48  173 1    
   100   49   50 am   BACKBONE|DICT|INTERRES
   101   49  174 1    
   102   50   51 2    
   103   50   52 1    
   104   52   53 1    
   105   52   54 1    
   106   52  175 1    
   107   53  176 1    
   108   53  177 1    
   109   53  178 1    
   110   54   55 am   BACKBONE|DICT|INTERRES
   111   54  179 1    
   112   55   56 2    
   113   55   57 1    
   114   57   58 1    
   115   57   59 1    
   116   57  180 1    
   117   58  181 1    
   118   58  182 1    
   119   58  183 1    
   120   59   60 am   BACKBONE|DICT|INTERRES
   121   59  184 1    
   122   60   61 2    
   123   60   62 1    
   124   62   63 1    
   125   62   64 1    
   126   62  185 1    
   127   63  186 1    
   128   63  187 1    
   129   63  188 1    
   130   64   65 am   BACKBONE|DICT|INTERRES
   131   64  189 1    
   132   65   66 2    
   133   67   68 2    
   134   67   69 am   BACKBONE|DICT|INTERRES
   135   69   70 1    
   136   69  190 1    
   137   70   71 1    
   138   70   72 1    
   139   70  191 1    
   140   71  192 1    
   141   71  193 1    
   142   71  194 1    
   143   72   73 2    
   144   72   74 am   BACKBONE|DICT|INTERRES
   145   74   75 1    
   146   74  195 1    
   147   75   76 1    
   148   75   77 1    
   149   75  196 1    
   150   76  197 1    
   151   76  198 1    
   152   76  199 1    
   153   77   78 2    
   154   77   79 am   BACKBONE|DICT|INTERRES
   155   79   80 1    
   156   79  200 1    
   157   80   81 1    
   158   80   82 1    
   159   80  201 1    
   160   81  202 1    
   161   81  203 1    
   162   81  204 1    
   163   82   83 2    
   164   82   84 am   BACKBONE|DICT|INTERRES
   165   84   85 1    
   166   84  205 1    
   167   85   86 1    
   168   85   87 1    
   169   85  206 1    
   170   86  207 1    
   171   86  208 1    
   172   86  209 1    
   173   87   88 2    
   174   87   89 am   BACKBONE|DICT|INTERRES
   175   89   90 1    
   176   89  210 1    
   177   90   91 1    
   178   90   92 1    
   179   90  211 1    
   180   91  212 1    
   181   91  213 1    
   182   91  214 1    
   183   92   93 2    
   184   92   94 am   BACKBONE|DICT|INTERRES
   185   94   95 1    
   186   94  215 1    
   187   95   96 1    
   188   95   97 1    
   189   95  216 1    
   190   96  217 1    
   191   96  218 1    
   192   96  219 1    
   193   97   98 2    
   194   97   99 am   BACKBONE|DICT|INTERRES
   195   99  100 1    
   196   99  220 1    
   197  100  101 1    
   198  100  102 1    
   199  100  221 1    
   200  101  222 1    
   201  101  223 1    
   202  101  224 1    
   203  102  103 2    
   204  102  104 am   BACKBONE|DICT|INTERRES
   205  104  105 1    
   206  104  225 1    
   207  105  106 1    
   208  105  107 1    
   209  105  226 1    
   210  106  227 1    
   211  106  228 1    
   212  106  229 1    
   213  107  108 2    
   214  107  109 am   BACKBONE|DICT|INTERRES
   215  109  110 1    
   216  109  230 1    
   217  110  111 1    
   218  110  112 1    
   219  110  231 1    
   220  111  232 1    
   221  111  233 1    
   222  111  234 1    
   223  112  113 2    
   224  112  114 am   BACKBONE|DICT|INTERRES
   225  114  115 1    
   226  114  235 1    
   227  115  116 1    
   228  115  117 1    
   229  115  236 1    
   230  116  237 1    
   231  116  238 1    
   232  116  239 1    
   233  117  118 2    
   234  117  119 am   BACKBONE|DICT|INTERRES
   235  119  120 1    
   236  119  240 1    
   237  120  121 1    
   238  120  124 1    
   239  120  241 1    
   240  121  122 am   BACKBONE|DICT|INTERRES
   241  121  123 2    
   242  122  242 1    
   243  122  243 1    
   244  124  125 1    
   245  124  244 1    
   246  124  245 1    
   247  125  126 1    
   248  126  246 1    
   249  126  247 1    
@<TRIPOS>SUBSTRUCTURE
     1 UNK         1 GROUP             0       ****    0 ROOT    
