@<TRIPOS>MOLECULE
3R540
247   249    1
SMALL
USER_CHARGES


@<TRIPOS>ATOM
      1 CA          3.3105  -15.1055  -51.5975 C.3       0 UNK        -0.1800 
      2 C           2.4759  -14.8737  -50.3459 C.2       0 UNK         0.5000 
      3 O           3.0335  -14.7527  -49.2553 O.2       0 UNK        -0.5000 
      4 N           1.1470  -14.8234  -50.4966 N.am      1 UNK        -0.5000 
      5 CA          0.1938  -14.5798  -49.4109 C.3       1 UNK         0.1400 
      6 C6         -1.2473  -14.9371  -49.8486 C.3       23 UNK        -0.0398 
      7 S7         -2.5255  -14.8884  -48.5391 S.3       23 UNK        -0.2404 
      8 C8         -1.9701  -16.1462  -47.3427 C.3       23 UNK        -0.0205 
      9 C9         -1.8936  -17.5474  -47.9332 C.ar      23 UNK        -0.0193 
     10 C10        -0.6797  -18.0402  -48.4210 C.ar      23 UNK        -0.1150 
     11 C11        -0.5937  -19.3271  -48.9550 C.ar      23 UNK        -0.0193 
     12 C12        -1.7250  -20.1425  -48.9550 C.ar      23 UNK        -0.1150 
     13 C13        -2.9373  -19.6808  -48.4342 C.ar      23 UNK        -0.0193 
     14 C14        -3.0240  -18.3704  -47.9526 C.ar      23 UNK        -0.1150 
     15 C15        -4.1359  -20.6182  -48.3658 C.3       23 UNK        -0.0205 
     16 S16        -4.6888  -21.0067  -46.6619 S.3       23 UNK        -0.2404 
     17 C17        -3.1921  -20.9112  -45.6073 C.3       23 UNK        -0.0398 
     18 CA         -2.0398  -21.8695  -46.0007 C.3       11 UNK         0.1400 
     19 N          -0.7297  -21.2989  -45.6591 N.am      11 UNK        -0.5000 
     20 C           0.4571  -21.7751  -46.0673 C.2       10 UNK         0.5000 
     21 O           0.5652  -22.7130  -46.8559 O.2       10 UNK        -0.5000 
     22 CA          1.7356  -21.1686  -45.4471 C.3       10 UNK         0.1400 
     23 CB          2.4277  -20.2271  -46.4418 C.3       10 UNK        -0.1800 
     24 N           1.5220  -20.4469  -44.1916 N.am      10 UNK        -0.5000 
     25 C           0.9650  -20.9368  -43.0748 C.2       9 UNK         0.5000 
     26 O           0.6177  -22.1110  -42.9448 O.2       9 UNK        -0.5000 
     27 CA          0.6892  -19.9326  -41.9382 C.3       9 UNK         0.1400 
     28 CB          1.7878  -20.0212  -40.8705 C.3       9 UNK        -0.1800 
     29 N           0.5624  -18.5429  -42.3931 N.am      9 UNK        -0.5000 
     30 C          -0.3693  -18.0881  -43.2465 C.2       8 UNK         0.5000 
     31 O          -1.2310  -18.8026  -43.7605 O.2       8 UNK        -0.5000 
     32 CA         -0.2965  -16.5982  -43.6146 C.3       8 UNK         0.1400 
     33 CB         -0.9471  -15.7339  -42.5230 C.3       8 UNK        -0.1800 
     34 N           1.0894  -16.1776  -43.8124 N.am      8 UNK        -0.5000 
     35 C           1.7496  -16.2660  -44.9759 C.2       7 UNK         0.5000 
     36 O           1.2451  -16.6704  -46.0215 O.2       7 UNK        -0.5000 
     37 CA          3.2327  -15.8491  -44.9766 C.3       7 UNK         0.1400 
     38 CB          3.3682  -14.3648  -45.3450 C.3       7 UNK        -0.1800 
     39 N           3.9023  -16.0946  -43.6986 N.am      7 UNK        -0.5000 
     40 C           4.1202  -17.3114  -43.1772 C.2       6 UNK         0.5000 
     41 O           3.8204  -18.3622  -43.7436 O.2       6 UNK        -0.5000 
     42 CA          4.7290  -17.3655  -41.7624 C.3       6 UNK         0.1400 
     43 CB          6.2609  -17.4372  -41.8408 C.3       6 UNK        -0.1800 
     44 N           4.3462  -16.2379  -40.9111 N.am      6 UNK        -0.5000 
     45 C           3.0947  -15.8615  -40.6130 C.2       5 UNK         0.5000 
     46 O           2.0905  -16.4603  -41.0006 O.2       5 UNK        -0.5000 
     47 CA          2.9366  -14.5751  -39.7798 C.3       5 UNK         0.1400 
     48 CB          4.1104  -14.3371  -38.8055 C.3       5 UNK        -0.1800 
     49 N           2.7192  -13.3770  -40.5993 N.am      5 UNK        -0.5000 
     50 C           3.4530  -12.9183  -41.6233 C.2       4 UNK         0.5000 
     51 O           4.3798  -13.5435  -42.1431 O.2       4 UNK        -0.5000 
     52 CA          3.0919  -11.5086  -42.1403 C.3       4 UNK         0.1400 
     53 CB          4.1416  -10.9579  -43.1233 C.3       4 UNK        -0.1800 
     54 N           1.7827  -11.4395  -42.7873 N.am      4 UNK        -0.5000 
     55 C           0.5830  -11.5155  -42.1958 C.2       3 UNK         0.5000 
     56 O           0.4340  -11.7110  -40.9884 O.2       3 UNK        -0.5000 
     57 CA         -0.6596  -11.3009  -43.0894 C.3       3 UNK         0.1400 
     58 CB         -1.4499  -10.0650  -42.6294 C.3       3 UNK        -0.1800 
     59 N          -0.3402  -11.1444  -44.5138 N.am      3 UNK        -0.5000 
     60 C          -0.0429  -12.1555  -45.3370 C.2       2 UNK         0.5000 
     61 O          -0.0284  -13.3371  -44.9857 O.2       2 UNK        -0.5000 
     62 CA          0.3364  -11.7838  -46.7777 C.3       2 UNK         0.1400 
     63 CB          1.7181  -11.1034  -46.8346 C.3       2 UNK        -0.1800 
     64 N           0.3453  -13.0161  -47.5511 N.am      2 UNK        -0.5000 
     65 C           0.2997  -13.1368  -48.8793 C.2       1 UNK         0.5000 
     66 O           0.3094  -12.1856  -49.6647 O.2       1 UNK        -0.5000 
     67 C          -2.2494  -23.3085  -45.4728 C.2       11 UNK         0.5000 
     68 O          -3.1399  -24.0030  -45.9618 O.2       11 UNK        -0.5000 
     69 N          -1.3809  -23.7817  -44.5640 N.am      12 UNK        -0.5000 
     70 CA         -1.2513  -25.1927  -44.1861 C.3       12 UNK         0.1400 
     71 CB         -0.2227  -25.3157  -43.0525 C.3       12 UNK        -0.1800 
     72 C          -0.8687  -26.1202  -45.3635 C.2       12 UNK         0.5000 
     73 O          -1.1752  -27.3114  -45.3111 O.2       12 UNK        -0.5000 
     74 N          -0.2475  -25.5642  -46.4167 N.am      13 UNK        -0.5000 
     75 CA          0.0409  -26.2482  -47.6813 C.3       13 UNK         0.1400 
     76 CB          1.2481  -25.5706  -48.3508 C.3       13 UNK        -0.1800 
     77 C          -1.1677  -26.2815  -48.6442 C.2       13 UNK         0.5000 
     78 O          -1.0368  -26.8041  -49.7520 O.2       13 UNK        -0.5000 
     79 N          -2.3088  -25.7083  -48.2324 N.am      14 UNK        -0.5000 
     80 CA         -3.6104  -25.6220  -48.9050 C.3       14 UNK         0.1400 
     81 CB         -4.1674  -27.0175  -49.2452 C.3       14 UNK        -0.1800 
     82 C          -3.6503  -24.6939  -50.1320 C.2       14 UNK         0.5000 
     83 O          -4.6448  -23.9906  -50.3036 O.2       14 UNK        -0.5000 
     84 N          -2.5980  -24.7087  -50.9628 N.am      15 UNK        -0.5000 
     85 CA         -2.4256  -23.9234  -52.1923 C.3       15 UNK         0.1400 
     86 CB         -2.1657  -22.4465  -51.8531 C.3       15 UNK        -0.1800 
     87 C          -3.5946  -24.1247  -53.1782 C.2       15 UNK         0.5000 
     88 O          -4.3196  -23.1779  -53.5078 O.2       15 UNK        -0.5000 
     89 N          -3.7680  -25.3947  -53.5739 N.am      16 UNK        -0.5000 
     90 CA         -4.8338  -25.9250  -54.4298 C.3       16 UNK         0.1400 
     91 CB         -4.7366  -25.3371  -55.8540 C.3       16 UNK        -0.1800 
     92 C          -6.2300  -25.7619  -53.7952 C.2       16 UNK         0.5000 
     93 O          -7.1830  -25.4104  -54.4880 O.2       16 UNK        -0.5000 
     94 N          -6.3142  -25.9850  -52.4739 N.am      17 UNK        -0.5000 
     95 CA         -7.4988  -25.7926  -51.6236 C.3       17 UNK         0.1400 
     96 CB         -8.5743  -26.8530  -51.9380 C.3       17 UNK        -0.1800 
     97 C          -8.0326  -24.3450  -51.6904 C.2       17 UNK         0.5000 
     98 O          -9.2363  -24.1234  -51.8325 O.2       17 UNK        -0.5000 
     99 N          -7.0932  -23.3921  -51.6258 N.am      18 UNK        -0.5000 
    100 CA        -7.2595  -21.9453  -51.7569 C.3       18 UNK         0.1400 
    101 CB        -8.0867  -21.3753  -50.5868 C.3       18 UNK        -0.1800 
    102 C         -7.7681  -21.4796  -53.1396 C.2       18 UNK         0.5000 
    103 O         -8.2470  -20.3502  -53.2518 O.2       18 UNK        -0.5000 
    104 N         -7.6331  -22.3166  -54.1806 N.am      19 UNK        -0.5000 
    105 CA        -7.8943  -21.9190  -55.5667 C.3       19 UNK         0.1400 
    106 CB        -8.1348  -23.1531  -56.4474 C.3       19 UNK        -0.1800 
    107 C         -6.7468  -21.0636  -56.1311 C.2       19 UNK         0.5000 
    108 O         -7.0111  -20.1201  -56.8774 O.2       19 UNK        -0.5000 
    109 N         -5.5030  -21.3892  -55.7478 N.am      20 UNK        -0.5000 
    110 CA        -4.3231  -20.5782  -56.0438 C.3       20 UNK         0.1400 
    111 CB        -3.1007  -21.4859  -56.2575 C.3       20 UNK        -0.1800 
    112 C         -4.0762  -19.5747  -54.9073 C.2       20 UNK         0.5000 
    113 O         -3.8235  -18.3996  -55.1798 O.2       20 UNK        -0.5000 
    114 N         -4.1559  -20.0629  -53.6564 N.am      21 UNK        -0.5000 
    115 CA        -4.0538  -19.3083  -52.3957 C.3       21 UNK         0.1400 
    116 CB        -5.3060  -18.4296  -52.2004 C.3       21 UNK        -0.1800 
    117 C         -2.7541  -18.4885  -52.2300 C.2       21 UNK         0.5000 
    118 O         -2.7422  -17.5347  -51.4556 O.2       21 UNK        -0.5000 
    119 N         -1.7023  -18.8475  -52.9799 N.am      22 UNK        -0.5000 
    120 CA        -0.4254  -18.1191  -53.0954 C.3       22 UNK         0.1400 
    121 C         -0.5814  -16.6456  -53.5891 C.2       22 UNK         0.5000 
    122 N         -1.5763  -16.3432  -54.4162 N.am      22 UNK        -0.7600 
    123 O          0.1967  -15.7672  -53.2234 O.2       22 UNK        -0.5000 
    124 C124        0.4735  -18.2423  -51.8346 C.3       23 UNK        -0.0398 
    125 S125        0.7386  -19.9752  -51.3206 S.3       23 UNK        -0.2404 
    126 C126        0.7277  -19.8447  -49.5047 C.3       23 UNK        -0.0205 
    127 H127        2.7049  -15.0674  -52.5028 H         1 UNK         0.0600 
    128 H128        3.7930  -16.0817  -51.5504 H         1 UNK         0.0600 
    129 H129        4.0857  -14.3436  -51.6784 H         1 UNK         0.0600 
    130 H130        0.7519  -14.9283  -51.4261 H         1 UNK         0.3000 
    131 H131        0.4795  -15.2492  -48.5997 H         1 UNK         0.0600 
    132 H132       -1.5693  -14.2798  -50.6581 H         1 UNK         0.0800 
    133 H133       -1.2540  -15.9382  -50.2703 H         1 UNK         0.0800 
    134 H134       -1.0083  -15.8506  -46.9277 H         1 UNK         0.0800 
    135 H135       -2.6625  -16.1492  -46.4997 H         1 UNK         0.0800 
    136 H136        0.2050  -17.4233  -48.3890 H         1 UNK         0.1150 
    137 H137       -1.6481  -21.1501  -49.3344 H         1 UNK         0.1150 
    138 H138       -3.9613  -18.0063  -47.5566 H         1 UNK         0.1150 
    139 H139       -4.9681  -20.1731  -48.9128 H         1 UNK         0.0800 
    140 H140       -3.9142  -21.5586  -48.8731 H         1 UNK         0.0800 
    141 H141       -3.4867  -21.0683  -44.5683 H         1 UNK         0.0800 
    142 H142       -2.8493  -19.8770  -45.6434 H         1 UNK         0.0800 
    143 H143       -2.0397  -21.9819  -47.0830 H         1 UNK         0.0600 
    144 H144       -0.7395  -20.5183  -45.0124 H         1 UNK         0.3000 
    145 H145        2.4121  -21.9980  -45.2327 H         1 UNK         0.0600 
    146 H146        3.3678  -19.8487  -46.0402 H         1 UNK         0.0600 
    147 H147        2.6626  -20.7450  -47.3720 H         1 UNK         0.0600 
    148 H148        1.7985  -19.3695  -46.6835 H         1 UNK         0.0600 
    149 H149        1.8246  -19.4814  -44.1775 H         1 UNK         0.3000 
    150 H150       -0.2601  -20.2117  -41.4770 H         1 UNK         0.0600 
    151 H151        1.8002  -21.0093  -40.4089 H         1 UNK         0.0600 
    152 H152        1.6347  -19.2909  -40.0756 H         1 UNK         0.0600 
    153 H153        2.7733  -19.8535  -41.3022 H         1 UNK         0.0600 
    154 H154        1.2080  -17.8720  -41.9866 H         1 UNK         0.3000 
    155 H155       -0.8582  -16.4486  -44.5383 H         1 UNK         0.0600 
    156 H156       -1.9947  -16.0047  -42.3870 H         1 UNK         0.0600 
    157 H157       -0.9168  -14.6776  -42.7881 H         1 UNK         0.0600 
    158 H158       -0.4510  -15.8491  -41.5592 H         1 UNK         0.0600 
    159 H159        1.5927  -15.8865  -42.9845 H         1 UNK         0.3000 
    160 H160        3.7422  -16.4390  -45.7414 H         1 UNK         0.0600 
    161 H161        2.8460  -13.7260  -44.6324 H         1 UNK         0.0600 
    162 H162        2.9441  -14.1728  -46.3316 H         1 UNK         0.0600 
    163 H163        4.4129  -14.0551  -45.3734 H         1 UNK         0.0600 
    164 H164        4.1677  -15.2779  -43.1557 H         1 UNK         0.3000 
    165 H165        4.3730  -18.2746  -41.2786 H         1 UNK         0.0600 
    166 H166        6.7018  -17.5651  -40.8520 H         1 UNK         0.0600 
    167 H167        6.5817  -18.2831  -42.4504 H         1 UNK         0.0600 
    168 H168        6.6830  -16.5339  -42.2835 H         1 UNK         0.0600 
    169 H169        5.0996  -15.6463  -40.5922 H         1 UNK         0.3000 
    170 H170        2.0344  -14.7094  -39.1811 H         1 UNK         0.0600 
    171 H171        4.3018  -15.2212  -38.1957 H         1 UNK         0.0600 
    172 H172        5.0353  -14.0830  -39.3243 H         1 UNK         0.0600 
    173 H173        3.8849  -13.5190  -38.1214 H         1 UNK         0.0600 
    174 H174        1.9113  -12.8159  -40.3440 H         1 UNK         0.3000 
    175 H175        3.0762  -10.8460  -41.2725 H         1 UNK         0.0600 
    176 H176        4.1908  -11.5513  -44.0371 H         1 UNK         0.0600 
    177 H177        3.9179   -9.9286  -43.4042 H         1 UNK         0.0600 
    178 H178        5.1365  -10.9606  -42.6760 H         1 UNK         0.0600 
    179 H179        1.7927  -11.2917  -43.7843 H         1 UNK         0.3000 
    180 H180       -1.3004  -12.1764  -42.9661 H         1 UNK         0.0600 
    181 H181       -0.8579   -9.1531  -42.7176 H         1 UNK         0.0600 
    182 H182       -1.7548  -10.1586  -41.5862 H         1 UNK         0.0600 
    183 H183       -2.3577   -9.9353  -43.2189 H         1 UNK         0.0600 
    184 H184       -0.3297  -10.1986  -44.8688 H         1 UNK         0.3000 
    185 H185       -0.4279  -11.1150  -47.1783 H         1 UNK         0.0600 
    186 H186        1.7239  -10.1721  -46.2674 H         1 UNK         0.0600 
    187 H187        2.5006  -11.7422  -46.4249 H         1 UNK         0.0600 
    188 H188        1.9967  -10.8543  -47.8584 H         1 UNK         0.0600 
    189 H189        0.2984  -13.8415  -46.9642 H         1 UNK         0.3000 
    190 H190       -0.6851  -23.1520  -44.1776 H         1 UNK         0.3000 
    191 H191       -2.2200  -25.5259  -43.8084 H         1 UNK         0.0600 
    192 H192        0.7642  -24.9747  -43.3682 H         1 UNK         0.0600 
    193 H193       -0.5188  -24.7251  -42.1853 H         1 UNK         0.0600 
    194 H194       -0.1241  -26.3507  -42.7225 H         1 UNK         0.0600 
    195 H195       -0.0205  -24.5745  -46.3925 H         1 UNK         0.3000 
    196 H196        0.3134  -27.2836  -47.4677 H         1 UNK         0.0600 
    197 H197        2.0955  -25.5040  -47.6682 H         1 UNK         0.0600 
    198 H198        1.0081  -24.5622  -48.6891 H         1 UNK         0.0600 
    199 H199        1.5788  -26.1354  -49.2232 H         1 UNK         0.0600 
    200 H200       -2.3004  -25.2644  -47.3209 H         1 UNK         0.3000 
    201 H201       -4.2830  -25.1797  -48.1685 H         1 UNK         0.0600 
    202 H202       -5.1948  -26.9503  -49.6023 H         1 UNK         0.0600 
    203 H203       -4.1738  -27.6625  -48.3665 H         1 UNK         0.0600 
    204 H204       -3.5853  -27.5146  -50.0215 H         1 UNK         0.0600 
    205 H205       -1.8559  -25.3665  -50.7401 H         1 UNK         0.3000 
    206 H206       -1.5325  -24.3048  -52.6894 H         1 UNK         0.0600 
    207 H207       -1.2562  -22.3439  -51.2626 H         1 UNK         0.0600 
    208 H208       -2.9877  -22.0152  -51.2847 H         1 UNK         0.0600 
    209 H209       -2.0290  -21.8525  -52.7565 H         1 UNK         0.0600 
    210 H210       -3.1195  -26.0840  -53.2195 H         1 UNK         0.3000 
    211 H211       -4.6630  -26.9996  -54.5076 H         1 UNK         0.0600 
    212 H212       -3.7470  -25.5015  -56.2800 H         1 UNK         0.0600 
    213 H213       -5.4582  -25.8084  -56.5222 H         1 UNK         0.0600 
    214 H214       -4.9304  -24.2653  -55.8686 H         1 UNK         0.0600 
    215 H215       -5.4664  -26.2433  -51.9920 H         1 UNK         0.3000 
    216 H216       -7.1748  -25.9473  -50.5939 H         1 UNK         0.0600 
    217 H217       -9.4065  -26.7845  -51.2366 H         1 UNK         0.0600 
    218 H218       -8.9827  -26.7325  -52.9419 H         1 UNK         0.0600 
    219 H219       -8.1675  -27.8612  -51.8605 H         1 UNK         0.0600 
    220 H220       -6.1362  -23.6883  -51.4486 H         1 UNK         0.3000 
    221 H221       -6.2524  -21.5365  -51.6667 H         1 UNK         0.0600 
    222 H222       -9.1293  -21.6900  -50.6368 H         1 UNK         0.0600 
    223 H223       -7.6827  -21.6972  -49.6267 H         1 UNK         0.0600 
    224 H224       -8.0736  -20.2849  -50.5912 H         1 UNK         0.0600 
    225 H225       -7.2809  -23.2537  -54.0275 H         1 UNK         0.3000 
    226 H226       -8.8058  -21.3177  -55.5905 H         1 UNK         0.0600 
    227 H227       -8.9243  -23.7839  -56.0384 H         1 UNK         0.0600 
    228 H228       -8.4412  -22.8575  -57.4514 H         1 UNK         0.0600 
    229 H229       -7.2360  -23.7604  -56.5498 H         1 UNK         0.0600 
    230 H230       -5.3714  -22.1646  -55.1095 H         1 UNK         0.3000 
    231 H231       -4.4795  -20.0142  -56.9659 H         1 UNK         0.0600 
    232 H232       -2.2269  -20.8972  -56.5391 H         1 UNK         0.0600 
    233 H233       -3.2803  -22.2035  -57.0582 H         1 UNK         0.0600 
    234 H234       -2.8391  -22.0465  -55.3611 H         1 UNK         0.0600 
    235 H235       -4.3133  -21.0594  -53.5542 H         1 UNK         0.3000 
    236 H236       -4.0492  -20.0420  -51.5907 H         1 UNK         0.0600 
    237 H237       -6.2189  -19.0154  -52.2768 H         1 UNK         0.0600 
    238 H238       -5.3113  -17.9629  -51.2145 H         1 UNK         0.0600 
    239 H239       -5.3573  -17.6315  -52.9416 H         1 UNK         0.0600 
    240 H240       -1.8117  -19.6378  -53.5957 H         1 UNK         0.3000 
    241 H241        0.1118  -18.6142  -53.9047 H         1 UNK         0.0600 
    242 H242       -1.6817  -15.3936  -54.7352 H         1 UNK         0.3800 
    243 H243       -2.2554  -17.0440  -54.6910 H         1 UNK         0.3800 
    244 H244        1.4541  -17.8022  -52.0218 H         1 UNK         0.0800 
    245 H245        0.0403  -17.6714  -51.0172 H         1 UNK         0.0800 
    246 H246        1.5543  -19.2052  -49.1919 H         1 UNK         0.0800 
    247 H247        0.9241  -20.8327  -49.0866 H         1 UNK         0.0800 
@<TRIPOS>BOND
     1    1    2 1    
     2    1  127 1    
     3    1  128 1    
     4    1  129 1    
     5    2    3 2    
     6    2    4 am   BACKBONE|DICT|INTERRES
     7    4    5 1    
     8    4  130 1    
     9    5    6 1    
    10    5   65 1    
    11    5  131 1    
    12    6    7 1    
    13    6  132 1    
    14    6  133 1    
    15    7    8 1    
    16    8    9 1    
    17    8  134 1    
    18    8  135 1    
    19    9   10 ar   
    20    9   14 ar   
    21   10   11 ar   
    22   10  136 1    
    23   11   12 ar   
    24   11  126 1    
    25   12   13 ar   
    26   12  137 1    
    27   13   14 ar   
    28   13   15 1    
    29   14  138 1    
    30   15   16 1    
    31   15  139 1    
    32   15  140 1    
    33   16   17 1    
    34   17   18 1    
    35   17  141 1    
    36   17  142 1    
    37   18   19 1    
    38   18   67 1    
    39   18  143 1    
    40   19   20 am   BACKBONE|DICT|INTERRES
    41   19  144 1    
    42   20   21 2    
    43   20   22 1    
    44   22   23 1    
    45   22   24 1    
    46   22  145 1    
    47   23  146 1    
    48   23  147 1    
    49   23  148 1    
    50   24   25 am   BACKBONE|DICT|INTERRES
    51   24  149 1    
    52   25   26 2    
    53   25   27 1    
    54   27   28 1    
    55   27   29 1    
    56   27  150 1    
    57   28  151 1    
    58   28  152 1    
    59   28  153 1    
    60   29   30 am   BACKBONE|DICT|INTERRES
    61   29  154 1    
    62   30   31 2    
    63   30   32 1    
    64   32   33 1    
    65   32   34 1    
    66   32  155 1    
    67   33  156 1    
    68   33  157 1    
    69   33  158 1    
    70   34   35 am   BACKBONE|DICT|INTERRES
    71   34  159 1    
    72   35   36 2    
    73   35   37 1    
    74   37   38 1    
    75   37   39 1    
    76   37  160 1    
    77   38  161 1    
    78   38  162 1    
    79   38  163 1    
    80   39   40 am   BACKBONE|DICT|INTERRES
    81   39  164 1    
    82   40   41 2    
    83   40   42 1    
    84   42   43 1    
    85   42   44 1    
    86   42  165 1    
    87   43  166 1    
    88   43  167 1    
    89   43  168 1    
    90   44   45 am   BACKBONE|DICT|INTERRES
    91   44  169 1    
    92   45   46 2    
    93   45   47 1    
    94   47   48 1    
    95   47   49 1    
    96   47  170 1    
    97   48  171 1    
    98   48  172 1    
    99   48  173 1    
   100   49   50 am   BACKBONE|DICT|INTERRES
   101   49  174 1    
   102   50   51 2    
   103   50   52 1    
   104   52   53 1    
   105   52   54 1    
   106   52  175 1    
   107   53  176 1    
   108   53  177 1    
   109   53  178 1    
   110   54   55 am   BACKBONE|DICT|INTERRES
   111   54  179 1    
   112   55   56 2    
   113   55   57 1    
   114   57   58 1    
   115   57   59 1    
   116   57  180 1    
   117   58  181 1    
   118   58  182 1    
   119   58  183 1    
   120   59   60 am   BACKBONE|DICT|INTERRES
   121   59  184 1    
   122   60   61 2    
   123   60   62 1    
   124   62   63 1    
   125   62   64 1    
   126   62  185 1    
   127   63  186 1    
   128   63  187 1    
   129   63  188 1    
   130   64   65 am   BACKBONE|DICT|INTERRES
   131   64  189 1    
   132   65   66 2    
   133   67   68 2    
   134   67   69 am   BACKBONE|DICT|INTERRES
   135   69   70 1    
   136   69  190 1    
   137   70   71 1    
   138   70   72 1    
   139   70  191 1    
   140   71  192 1    
   141   71  193 1    
   142   71  194 1    
   143   72   73 2    
   144   72   74 am   BACKBONE|DICT|INTERRES
   145   74   75 1    
   146   74  195 1    
   147   75   76 1    
   148   75   77 1    
   149   75  196 1    
   150   76  197 1    
   151   76  198 1    
   152   76  199 1    
   153   77   78 2    
   154   77   79 am   BACKBONE|DICT|INTERRES
   155   79   80 1    
   156   79  200 1    
   157   80   81 1    
   158   80   82 1    
   159   80  201 1    
   160   81  202 1    
   161   81  203 1    
   162   81  204 1    
   163   82   83 2    
   164   82   84 am   BACKBONE|DICT|INTERRES
   165   84   85 1    
   166   84  205 1    
   167   85   86 1    
   168   85   87 1    
   169   85  206 1    
   170   86  207 1    
   171   86  208 1    
   172   86  209 1    
   173   87   88 2    
   174   87   89 am   BACKBONE|DICT|INTERRES
   175   89   90 1    
   176   89  210 1    
   177   90   91 1    
   178   90   92 1    
   179   90  211 1    
   180   91  212 1    
   181   91  213 1    
   182   91  214 1    
   183   92   93 2    
   184   92   94 am   BACKBONE|DICT|INTERRES
   185   94   95 1    
   186   94  215 1    
   187   95   96 1    
   188   95   97 1    
   189   95  216 1    
   190   96  217 1    
   191   96  218 1    
   192   96  219 1    
   193   97   98 2    
   194   97   99 am   BACKBONE|DICT|INTERRES
   195   99  100 1    
   196   99  220 1    
   197  100  101 1    
   198  100  102 1    
   199  100  221 1    
   200  101  222 1    
   201  101  223 1    
   202  101  224 1    
   203  102  103 2    
   204  102  104 am   BACKBONE|DICT|INTERRES
   205  104  105 1    
   206  104  225 1    
   207  105  106 1    
   208  105  107 1    
   209  105  226 1    
   210  106  227 1    
   211  106  228 1    
   212  106  229 1    
   213  107  108 2    
   214  107  109 am   BACKBONE|DICT|INTERRES
   215  109  110 1    
   216  109  230 1    
   217  110  111 1    
   218  110  112 1    
   219  110  231 1    
   220  111  232 1    
   221  111  233 1    
   222  111  234 1    
   223  112  113 2    
   224  112  114 am   BACKBONE|DICT|INTERRES
   225  114  115 1    
   226  114  235 1    
   227  115  116 1    
   228  115  117 1    
   229  115  236 1    
   230  116  237 1    
   231  116  238 1    
   232  116  239 1    
   233  117  118 2    
   234  117  119 am   BACKBONE|DICT|INTERRES
   235  119  120 1    
   236  119  240 1    
   237  120  121 1    
   238  120  124 1    
   239  120  241 1    
   240  121  122 am   BACKBONE|DICT|INTERRES
   241  121  123 2    
   242  122  242 1    
   243  122  243 1    
   244  124  125 1    
   245  124  244 1    
   246  124  245 1    
   247  125  126 1    
   248  126  246 1    
   249  126  247 1    
@<TRIPOS>SUBSTRUCTURE
     1 UNK         1 GROUP             0       ****    0 ROOT    
