@<TRIPOS>MOLECULE
3R540
247   249    1
SMALL
USER_CHARGES


@<TRIPOS>ATOM
      1 CA          4.1542   -9.5147  -48.2649 C.3       0 UNK        -0.1800 
      2 C           5.0892  -10.7155  -48.2470 C.2       0 UNK         0.5000 
      3 O           6.3068  -10.5448  -48.3074 O.2       0 UNK        -0.5000 
      4 N           4.5221  -11.9272  -48.1727 N.am      1 UNK        -0.5000 
      5 CA          5.2438  -13.2105  -48.1856 C.3       1 UNK         0.1400 
      6 C6          4.2838  -14.4215  -48.3353 C.3       23 UNK        -0.0398 
      7 S7          3.0627  -14.2142  -49.6817 S.3       23 UNK        -0.2404 
      8 C8          1.5549  -14.9419  -48.9571 C.3       23 UNK        -0.0205 
      9 C9          1.2392  -16.3032  -49.5588 C.ar      23 UNK        -0.0193 
     10 C10         0.0738  -16.4796  -50.3129 C.ar      23 UNK        -0.1150 
     11 C11        -0.2401  -17.7302  -50.8503 C.ar      23 UNK        -0.0193 
     12 C12         0.6402  -18.7962  -50.6642 C.ar      23 UNK        -0.1150 
     13 C13         1.7987  -18.6420  -49.9003 C.ar      23 UNK        -0.0193 
     14 C14         2.0916  -17.3929  -49.3437 C.ar      23 UNK        -0.1150 
     15 C15         2.7211  -19.8334  -49.6810 C.3       23 UNK        -0.0205 
     16 S16         2.2852  -20.7867  -48.1898 S.3       23 UNK        -0.2404 
     17 C17         0.5782  -21.3105  -48.5684 C.3       23 UNK        -0.0398 
     18 CA          0.0422  -22.3724  -47.5832 C.3       11 UNK         0.1400 
     19 N          -0.1296  -21.8496  -46.2236 N.am      11 UNK        -0.5000 
     20 C          -0.4369  -22.5970  -45.1543 C.2       10 UNK         0.5000 
     21 O          -0.5976  -23.8159  -45.1981 O.2       10 UNK        -0.5000 
     22 CA         -0.6447  -21.8633  -43.8182 C.3       10 UNK         0.1400 
     23 CB          0.6996  -21.4620  -43.1927 C.3       10 UNK        -0.1800 
     24 N          -1.5067  -20.6893  -43.9474 N.am      10 UNK        -0.5000 
     25 C          -2.7963  -20.7314  -44.3110 C.2       9 UNK         0.5000 
     26 O          -3.4080  -21.7737  -44.5445 O.2       9 UNK        -0.5000 
     27 CA         -3.5152  -19.3815  -44.4909 C.3       9 UNK         0.1400 
     28 CB         -3.9395  -18.7991  -43.1348 C.3       9 UNK        -0.1800 
     29 N          -2.7129  -18.4014  -45.2241 N.am      9 UNK        -0.5000 
     30 C          -2.2687  -18.5790  -46.4776 C.2       8 UNK         0.5000 
     31 O          -2.5089  -19.5798  -47.1515 O.2       8 UNK        -0.5000 
     32 CA         -1.3513  -17.4857  -47.0504 C.3       8 UNK         0.1400 
     33 CB         -2.1660  -16.2514  -47.4669 C.3       8 UNK        -0.1800 
     34 N          -0.2943  -17.0901  -46.1189 N.am      8 UNK        -0.5000 
     35 C           0.6268  -17.9262  -45.6177 C.2       7 UNK         0.5000 
     36 O           0.6934  -19.1202  -45.8995 O.2       7 UNK        -0.5000 
     37 CA          1.5894  -17.3542  -44.5641 C.3       7 UNK         0.1400 
     38 CB          2.6531  -16.4504  -45.2061 C.3       7 UNK        -0.1800 
     39 N           0.8830  -16.6197  -43.5174 N.am      7 UNK        -0.5000 
     40 C          -0.0331  -17.1453  -42.6922 C.2       6 UNK         0.5000 
     41 O          -0.3460  -18.3352  -42.6777 O.2       6 UNK        -0.5000 
     42 CA         -0.7554  -16.1624  -41.7574 C.3       6 UNK         0.1400 
     43 CB          0.0904  -15.8639  -40.5102 C.3       6 UNK        -0.1800 
     44 N          -1.0864  -14.9121  -42.4399 N.am      6 UNK        -0.5000 
     45 C          -2.0260  -14.7953  -43.3882 C.2       5 UNK         0.5000 
     46 O          -2.7347  -15.7273  -43.7699 O.2       5 UNK        -0.5000 
     47 CA         -2.1738  -13.4082  -44.0398 C.3       5 UNK         0.1400 
     48 CB         -3.0206  -12.4795  -43.1566 C.3       5 UNK        -0.1800 
     49 N          -0.8841  -12.7730  -44.3191 N.am      5 UNK        -0.5000 
     50 C          -0.0141  -13.2225  -45.2327 C.2       4 UNK         0.5000 
     51 O          -0.2048  -14.2174  -45.9295 O.2       4 UNK        -0.5000 
     52 CA          1.3129  -12.4584  -45.3732 C.3       4 UNK         0.1400 
     53 CB          1.1375  -11.2275  -46.2733 C.3       4 UNK        -0.1800 
     54 N           1.9494  -12.0526  -44.1163 N.am      4 UNK        -0.5000 
     55 C           2.2317  -12.8557  -43.0812 C.2       3 UNK         0.5000 
     56 O           1.7988  -14.0012  -42.9586 O.2       3 UNK        -0.5000 
     57 CA          3.2875  -12.3338  -42.0888 C.3       3 UNK         0.1400 
     58 CB          3.1276  -12.9504  -40.6884 C.3       3 UNK        -0.1800 
     59 N           4.5996  -12.6947  -42.6254 N.am      3 UNK        -0.5000 
     60 C           5.1909  -12.0587  -43.6448 C.2       2 UNK         0.5000 
     61 O           4.8507  -10.9368  -44.0287 O.2       2 UNK        -0.5000 
     62 CA          6.2325  -12.8376  -44.4660 C.3       2 UNK         0.1400 
     63 CB          6.5013  -14.2695  -43.9425 C.3       2 UNK        -0.1800 
     64 N           5.6661  -12.8510  -45.8105 N.am      2 UNK        -0.5000 
     65 C           6.1340  -13.4015  -46.9355 C.2       1 UNK         0.5000 
     66 O           7.1920  -14.0252  -47.0218 O.2       1 UNK        -0.5000 
     67 C          -1.2537  -23.0014  -48.1323 C.2       11 UNK         0.5000 
     68 O          -1.1876  -24.0693  -48.7418 O.2       11 UNK        -0.5000 
     69 N          -2.4025  -22.3555  -47.8882 N.am      12 UNK        -0.5000 
     70 CA         -3.7269  -22.8595  -48.2487 C.3       12 UNK         0.1400 
     71 CB         -4.7771  -21.7640  -48.0095 C.3       12 UNK        -0.1800 
     72 C          -4.0929  -24.1484  -47.4899 C.2       12 UNK         0.5000 
     73 O          -4.5724  -25.0971  -48.1103 O.2       12 UNK        -0.5000 
     74 N          -3.8305  -24.1765  -46.1744 N.am      13 UNK        -0.5000 
     75 CA         -4.0639  -25.3317  -45.3030 C.3       13 UNK         0.1400 
     76 CB         -3.8809  -24.9168  -43.8354 C.3       13 UNK        -0.1800 
     77 C          -3.1652  -26.5356  -45.6413 C.2       13 UNK         0.5000 
     78 O          -3.6376  -27.6726  -45.6176 O.2       13 UNK        -0.5000 
     79 N          -1.8965  -26.2643  -45.9752 N.am      14 UNK        -0.5000 
     80 CA         -0.9146  -27.2582  -46.4149 C.3       14 UNK         0.1400 
     81 CB          0.4915  -26.6481  -46.2974 C.3       14 UNK        -0.1800 
     82 C          -1.1495  -27.7634  -47.8527 C.2       14 UNK         0.5000 
     83 O          -0.5464  -28.7652  -48.2392 O.2       14 UNK        -0.5000 
     84 N          -1.9872  -27.0495  -48.6201 N.am      15 UNK        -0.5000 
     85 CA         -2.2603  -27.2244  -50.0497 C.3       15 UNK         0.1400 
     86 CB         -2.9415  -28.5797  -50.3304 C.3       15 UNK        -0.1800 
     87 C          -1.0139  -26.9718  -50.9260 C.2       15 UNK         0.5000 
     88 O          -0.8644  -27.5786  -51.9880 O.2       15 UNK        -0.5000 
     89 N          -0.1484  -26.0561  -50.4688 N.am      16 UNK        -0.5000 
     90 CA          1.0055  -25.5417  -51.2074 C.3       16 UNK         0.1400 
     91 CB          1.9912  -24.9052  -50.2155 C.3       16 UNK        -0.1800 
     92 C           0.5790  -24.5229  -52.2816 C.2       16 UNK         0.5000 
     93 O           1.2861  -24.3483  -53.2744 O.2       16 UNK        -0.5000 
     94 N          -0.5836  -23.8977  -52.0710 N.am      17 UNK        -0.5000 
     95 CA         -1.3146  -23.0877  -53.0329 C.3       17 UNK         0.1400 
     96 CB         -1.1502  -21.6039  -52.6750 C.3       17 UNK        -0.1800 
     97 C          -2.7890  -23.5089  -52.9717 C.2       17 UNK         0.5000 
     98 O          -3.2273  -24.0596  -51.9568 O.2       17 UNK        -0.5000 
     99 N          -3.5297  -23.2395  -54.0531 N.am      18 UNK        -0.5000 
    100 CA        -4.9662  -23.4895  -54.1505 C.3       18 UNK         0.1400 
    101 CB        -5.4149  -23.3208  -55.6110 C.3       18 UNK        -0.1800 
    102 C         -5.7360  -22.5321  -53.2280 C.2       18 UNK         0.5000 
    103 O         -5.7043  -21.3210  -53.4556 O.2       18 UNK        -0.5000 
    104 N         -6.4055  -23.0823  -52.2077 N.am      19 UNK        -0.5000 
    105 CA        -7.1072  -22.3349  -51.1597 C.3       19 UNK         0.1400 
    106 CB        -7.6745  -23.3235  -50.1304 C.3       19 UNK        -0.1800 
    107 C         -8.2143  -21.3998  -51.6818 C.2       19 UNK         0.5000 
    108 O         -8.4233  -20.3323  -51.1069 O.2       19 UNK        -0.5000 
    109 N         -8.8677  -21.7922  -52.7839 N.am      20 UNK        -0.5000 
    110 CA        -9.8937  -21.0051  -53.4710 C.3       20 UNK         0.1400 
    111 CB       -10.5714  -21.8870  -54.5309 C.3       20 UNK        -0.1800 
    112 C         -9.3544  -19.7105  -54.1135 C.2       20 UNK         0.5000 
    113 O        -10.1058  -18.7418  -54.2329 O.2       20 UNK        -0.5000 
    114 N         -8.0752  -19.7149  -54.5117 N.am      21 UNK        -0.5000 
    115 CA        -7.3792  -18.5587  -55.0747 C.3       21 UNK         0.1400 
    116 CB        -6.4228  -19.0364  -56.1795 C.3       21 UNK        -0.1800 
    117 C         -6.6089  -17.7936  -53.9859 C.2       21 UNK         0.5000 
    118 O         -6.6386  -16.5626  -53.9674 O.2       21 UNK        -0.5000 
    119 N         -5.9257  -18.5403  -53.1108 N.am      22 UNK        -0.5000 
    120 CA        -5.0985  -18.0267  -52.0130 C.3       22 UNK         0.1400 
    121 C         -5.9111  -17.3824  -50.8505 C.2       22 UNK         0.5000 
    122 N         -7.1051  -17.8635  -50.5265 N.am      22 UNK        -0.7600 
    123 O         -5.4675  -16.4067  -50.2518 O.2       22 UNK        -0.5000 
    124 C124       -4.1301  -19.1371  -51.5332 C.3       23 UNK        -0.0398 
    125 S125       -2.8048  -18.5725  -50.4207 S.3       23 UNK        -0.2404 
    126 C126       -1.5506  -17.9566  -51.5842 C.3       23 UNK        -0.0205 
    127 H127        4.4731   -8.7997  -49.0235 H         1 UNK         0.0600 
    128 H128        4.1674   -9.0150  -47.2963 H         1 UNK         0.0600 
    129 H129        3.1279   -9.8055  -48.4894 H         1 UNK         0.0600 
    130 H130        3.5154  -12.0005  -48.1847 H         1 UNK         0.3000 
    131 H131        5.9048  -13.1983  -49.0549 H         1 UNK         0.0600 
    132 H132        4.8529  -15.3316  -48.5326 H         1 UNK         0.0800 
    133 H133        3.7561  -14.5941  -47.3969 H         1 UNK         0.0800 
    134 H134        1.6333  -15.0389  -47.8754 H         1 UNK         0.0800 
    135 H135        0.7283  -14.2507  -49.1288 H         1 UNK         0.0800 
    136 H136       -0.6064  -15.6520  -50.4576 H         1 UNK         0.1150 
    137 H137        0.4009  -19.7620  -51.0812 H         1 UNK         0.1150 
    138 H138        2.9839  -17.2670  -48.7474 H         1 UNK         0.1150 
    139 H139        2.6985  -20.4928  -50.5500 H         1 UNK         0.0800 
    140 H140        3.7521  -19.4890  -49.5890 H         1 UNK         0.0800 
    141 H141        0.5690  -21.6949  -49.5903 H         1 UNK         0.0800 
    142 H142       -0.0714  -20.4334  -48.5555 H         1 UNK         0.0800 
    143 H143        0.7784  -23.1766  -47.5232 H         1 UNK         0.0600 
    144 H144        0.0269  -20.8506  -46.1013 H         1 UNK         0.3000 
    145 H145       -1.1368  -22.5583  -43.1349 H         1 UNK         0.0600 
    146 H146        0.5580  -21.0230  -42.2050 H         1 UNK         0.0600 
    147 H147        1.3492  -22.3299  -43.0736 H         1 UNK         0.0600 
    148 H148        1.2313  -20.7352  -43.8069 H         1 UNK         0.0600 
    149 H149       -1.0813  -19.7889  -43.7446 H         1 UNK         0.3000 
    150 H150       -4.4185  -19.5665  -45.0757 H         1 UNK         0.0600 
    151 H151       -4.5291  -17.8913  -43.2635 H         1 UNK         0.0600 
    152 H152       -3.0782  -18.5524  -42.5139 H         1 UNK         0.0600 
    153 H153       -4.5528  -19.5096  -42.5794 H         1 UNK         0.0600 
    154 H154       -2.4859  -17.5408  -44.7372 H         1 UNK         0.3000 
    155 H155       -0.8689  -17.8962  -47.9391 H         1 UNK         0.0600 
    156 H156       -2.9665  -16.5235  -48.1557 H         1 UNK         0.0600 
    157 H157       -2.6238  -15.7615  -46.6072 H         1 UNK         0.0600 
    158 H158       -1.5383  -15.5186  -47.9732 H         1 UNK         0.0600 
    159 H159       -0.2730  -16.1090  -45.8540 H         1 UNK         0.3000 
    160 H160        2.1008  -18.1954  -44.0917 H         1 UNK         0.0600 
    161 H161        3.4007  -16.1441  -44.4745 H         1 UNK         0.0600 
    162 H162        2.2106  -15.5480  -45.6239 H         1 UNK         0.0600 
    163 H163        3.1748  -16.9688  -46.0117 H         1 UNK         0.0600 
    164 H164        1.1070  -15.6317  -43.4202 H         1 UNK         0.3000 
    165 H165       -1.6860  -16.6317  -41.4313 H         1 UNK         0.0600 
    166 H166       -0.4389  -15.2033  -39.8235 H         1 UNK         0.0600 
    167 H167        0.3189  -16.7820  -39.9675 H         1 UNK         0.0600 
    168 H168        1.0387  -15.3912  -40.7663 H         1 UNK         0.0600 
    169 H169       -0.4898  -14.1202  -42.2480 H         1 UNK         0.3000 
    170 H170       -2.6974  -13.5435  -44.9889 H         1 UNK         0.0600 
    171 H171       -2.5367  -12.2790  -42.1999 H         1 UNK         0.0600 
    172 H172       -3.2006  -11.5237  -43.6490 H         1 UNK         0.0600 
    173 H173       -3.9943  -12.9236  -42.9455 H         1 UNK         0.0600 
    174 H174       -0.6413  -11.9568  -43.7771 H         1 UNK         0.3000 
    175 H175        2.0141  -13.1310  -45.8704 H         1 UNK         0.0600 
    176 H176        2.0899  -10.7280  -46.4469 H         1 UNK         0.0600 
    177 H177        0.4561  -10.5000  -45.8304 H         1 UNK         0.0600 
    178 H178        0.7330  -11.5079  -47.2469 H         1 UNK         0.0600 
    179 H179        2.3868  -11.1411  -44.1246 H         1 UNK         0.3000 
    180 H180        3.1964  -11.2489  -42.0023 H         1 UNK         0.0600 
    181 H181        3.2514  -14.0340  -40.7026 H         1 UNK         0.0600 
    182 H182        2.1388  -12.7380  -40.2800 H         1 UNK         0.0600 
    183 H183        3.8617  -12.5411  -39.9944 H         1 UNK         0.0600 
    184 H184        4.9199  -13.6263  -42.4036 H         1 UNK         0.3000 
    185 H185        7.1616  -12.2654  -44.4731 H         1 UNK         0.0600 
    186 H186        5.6122  -14.8987  -43.9997 H         1 UNK         0.0600 
    187 H187        7.2875  -14.7611  -44.5143 H         1 UNK         0.0600 
    188 H188        6.8406  -14.2543  -42.9060 H         1 UNK         0.0600 
    189 H189        4.8264  -12.2921  -45.8872 H         1 UNK         0.3000 
    190 H190       -2.3739  -21.4476  -47.4289 H         1 UNK         0.3000 
    191 H191       -3.7185  -23.0930  -49.3157 H         1 UNK         0.0600 
    192 H192       -4.5875  -20.8942  -48.6388 H         1 UNK         0.0600 
    193 H193       -5.7806  -22.1219  -48.2377 H         1 UNK         0.0600 
    194 H194       -4.7789  -21.4289  -46.9720 H         1 UNK         0.0600 
    195 H195       -3.4698  -23.3388  -45.7257 H         1 UNK         0.3000 
    196 H196       -5.1007  -25.6462  -45.4382 H         1 UNK         0.0600 
    197 H197       -4.0541  -25.7595  -43.1650 H         1 UNK         0.0600 
    198 H198       -4.5842  -24.1314  -43.5581 H         1 UNK         0.0600 
    199 H199       -2.8733  -24.5456  -43.6451 H         1 UNK         0.0600 
    200 H200       -1.5634  -25.3063  -45.8956 H         1 UNK         0.3000 
    201 H201       -0.9715  -28.1212  -45.7486 H         1 UNK         0.0600 
    202 H202        0.7032  -26.3391  -45.2736 H         1 UNK         0.0600 
    203 H203        0.6038  -25.7745  -46.9411 H         1 UNK         0.0600 
    204 H204        1.2590  -27.3681  -46.5839 H         1 UNK         0.0600 
    205 H205       -2.4165  -26.2350  -48.2006 H         1 UNK         0.3000 
    206 H206       -2.9726  -26.4407  -50.3125 H         1 UNK         0.0600 
    207 H207       -3.8118  -28.7224  -49.6899 H         1 UNK         0.0600 
    208 H208       -3.2873  -28.6348  -51.3632 H         1 UNK         0.0600 
    209 H209       -2.2636  -29.4181  -50.1693 H         1 UNK         0.0600 
    210 H210       -0.4013  -25.5518  -49.6231 H         1 UNK         0.3000 
    211 H211        1.5055  -26.3737  -51.7074 H         1 UNK         0.0600 
    212 H212        1.5526  -24.0478  -49.7061 H         1 UNK         0.0600 
    213 H213        2.8889  -24.5571  -50.7277 H         1 UNK         0.0600 
    214 H214        2.3058  -25.6217  -49.4564 H         1 UNK         0.0600 
    215 H215       -1.1225  -24.1492  -51.2507 H         1 UNK         0.3000 
    216 H216       -0.9438  -23.2671  -54.0443 H         1 UNK         0.0600 
    217 H217       -1.7084  -20.9708  -53.3653 H         1 UNK         0.0600 
    218 H218       -0.1038  -21.3061  -52.7364 H         1 UNK         0.0600 
    219 H219       -1.5065  -21.3895  -51.6661 H         1 UNK         0.0600 
    220 H220       -3.1065  -22.7587  -54.8334 H         1 UNK         0.3000 
    221 H221       -5.1634  -24.5204  -53.8486 H         1 UNK         0.0600 
    222 H222       -5.2117  -22.3164  -55.9849 H         1 UNK         0.0600 
    223 H223       -4.9054  -24.0299  -56.2636 H         1 UNK         0.0600 
    224 H224       -6.4863  -23.4978  -55.7132 H         1 UNK         0.0600 
    225 H225       -6.3616  -24.0839  -52.0856 H         1 UNK         0.3000 
    226 H226       -6.3673  -21.7088  -50.6580 H         1 UNK         0.0600 
    227 H227       -6.8843  -23.9313  -49.6885 H         1 UNK         0.0600 
    228 H228       -8.1720  -22.7966  -49.3150 H         1 UNK         0.0600 
    229 H229       -8.4046  -23.9976  -50.5800 H         1 UNK         0.0600 
    230 H230       -8.6280  -22.6840  -53.1913 H         1 UNK         0.3000 
    231 H231      -10.6462  -20.7168  -52.7339 H         1 UNK         0.0600 
    232 H232       -9.8610  -22.2269  -55.2857 H         1 UNK         0.0600 
    233 H233      -11.3620  -21.3403  -55.0468 H         1 UNK         0.0600 
    234 H234      -11.0291  -22.7670  -54.0786 H         1 UNK         0.0600 
    235 H235       -7.5114  -20.5351  -54.3296 H         1 UNK         0.3000 
    236 H236       -8.0968  -17.8713  -55.5279 H         1 UNK         0.0600 
    237 H237       -6.9661  -19.5423  -56.9777 H         1 UNK         0.0600 
    238 H238       -5.8944  -18.1944  -56.6284 H         1 UNK         0.0600 
    239 H239       -5.6719  -19.7284  -55.7960 H         1 UNK         0.0600 
    240 H240       -5.9322  -19.5513  -53.2236 H         1 UNK         0.3000 
    241 H241       -4.4855  -17.2288  -52.4366 H         1 UNK         0.0600 
    242 H242       -7.6201  -17.4204  -49.7833 H         1 UNK         0.3800 
    243 H243       -7.4959  -18.6902  -50.9687 H         1 UNK         0.3800 
    244 H244       -4.6867  -19.9234  -51.0219 H         1 UNK         0.0800 
    245 H245       -3.6625  -19.6217  -52.3913 H         1 UNK         0.0800 
    246 H246       -1.8996  -17.0301  -52.0423 H         1 UNK         0.0800 
    247 H247       -1.4037  -18.6714  -52.3943 H         1 UNK         0.0800 
@<TRIPOS>BOND
     1    1    2 1    
     2    1  127 1    
     3    1  128 1    
     4    1  129 1    
     5    2    3 2    
     6    2    4 am   BACKBONE|DICT|INTERRES
     7    4    5 1    
     8    4  130 1    
     9    5    6 1    
    10    5   65 1    
    11    5  131 1    
    12    6    7 1    
    13    6  132 1    
    14    6  133 1    
    15    7    8 1    
    16    8    9 1    
    17    8  134 1    
    18    8  135 1    
    19    9   10 ar   
    20    9   14 ar   
    21   10   11 ar   
    22   10  136 1    
    23   11   12 ar   
    24   11  126 1    
    25   12   13 ar   
    26   12  137 1    
    27   13   14 ar   
    28   13   15 1    
    29   14  138 1    
    30   15   16 1    
    31   15  139 1    
    32   15  140 1    
    33   16   17 1    
    34   17   18 1    
    35   17  141 1    
    36   17  142 1    
    37   18   19 1    
    38   18   67 1    
    39   18  143 1    
    40   19   20 am   BACKBONE|DICT|INTERRES
    41   19  144 1    
    42   20   21 2    
    43   20   22 1    
    44   22   23 1    
    45   22   24 1    
    46   22  145 1    
    47   23  146 1    
    48   23  147 1    
    49   23  148 1    
    50   24   25 am   BACKBONE|DICT|INTERRES
    51   24  149 1    
    52   25   26 2    
    53   25   27 1    
    54   27   28 1    
    55   27   29 1    
    56   27  150 1    
    57   28  151 1    
    58   28  152 1    
    59   28  153 1    
    60   29   30 am   BACKBONE|DICT|INTERRES
    61   29  154 1    
    62   30   31 2    
    63   30   32 1    
    64   32   33 1    
    65   32   34 1    
    66   32  155 1    
    67   33  156 1    
    68   33  157 1    
    69   33  158 1    
    70   34   35 am   BACKBONE|DICT|INTERRES
    71   34  159 1    
    72   35   36 2    
    73   35   37 1    
    74   37   38 1    
    75   37   39 1    
    76   37  160 1    
    77   38  161 1    
    78   38  162 1    
    79   38  163 1    
    80   39   40 am   BACKBONE|DICT|INTERRES
    81   39  164 1    
    82   40   41 2    
    83   40   42 1    
    84   42   43 1    
    85   42   44 1    
    86   42  165 1    
    87   43  166 1    
    88   43  167 1    
    89   43  168 1    
    90   44   45 am   BACKBONE|DICT|INTERRES
    91   44  169 1    
    92   45   46 2    
    93   45   47 1    
    94   47   48 1    
    95   47   49 1    
    96   47  170 1    
    97   48  171 1    
    98   48  172 1    
    99   48  173 1    
   100   49   50 am   BACKBONE|DICT|INTERRES
   101   49  174 1    
   102   50   51 2    
   103   50   52 1    
   104   52   53 1    
   105   52   54 1    
   106   52  175 1    
   107   53  176 1    
   108   53  177 1    
   109   53  178 1    
   110   54   55 am   BACKBONE|DICT|INTERRES
   111   54  179 1    
   112   55   56 2    
   113   55   57 1    
   114   57   58 1    
   115   57   59 1    
   116   57  180 1    
   117   58  181 1    
   118   58  182 1    
   119   58  183 1    
   120   59   60 am   BACKBONE|DICT|INTERRES
   121   59  184 1    
   122   60   61 2    
   123   60   62 1    
   124   62   63 1    
   125   62   64 1    
   126   62  185 1    
   127   63  186 1    
   128   63  187 1    
   129   63  188 1    
   130   64   65 am   BACKBONE|DICT|INTERRES
   131   64  189 1    
   132   65   66 2    
   133   67   68 2    
   134   67   69 am   BACKBONE|DICT|INTERRES
   135   69   70 1    
   136   69  190 1    
   137   70   71 1    
   138   70   72 1    
   139   70  191 1    
   140   71  192 1    
   141   71  193 1    
   142   71  194 1    
   143   72   73 2    
   144   72   74 am   BACKBONE|DICT|INTERRES
   145   74   75 1    
   146   74  195 1    
   147   75   76 1    
   148   75   77 1    
   149   75  196 1    
   150   76  197 1    
   151   76  198 1    
   152   76  199 1    
   153   77   78 2    
   154   77   79 am   BACKBONE|DICT|INTERRES
   155   79   80 1    
   156   79  200 1    
   157   80   81 1    
   158   80   82 1    
   159   80  201 1    
   160   81  202 1    
   161   81  203 1    
   162   81  204 1    
   163   82   83 2    
   164   82   84 am   BACKBONE|DICT|INTERRES
   165   84   85 1    
   166   84  205 1    
   167   85   86 1    
   168   85   87 1    
   169   85  206 1    
   170   86  207 1    
   171   86  208 1    
   172   86  209 1    
   173   87   88 2    
   174   87   89 am   BACKBONE|DICT|INTERRES
   175   89   90 1    
   176   89  210 1    
   177   90   91 1    
   178   90   92 1    
   179   90  211 1    
   180   91  212 1    
   181   91  213 1    
   182   91  214 1    
   183   92   93 2    
   184   92   94 am   BACKBONE|DICT|INTERRES
   185   94   95 1    
   186   94  215 1    
   187   95   96 1    
   188   95   97 1    
   189   95  216 1    
   190   96  217 1    
   191   96  218 1    
   192   96  219 1    
   193   97   98 2    
   194   97   99 am   BACKBONE|DICT|INTERRES
   195   99  100 1    
   196   99  220 1    
   197  100  101 1    
   198  100  102 1    
   199  100  221 1    
   200  101  222 1    
   201  101  223 1    
   202  101  224 1    
   203  102  103 2    
   204  102  104 am   BACKBONE|DICT|INTERRES
   205  104  105 1    
   206  104  225 1    
   207  105  106 1    
   208  105  107 1    
   209  105  226 1    
   210  106  227 1    
   211  106  228 1    
   212  106  229 1    
   213  107  108 2    
   214  107  109 am   BACKBONE|DICT|INTERRES
   215  109  110 1    
   216  109  230 1    
   217  110  111 1    
   218  110  112 1    
   219  110  231 1    
   220  111  232 1    
   221  111  233 1    
   222  111  234 1    
   223  112  113 2    
   224  112  114 am   BACKBONE|DICT|INTERRES
   225  114  115 1    
   226  114  235 1    
   227  115  116 1    
   228  115  117 1    
   229  115  236 1    
   230  116  237 1    
   231  116  238 1    
   232  116  239 1    
   233  117  118 2    
   234  117  119 am   BACKBONE|DICT|INTERRES
   235  119  120 1    
   236  119  240 1    
   237  120  121 1    
   238  120  124 1    
   239  120  241 1    
   240  121  122 am   BACKBONE|DICT|INTERRES
   241  121  123 2    
   242  122  242 1    
   243  122  243 1    
   244  124  125 1    
   245  124  244 1    
   246  124  245 1    
   247  125  126 1    
   248  126  246 1    
   249  126  247 1    
@<TRIPOS>SUBSTRUCTURE
     1 UNK         1 GROUP             0       ****    0 ROOT    
