@<TRIPOS>MOLECULE
3R540
247   249    1
SMALL
USER_CHARGES


@<TRIPOS>ATOM
      1 CA         -0.6926  -11.4588  -51.0156 C.3       0 UNK        -0.1800 
      2 C          -0.0771  -12.2879  -49.8983 C.2       0 UNK         0.5000 
      3 O           1.0564  -12.7463  -50.0310 O.2       0 UNK        -0.5000 
      4 N          -0.8132  -12.4729  -48.7933 N.am      1 UNK        -0.5000 
      5 CA         -0.4164  -13.2847  -47.6326 C.3       1 UNK         0.1400 
      6 C6         -1.5818  -13.4262  -46.6191 C.3       23 UNK        -0.0398 
      7 S7         -1.5235  -14.9801  -45.6624 S.3       23 UNK        -0.2404 
      8 C8         -2.6648  -16.0422  -46.6050 C.3       23 UNK        -0.0205 
      9 C9         -2.0335  -16.5351  -47.8981 C.ar      23 UNK        -0.0193 
     10 C10        -2.2258  -15.8401  -49.0940 C.ar      23 UNK        -0.1150 
     11 C11        -1.6115  -16.2734  -50.2710 C.ar      23 UNK        -0.0193 
     12 C12        -0.8361  -17.4365  -50.2544 C.ar      23 UNK        -0.1150 
     13 C13        -0.6413  -18.1543  -49.0691 C.ar      23 UNK        -0.0193 
     14 C14        -1.2405  -17.6843  -47.8914 C.ar      23 UNK        -0.1150 
     15 C15         0.2300  -19.4134  -49.1215 C.3       23 UNK        -0.0205 
     16 S16         0.6944  -20.1370  -47.5069 S.3       23 UNK        -0.2404 
     17 C17        -0.8513  -20.9877  -47.0449 C.3       23 UNK        -0.0398 
     18 CA         -0.5914  -22.4130  -46.5115 C.3       11 UNK         0.1400 
     19 N           0.0844  -22.4083  -45.2130 N.am      11 UNK        -0.5000 
     20 C           0.6651  -23.4780  -44.6541 C.2       10 UNK         0.5000 
     21 O           0.7199  -24.5846  -45.1896 O.2       10 UNK        -0.5000 
     22 CA          1.2289  -23.2859  -43.2349 C.3       10 UNK         0.1400 
     23 CB          2.6055  -22.6075  -43.2833 C.3       10 UNK        -0.1800 
     24 N           0.3287  -22.5058  -42.3829 N.am      10 UNK        -0.5000 
     25 C          -0.8791  -22.9275  -41.9825 C.2       9 UNK         0.5000 
     26 O          -1.3412  -24.0338  -42.2606 O.2       9 UNK        -0.5000 
     27 CA         -1.7329  -21.9322  -41.1755 C.3       9 UNK         0.1400 
     28 CB         -1.3823  -22.0093  -39.6824 C.3       9 UNK        -0.1800 
     29 N          -1.6169  -20.5422  -41.6235 N.am      9 UNK        -0.5000 
     30 C          -1.8853  -20.0820  -42.8519 C.2       8 UNK         0.5000 
     31 O          -2.2094  -20.8114  -43.7881 O.2       8 UNK        -0.5000 
     32 CA         -1.7498  -18.5673  -43.1045 C.3       8 UNK         0.1400 
     33 CB         -3.1211  -17.8715  -43.0367 C.3       8 UNK        -0.1800 
     34 N          -0.7578  -17.8721  -42.2728 N.am      8 UNK        -0.5000 
     35 C          -0.7562  -17.6400  -40.9499 C.2       7 UNK         0.5000 
     36 O          -1.6231  -18.0606  -40.1838 O.2       7 UNK        -0.5000 
     37 CA          0.4300  -16.8414  -40.3670 C.3       7 UNK         0.1400 
     38 CB          1.3932  -17.7856  -39.6301 C.3       7 UNK        -0.1800 
     39 N           1.1852  -16.0991  -41.3769 N.am      7 UNK        -0.5000 
     40 C           0.7392  -15.0206  -42.0354 C.2       6 UNK         0.5000 
     41 O          -0.3127  -14.4429  -41.7597 O.2       6 UNK        -0.5000 
     42 CA          1.5961  -14.5148  -43.2147 C.3       6 UNK         0.1400 
     43 CB          2.3483  -13.2320  -42.8294 C.3       6 UNK        -0.1800 
     44 N           2.5611  -15.4840  -43.7507 N.am      6 UNK        -0.5000 
     45 C           2.2639  -16.6762  -44.2840 C.2       5 UNK         0.5000 
     46 O           1.1304  -17.1568  -44.3059 O.2       5 UNK        -0.5000 
     47 CA          3.4319  -17.4516  -44.9156 C.3       5 UNK         0.1400 
     48 CB          3.2826  -18.9708  -44.7281 C.3       5 UNK        -0.1800 
     49 N           3.4865  -17.1410  -46.3402 N.am      5 UNK        -0.5000 
     50 C           4.0129  -16.0178  -46.8443 C.2       4 UNK         0.5000 
     51 O           4.6625  -15.2164  -46.1664 O.2       4 UNK        -0.5000 
     52 CA          3.7817  -15.7487  -48.3441 C.3       4 UNK         0.1400 
     53 CB          2.4386  -16.3072  -48.8527 C.3       4 UNK        -0.1800 
     54 N           3.7952  -14.3092  -48.5777 N.am      4 UNK        -0.5000 
     55 C           4.7107  -13.6298  -49.2781 C.2       3 UNK         0.5000 
     56 O           5.6578  -14.1627  -49.8591 O.2       3 UNK        -0.5000 
     57 CA          4.5484  -12.0972  -49.3567 C.3       3 UNK         0.1400 
     58 CB          4.2897  -11.6485  -50.8047 C.3       3 UNK        -0.1800 
     59 N           3.4552  -11.6099  -48.5127 N.am      3 UNK        -0.5000 
     60 C           3.5974  -11.1730  -47.2532 C.2       2 UNK         0.5000 
     61 O           4.6864  -11.0601  -46.6900 O.2       2 UNK        -0.5000 
     62 CA          2.3121  -10.8038  -46.4814 C.3       2 UNK         0.1400 
     63 CB          2.0930   -9.2834  -46.5005 C.3       2 UNK        -0.1800 
     64 N           1.1028  -11.4612  -46.9836 N.am      2 UNK        -0.5000 
     65 C           0.8778  -12.7828  -46.9562 C.2       1 UNK         0.5000 
     66 O           1.6735  -13.5932  -46.4865 O.2       1 UNK        -0.5000 
     67 C          -1.9008  -23.2217  -46.4659 C.2       11 UNK         0.5000 
     68 O          -2.2324  -23.8713  -47.4558 O.2       11 UNK        -0.5000 
     69 N          -2.6174  -23.1876  -45.3351 N.am      12 UNK        -0.5000 
     70 CA         -3.8097  -23.9993  -45.0922 C.3       12 UNK         0.1400 
     71 CB         -4.5233  -23.5130  -43.8227 C.3       12 UNK        -0.1800 
     72 C          -3.4798  -25.5001  -45.0136 C.2       12 UNK         0.5000 
     73 O          -4.1684  -26.3018  -45.6444 O.2       12 UNK        -0.5000 
     74 N          -2.4043  -25.8462  -44.2911 N.am      13 UNK        -0.5000 
     75 CA         -1.8824  -27.2099  -44.1702 C.3       13 UNK         0.1400 
     76 CB         -0.7775  -27.2420  -43.1035 C.3       13 UNK        -0.1800 
     77 C          -1.3676  -27.7793  -45.5063 C.2       13 UNK         0.5000 
     78 O          -1.6012  -28.9527  -45.7980 O.2       13 UNK        -0.5000 
     79 N          -0.7056  -26.9318  -46.3058 N.am      14 UNK        -0.5000 
     80 CA         -0.2153  -27.2571  -47.6477 C.3       14 UNK         0.1400 
     81 CB          0.8537  -26.2248  -48.0411 C.3       14 UNK        -0.1800 
     82 C          -1.3226  -27.3032  -48.7218 C.2       14 UNK         0.5000 
     83 O          -1.0595  -27.7737  -49.8286 O.2       14 UNK        -0.5000 
     84 N          -2.5139  -26.7778  -48.3960 N.am      15 UNK        -0.5000 
     85 CA         -3.6753  -26.5506  -49.2668 C.3       15 UNK         0.1400 
     86 CB         -4.2067  -27.8674  -49.8674 C.3       15 UNK        -0.1800 
     87 C          -3.4449  -25.4609  -50.3376 C.2       15 UNK         0.5000 
     88 O          -4.2584  -25.3130  -51.2499 O.2       15 UNK        -0.5000 
     89 N          -2.3785  -24.6680  -50.1787 N.am      16 UNK        -0.5000 
     90 CA         -2.0506  -23.5082  -51.0029 C.3       16 UNK         0.1400 
     91 CB         -0.6187  -23.0525  -50.6859 C.3       16 UNK        -0.1800 
     92 C          -3.0492  -22.3565  -50.7982 C.2       16 UNK         0.5000 
     93 O          -3.3824  -21.6690  -51.7611 O.2       16 UNK        -0.5000 
     94 N          -3.5507  -22.1974  -49.5639 N.am      17 UNK        -0.5000 
     95 CA         -4.6001  -21.2289  -49.2311 C.3       17 UNK         0.1400 
     96 CB         -4.6894  -21.0566  -47.7070 C.3       17 UNK        -0.1800 
     97 C          -5.9729  -21.6273  -49.8070 C.2       17 UNK         0.5000 
     98 O          -6.7693  -20.7480  -50.1345 O.2       17 UNK        -0.5000 
     99 N          -6.2176  -22.9405  -49.9301 N.am      18 UNK        -0.5000 
    100 CA        -7.4202  -23.5036  -50.5442 C.3       18 UNK         0.1400 
    101 CB        -7.5913  -24.9660  -50.1036 C.3       18 UNK        -0.1800 
    102 C         -7.3834  -23.3844  -52.0782 C.2       18 UNK         0.5000 
    103 O         -8.4029  -23.0519  -52.6838 O.2       18 UNK        -0.5000 
    104 N         -6.2066  -23.6311  -52.6736 N.am      19 UNK        -0.5000 
    105 CA        -5.9369  -23.4354  -54.0996 C.3       19 UNK         0.1400 
    106 CB        -4.5743  -24.0528  -54.4491 C.3       19 UNK        -0.1800 
    107 C         -5.9851  -21.9510  -54.5114 C.2       19 UNK         0.5000 
    108 O         -6.5110  -21.6363  -55.5799 O.2       19 UNK        -0.5000 
    109 N         -5.4626  -21.0776  -53.6380 N.am      20 UNK        -0.5000 
    110 CA        -5.4060  -19.6212  -53.7514 C.3       20 UNK         0.1400 
    111 CB        -6.8233  -19.0117  -53.6593 C.3       20 UNK        -0.1800 
    112 C         -4.5885  -19.1773  -54.9818 C.2       20 UNK         0.5000 
    113 O         -3.4113  -19.5306  -55.0708 O.2       20 UNK        -0.5000 
    114 N         -5.2098  -18.4041  -55.8865 N.am      21 UNK        -0.5000 
    115 CA        -4.6189  -17.7950  -57.0865 C.3       21 UNK         0.1400 
    116 CB        -4.1838  -18.8738  -58.1012 C.3       21 UNK        -0.1800 
    117 C         -3.4996  -16.7837  -56.7521 C.2       21 UNK         0.5000 
    118 O         -2.5125  -16.6791  -57.4830 O.2       21 UNK        -0.5000 
    119 N         -3.6812  -16.0659  -55.6366 N.am      22 UNK        -0.5000 
    120 CA        -2.7847  -15.0230  -55.1208 C.3       22 UNK         0.1400 
    121 C         -2.6474  -13.8122  -56.0868 C.2       22 UNK         0.5000 
    122 N         -1.4561  -13.2441  -56.2156 N.am      22 UNK        -0.7600 
    123 O         -3.6203  -13.3562  -56.6843 O.2       22 UNK        -0.5000 
    124 C124       -3.2459  -14.5389  -53.7231 C.3       23 UNK        -0.0398 
    125 S125       -3.2567  -15.8687  -52.4686 S.3       23 UNK        -0.2404 
    126 C126       -1.7481  -15.4531  -51.5433 C.3       23 UNK        -0.0205 
    127 H127       -0.7145  -12.0348  -51.9407 H         1 UNK         0.0600 
    128 H128       -0.0982  -10.5613  -51.1864 H         1 UNK         0.0600 
    129 H129       -1.7126  -11.1540  -50.7807 H         1 UNK         0.0600 
    130 H130       -1.7292  -12.0505  -48.7422 H         1 UNK         0.3000 
    131 H131       -0.1847  -14.2740  -48.0309 H         1 UNK         0.0600 
    132 H132       -1.6043  -12.5860  -45.9226 H         1 UNK         0.0800 
    133 H133       -2.5412  -13.3919  -47.1362 H         1 UNK         0.0800 
    134 H134       -2.9369  -16.8975  -45.9850 H         1 UNK         0.0800 
    135 H135       -3.5952  -15.5097  -46.8069 H         1 UNK         0.0800 
    136 H136       -2.8288  -14.9434  -49.1046 H         1 UNK         0.1150 
    137 H137       -0.3665  -17.7749  -51.1675 H         1 UNK         0.1150 
    138 H138       -1.0917  -18.1916  -46.9514 H         1 UNK         0.1150 
    139 H139       -0.2763  -20.1669  -49.7252 H         1 UNK         0.0800 
    140 H140        1.1517  -19.1783  -49.6544 H         1 UNK         0.0800 
    141 H141       -1.4961  -21.0213  -47.9237 H         1 UNK         0.0800 
    142 H142       -1.3807  -20.3891  -46.3029 H         1 UNK         0.0800 
    143 H143        0.0634  -22.9226  -47.2213 H         1 UNK         0.0600 
    144 H144        0.0415  -21.5477  -44.6884 H         1 UNK         0.3000 
    145 H145        1.3506  -24.2746  -42.7872 H         1 UNK         0.0600 
    146 H146        3.3025  -23.1837  -43.8932 H         1 UNK         0.0600 
    147 H147        3.0395  -22.5224  -42.2870 H         1 UNK         0.0600 
    148 H148        2.5458  -21.6071  -43.7112 H         1 UNK         0.0600 
    149 H149        0.6311  -21.5818  -42.1130 H         1 UNK         0.3000 
    150 H150       -2.7775  -22.2250  -41.2948 H         1 UNK         0.0600 
    151 H151       -0.3586  -21.6845  -39.4919 H         1 UNK         0.0600 
    152 H152       -1.4792  -23.0300  -39.3097 H         1 UNK         0.0600 
    153 H153       -2.0482  -21.3828  -39.0886 H         1 UNK         0.0600 
    154 H154       -1.4286  -19.8460  -40.9098 H         1 UNK         0.3000 
    155 H155       -1.3863  -18.4640  -44.1283 H         1 UNK         0.0600 
    156 H156       -3.5700  -17.9496  -42.0463 H         1 UNK         0.0600 
    157 H157       -3.8187  -18.3179  -43.7465 H         1 UNK         0.0600 
    158 H158       -3.0369  -16.8134  -43.2855 H         1 UNK         0.0600 
    159 H159        0.0219  -17.5037  -42.8127 H         1 UNK         0.3000 
    160 H160        0.0244  -16.1291  -39.6456 H         1 UNK         0.0600 
    161 H161        1.8352  -18.5183  -40.3065 H         1 UNK         0.0600 
    162 H162        0.8765  -18.3361  -38.8425 H         1 UNK         0.0600 
    163 H163        2.2044  -17.2316  -39.1573 H         1 UNK         0.0600 
    164 H164        2.0674  -16.4950  -41.6652 H         1 UNK         0.3000 
    165 H165        0.9029  -14.2708  -44.0205 H         1 UNK         0.0600 
    166 H166        2.8852  -12.8203  -43.6842 H         1 UNK         0.0600 
    167 H167        1.6585  -12.4629  -42.4795 H         1 UNK         0.0600 
    168 H168        3.0711  -13.4144  -42.0333 H         1 UNK         0.0600 
    169 H169        3.5132  -15.1557  -43.8340 H         1 UNK         0.3000 
    170 H170        4.3642  -17.1471  -44.4349 H         1 UNK         0.0600 
    171 H171        4.1223  -19.5077  -45.1694 H         1 UNK         0.0600 
    172 H172        2.3676  -19.3515  -45.1819 H         1 UNK         0.0600 
    173 H173        3.2531  -19.2265  -43.6684 H         1 UNK         0.0600 
    174 H174        2.9358  -17.7342  -46.9439 H         1 UNK         0.3000 
    175 H175        4.5904  -16.2366  -48.8911 H         1 UNK         0.0600 
    176 H176        2.4388  -17.3962  -48.8445 H         1 UNK         0.0600 
    177 H177        1.6004  -15.9685  -48.2419 H         1 UNK         0.0600 
    178 H178        2.2441  -15.9968  -49.8797 H         1 UNK         0.0600 
    179 H179        3.1024  -13.7876  -48.0543 H         1 UNK         0.3000 
    180 H180        5.4927  -11.6543  -49.0336 H         1 UNK         0.0600 
    181 H181        3.3820  -12.0960  -51.2104 H         1 UNK         0.0600 
    182 H182        5.1153  -11.9363  -51.4567 H         1 UNK         0.0600 
    183 H183        4.1882  -10.5652  -50.8700 H         1 UNK         0.0600 
    184 H184        2.5234  -11.7195  -48.8969 H         1 UNK         0.3000 
    185 H185        2.4546  -11.1150  -45.4448 H         1 UNK         0.0600 
    186 H186        2.9626   -8.7579  -46.1035 H         1 UNK         0.0600 
    187 H187        1.9207   -8.9148  -47.5126 H         1 UNK         0.0600 
    188 H188        1.2370   -8.9996  -45.8881 H         1 UNK         0.0600 
    189 H189        0.4109  -10.8661  -47.4153 H         1 UNK         0.3000 
    190 H190       -2.3332  -22.5506  -44.5966 H         1 UNK         0.3000 
    191 H191       -4.4913  -23.8604  -45.9328 H         1 UNK         0.0600 
    192 H192       -4.7708  -22.4534  -43.8913 H         1 UNK         0.0600 
    193 H193       -5.4558  -24.0572  -43.6690 H         1 UNK         0.0600 
    194 H194       -3.9115  -23.6568  -42.9331 H         1 UNK         0.0600 
    195 H195       -1.9199  -25.1276  -43.7604 H         1 UNK         0.3000 
    196 H196       -2.6997  -27.8498  -43.8313 H         1 UNK         0.0600 
    197 H197       -0.3821  -28.2508  -42.9794 H         1 UNK         0.0600 
    198 H198       -1.1573  -26.9197  -42.1338 H         1 UNK         0.0600 
    199 H199        0.0567  -26.5913  -43.3677 H         1 UNK         0.0600 
    200 H200       -0.4831  -26.0055  -45.9544 H         1 UNK         0.3000 
    201 H201        0.2545  -28.2423  -47.6177 H         1 UNK         0.0600 
    202 H202        1.2781  -26.4500  -49.0204 H         1 UNK         0.0600 
    203 H203        1.6766  -26.2172  -47.3262 H         1 UNK         0.0600 
    204 H204        0.4404  -25.2168  -48.0865 H         1 UNK         0.0600 
    205 H205       -2.6121  -26.4110  -47.4581 H         1 UNK         0.3000 
    206 H206       -4.4543  -26.1570  -48.6124 H         1 UNK         0.0600 
    207 H207       -4.3603  -28.6197  -49.0937 H         1 UNK         0.0600 
    208 H208       -5.1663  -27.7111  -50.3615 H         1 UNK         0.0600 
    209 H209       -3.5251  -28.2816  -50.6104 H         1 UNK         0.0600 
    210 H210       -1.8359  -24.7908  -49.3339 H         1 UNK         0.3000 
    211 H211       -2.0924  -23.8102  -52.0512 H         1 UNK         0.0600 
    212 H212       -0.5113  -22.7507  -49.6442 H         1 UNK         0.0600 
    213 H213       -0.3335  -22.2027  -51.3072 H         1 UNK         0.0600 
    214 H214        0.0993  -23.8501  -50.8777 H         1 UNK         0.0600 
    215 H215       -3.2297  -22.8170  -48.8275 H         1 UNK         0.3000 
    216 H216       -4.3265  -20.2641  -49.6644 H         1 UNK         0.0600 
    217 H217       -5.4642  -20.3357  -47.4427 H         1 UNK         0.0600 
    218 H218       -3.7555  -20.6855  -47.2884 H         1 UNK         0.0600 
    219 H219       -4.9359  -21.9941  -47.2108 H         1 UNK         0.0600 
    220 H220       -5.4982  -23.5919  -49.6583 H         1 UNK         0.3000 
    221 H221       -8.2861  -22.9428  -50.1855 H         1 UNK         0.0600 
    222 H222       -6.7699  -25.5952  -50.4452 H         1 UNK         0.0600 
    223 H223       -7.6473  -25.0472  -49.0179 H         1 UNK         0.0600 
    224 H224       -8.5126  -25.3865  -50.5084 H         1 UNK         0.0600 
    225 H225       -5.4399  -23.9868  -52.1117 H         1 UNK         0.3000 
    226 H226       -6.7066  -23.9655  -54.6644 H         1 UNK         0.0600 
    227 H227       -4.3640  -23.9554  -55.5149 H         1 UNK         0.0600 
    228 H228       -3.7620  -23.5666  -53.9083 H         1 UNK         0.0600 
    229 H229       -4.5485  -25.1154  -54.2068 H         1 UNK         0.0600 
    230 H230       -4.9498  -21.4539  -52.8460 H         1 UNK         0.3000 
    231 H231       -4.8471  -19.2745  -52.8807 H         1 UNK         0.0600 
    232 H232       -7.4582  -19.3084  -54.4947 H         1 UNK         0.0600 
    233 H233       -6.7837  -17.9220  -53.6355 H         1 UNK         0.0600 
    234 H234       -7.3197  -19.3309  -52.7425 H         1 UNK         0.0600 
    235 H235       -6.1843  -18.1906  -55.7260 H         1 UNK         0.3000 
    236 H236       -5.4151  -17.2139  -57.5538 H         1 UNK         0.0600 
    237 H237       -4.9970  -19.5690  -58.3099 H         1 UNK         0.0600 
    238 H238       -3.8922  -18.4220  -59.0499 H         1 UNK         0.0600 
    239 H239       -3.3326  -19.4522  -57.7411 H         1 UNK         0.0600 
    240 H240       -4.5194  -16.2266  -55.0995 H         1 UNK         0.3000 
    241 H241       -1.7981  -15.4781  -55.0134 H         1 UNK         0.0600 
    242 H242       -0.6438  -13.5984  -55.7345 H         1 UNK         0.3800 
    243 H243       -1.3576  -12.4487  -56.8277 H         1 UNK         0.3800 
    244 H244       -4.2534  -14.1232  -53.7815 H         1 UNK         0.0800 
    245 H245       -2.6111  -13.7226  -53.3739 H         1 UNK         0.0800 
    246 H246       -0.8773  -15.5988  -52.1845 H         1 UNK         0.0800 
    247 H247       -1.7639  -14.3947  -51.2822 H         1 UNK         0.0800 
@<TRIPOS>BOND
     1    1    2 1    
     2    1  127 1    
     3    1  128 1    
     4    1  129 1    
     5    2    3 2    
     6    2    4 am   BACKBONE|DICT|INTERRES
     7    4    5 1    
     8    4  130 1    
     9    5    6 1    
    10    5   65 1    
    11    5  131 1    
    12    6    7 1    
    13    6  132 1    
    14    6  133 1    
    15    7    8 1    
    16    8    9 1    
    17    8  134 1    
    18    8  135 1    
    19    9   10 ar   
    20    9   14 ar   
    21   10   11 ar   
    22   10  136 1    
    23   11   12 ar   
    24   11  126 1    
    25   12   13 ar   
    26   12  137 1    
    27   13   14 ar   
    28   13   15 1    
    29   14  138 1    
    30   15   16 1    
    31   15  139 1    
    32   15  140 1    
    33   16   17 1    
    34   17   18 1    
    35   17  141 1    
    36   17  142 1    
    37   18   19 1    
    38   18   67 1    
    39   18  143 1    
    40   19   20 am   BACKBONE|DICT|INTERRES
    41   19  144 1    
    42   20   21 2    
    43   20   22 1    
    44   22   23 1    
    45   22   24 1    
    46   22  145 1    
    47   23  146 1    
    48   23  147 1    
    49   23  148 1    
    50   24   25 am   BACKBONE|DICT|INTERRES
    51   24  149 1    
    52   25   26 2    
    53   25   27 1    
    54   27   28 1    
    55   27   29 1    
    56   27  150 1    
    57   28  151 1    
    58   28  152 1    
    59   28  153 1    
    60   29   30 am   BACKBONE|DICT|INTERRES
    61   29  154 1    
    62   30   31 2    
    63   30   32 1    
    64   32   33 1    
    65   32   34 1    
    66   32  155 1    
    67   33  156 1    
    68   33  157 1    
    69   33  158 1    
    70   34   35 am   BACKBONE|DICT|INTERRES
    71   34  159 1    
    72   35   36 2    
    73   35   37 1    
    74   37   38 1    
    75   37   39 1    
    76   37  160 1    
    77   38  161 1    
    78   38  162 1    
    79   38  163 1    
    80   39   40 am   BACKBONE|DICT|INTERRES
    81   39  164 1    
    82   40   41 2    
    83   40   42 1    
    84   42   43 1    
    85   42   44 1    
    86   42  165 1    
    87   43  166 1    
    88   43  167 1    
    89   43  168 1    
    90   44   45 am   BACKBONE|DICT|INTERRES
    91   44  169 1    
    92   45   46 2    
    93   45   47 1    
    94   47   48 1    
    95   47   49 1    
    96   47  170 1    
    97   48  171 1    
    98   48  172 1    
    99   48  173 1    
   100   49   50 am   BACKBONE|DICT|INTERRES
   101   49  174 1    
   102   50   51 2    
   103   50   52 1    
   104   52   53 1    
   105   52   54 1    
   106   52  175 1    
   107   53  176 1    
   108   53  177 1    
   109   53  178 1    
   110   54   55 am   BACKBONE|DICT|INTERRES
   111   54  179 1    
   112   55   56 2    
   113   55   57 1    
   114   57   58 1    
   115   57   59 1    
   116   57  180 1    
   117   58  181 1    
   118   58  182 1    
   119   58  183 1    
   120   59   60 am   BACKBONE|DICT|INTERRES
   121   59  184 1    
   122   60   61 2    
   123   60   62 1    
   124   62   63 1    
   125   62   64 1    
   126   62  185 1    
   127   63  186 1    
   128   63  187 1    
   129   63  188 1    
   130   64   65 am   BACKBONE|DICT|INTERRES
   131   64  189 1    
   132   65   66 2    
   133   67   68 2    
   134   67   69 am   BACKBONE|DICT|INTERRES
   135   69   70 1    
   136   69  190 1    
   137   70   71 1    
   138   70   72 1    
   139   70  191 1    
   140   71  192 1    
   141   71  193 1    
   142   71  194 1    
   143   72   73 2    
   144   72   74 am   BACKBONE|DICT|INTERRES
   145   74   75 1    
   146   74  195 1    
   147   75   76 1    
   148   75   77 1    
   149   75  196 1    
   150   76  197 1    
   151   76  198 1    
   152   76  199 1    
   153   77   78 2    
   154   77   79 am   BACKBONE|DICT|INTERRES
   155   79   80 1    
   156   79  200 1    
   157   80   81 1    
   158   80   82 1    
   159   80  201 1    
   160   81  202 1    
   161   81  203 1    
   162   81  204 1    
   163   82   83 2    
   164   82   84 am   BACKBONE|DICT|INTERRES
   165   84   85 1    
   166   84  205 1    
   167   85   86 1    
   168   85   87 1    
   169   85  206 1    
   170   86  207 1    
   171   86  208 1    
   172   86  209 1    
   173   87   88 2    
   174   87   89 am   BACKBONE|DICT|INTERRES
   175   89   90 1    
   176   89  210 1    
   177   90   91 1    
   178   90   92 1    
   179   90  211 1    
   180   91  212 1    
   181   91  213 1    
   182   91  214 1    
   183   92   93 2    
   184   92   94 am   BACKBONE|DICT|INTERRES
   185   94   95 1    
   186   94  215 1    
   187   95   96 1    
   188   95   97 1    
   189   95  216 1    
   190   96  217 1    
   191   96  218 1    
   192   96  219 1    
   193   97   98 2    
   194   97   99 am   BACKBONE|DICT|INTERRES
   195   99  100 1    
   196   99  220 1    
   197  100  101 1    
   198  100  102 1    
   199  100  221 1    
   200  101  222 1    
   201  101  223 1    
   202  101  224 1    
   203  102  103 2    
   204  102  104 am   BACKBONE|DICT|INTERRES
   205  104  105 1    
   206  104  225 1    
   207  105  106 1    
   208  105  107 1    
   209  105  226 1    
   210  106  227 1    
   211  106  228 1    
   212  106  229 1    
   213  107  108 2    
   214  107  109 am   BACKBONE|DICT|INTERRES
   215  109  110 1    
   216  109  230 1    
   217  110  111 1    
   218  110  112 1    
   219  110  231 1    
   220  111  232 1    
   221  111  233 1    
   222  111  234 1    
   223  112  113 2    
   224  112  114 am   BACKBONE|DICT|INTERRES
   225  114  115 1    
   226  114  235 1    
   227  115  116 1    
   228  115  117 1    
   229  115  236 1    
   230  116  237 1    
   231  116  238 1    
   232  116  239 1    
   233  117  118 2    
   234  117  119 am   BACKBONE|DICT|INTERRES
   235  119  120 1    
   236  119  240 1    
   237  120  121 1    
   238  120  124 1    
   239  120  241 1    
   240  121  122 am   BACKBONE|DICT|INTERRES
   241  121  123 2    
   242  122  242 1    
   243  122  243 1    
   244  124  125 1    
   245  124  244 1    
   246  124  245 1    
   247  125  126 1    
   248  126  246 1    
   249  126  247 1    
@<TRIPOS>SUBSTRUCTURE
     1 UNK         1 GROUP             0       ****    0 ROOT    
