@<TRIPOS>MOLECULE
3R540
247   249    1
SMALL
USER_CHARGES


@<TRIPOS>ATOM
      1 CA          7.6318  -11.3170  -45.5360 C.3       0 UNK        -0.1800 
      2 C           6.2568  -11.9662  -45.5746 C.2       0 UNK         0.5000 
      3 O           5.3877  -11.6019  -44.7846 O.2       0 UNK        -0.5000 
      4 N           6.0470  -12.9088  -46.5034 N.am      1 UNK        -0.5000 
      5 CA          4.8160  -13.6950  -46.6890 C.3       1 UNK         0.1400 
      6 C6          5.0262  -14.7633  -47.7915 C.3       23 UNK        -0.0398 
      7 S7          3.8244  -16.1346  -47.7316 S.3       23 UNK        -0.2404 
      8 C8          3.2123  -16.1143  -49.4453 C.3       23 UNK        -0.0205 
      9 C9          2.1319  -17.1620  -49.6496 C.ar      23 UNK        -0.0193 
     10 C10         0.7842  -16.7979  -49.6173 C.ar      23 UNK        -0.1150 
     11 C11        -0.2170  -17.7633  -49.7547 C.ar      23 UNK        -0.0193 
     12 C12         0.1429  -19.1041  -49.9289 C.ar      23 UNK        -0.1150 
     13 C13         1.4897  -19.4798  -49.9833 C.ar      23 UNK        -0.0193 
     14 C14         2.4789  -18.4998  -49.8535 C.ar      23 UNK        -0.1150 
     15 C15         1.8689  -20.9447  -50.1759 C.3       23 UNK        -0.0205 
     16 S16         3.0463  -21.5712  -48.9244 S.3       23 UNK        -0.2404 
     17 C17         2.1961  -21.1909  -47.3524 C.3       23 UNK        -0.0398 
     18 CA          1.4274  -22.3812  -46.7315 C.3       11 UNK         0.1400 
     19 N           0.9750  -22.0665  -45.3754 N.am      11 UNK        -0.5000 
     20 C           0.3602  -22.9135  -44.5385 C.2       10 UNK         0.5000 
     21 O           0.1544  -24.1004  -44.7894 O.2       10 UNK        -0.5000 
     22 CA         -0.1652  -22.3161  -43.2209 C.3       10 UNK         0.1400 
     23 CB          0.9690  -22.1595  -42.1975 C.3       10 UNK        -0.1800 
     24 N          -0.8375  -21.0303  -43.4199 N.am      10 UNK        -0.5000 
     25 C          -1.9540  -20.8683  -44.1456 C.2       9 UNK         0.5000 
     26 O          -2.5594  -21.7964  -44.6822 O.2       9 UNK        -0.5000 
     27 CA         -2.4590  -19.4271  -44.3398 C.3       9 UNK         0.1400 
     28 CB         -3.2257  -18.9460  -43.0992 C.3       9 UNK        -0.1800 
     29 N          -1.3846  -18.4843  -44.6543 N.am      9 UNK        -0.5000 
     30 C          -0.6247  -18.5391  -45.7577 C.2       8 UNK         0.5000 
     31 O          -0.7749  -19.3772  -46.6450 O.2       8 UNK        -0.5000 
     32 CA          0.5303  -17.5254  -45.8610 C.3       8 UNK         0.1400 
     33 CB          0.0105  -16.1372  -46.2590 C.3       8 UNK        -0.1800 
     34 N           1.2943  -17.4222  -44.6179 N.am      8 UNK        -0.5000 
     35 C           1.9550  -18.4363  -44.0419 C.2       7 UNK         0.5000 
     36 O           2.0491  -19.5614  -44.5298 O.2       7 UNK        -0.5000 
     37 CA          2.5585  -18.1662  -42.6552 C.3       7 UNK         0.1400 
     38 CB          3.9213  -17.4669  -42.7732 C.3       7 UNK        -0.1800 
     39 N           1.6528  -17.3734  -41.8229 N.am      7 UNK        -0.5000 
     40 C           0.5064  -17.8401  -41.3060 C.2       6 UNK         0.5000 
     41 O           0.1170  -18.9995  -41.4461 O.2       6 UNK        -0.5000 
     42 CA         -0.3699  -16.8344  -40.5358 C.3       6 UNK         0.1400 
     43 CB          0.1109  -16.6982  -39.0836 C.3       6 UNK        -0.1800 
     44 N          -0.3975  -15.5128  -41.1639 N.am      6 UNK        -0.5000 
     45 C          -0.9543  -15.2533  -42.3554 C.2       5 UNK         0.5000 
     46 O          -1.5520  -16.0951  -43.0239 O.2       5 UNK        -0.5000 
     47 CA         -0.7751  -13.8286  -42.9159 C.3       5 UNK         0.1400 
     48 CB         -1.9287  -12.9224  -42.4627 C.3       5 UNK        -0.1800 
     49 N           0.4994  -13.2020  -42.5552 N.am      5 UNK        -0.5000 
     50 C           1.7146  -13.6950  -42.8252 C.2       4 UNK         0.5000 
     51 O           1.9004  -14.7671  -43.4034 O.2       4 UNK        -0.5000 
     52 CA          2.9086  -12.8446  -42.3523 C.3       4 UNK         0.1400 
     53 CB          4.2298  -13.6333  -42.3526 C.3       4 UNK        -0.1800 
     54 N           3.0724  -11.6500  -43.1760 N.am      4 UNK        -0.5000 
     55 C           2.3200  -10.5436  -43.1143 C.2       3 UNK         0.5000 
     56 O           1.3812  -10.4007  -42.3289 O.2       3 UNK        -0.5000 
     57 CA          2.6702   -9.4131  -44.0955 C.3       3 UNK         0.1400 
     58 CB          3.8515   -8.5858  -43.5644 C.3       3 UNK        -0.1800 
     59 N           3.0114   -9.9442  -45.4152 N.am      3 UNK        -0.5000 
     60 C           2.1668  -10.0077  -46.4539 C.2       2 UNK         0.5000 
     61 O           1.0113   -9.5825  -46.4219 O.2       2 UNK        -0.5000 
     62 CA          2.6950  -10.6458  -47.7564 C.3       2 UNK         0.1400 
     63 CB          3.2253   -9.5618  -48.7073 C.3       2 UNK        -0.1800 
     64 N           3.7472  -11.6398  -47.5370 N.am      2 UNK        -0.5000 
     65 C           3.5576  -12.8298  -46.9490 C.2       1 UNK         0.5000 
     66 O           2.4535  -13.2295  -46.5822 O.2       1 UNK        -0.5000 
     67 C           0.2553  -22.8380  -47.6219 C.2       11 UNK         0.5000 
     68 O           0.3491  -23.8927  -48.2479 O.2       11 UNK        -0.5000 
     69 N          -0.8371  -22.0613  -47.6324 N.am      12 UNK        -0.5000 
     70 CA         -2.0562  -22.3448  -48.3884 C.3       12 UNK         0.1400 
     71 CB         -3.0427  -21.1863  -48.2105 C.3       12 UNK        -0.1800 
     72 C          -2.7211  -23.6732  -47.9964 C.2       12 UNK         0.5000 
     73 O          -3.1577  -24.4104  -48.8810 O.2       12 UNK        -0.5000 
     74 N          -2.7597  -23.9601  -46.6882 N.am      13 UNK        -0.5000 
     75 CA         -3.2650  -25.2099  -46.1254 C.3       13 UNK         0.1400 
     76 CB         -3.4131  -25.0646  -44.6033 C.3       13 UNK        -0.1800 
     77 C          -2.3777  -26.4168  -46.4777 C.2       13 UNK         0.5000 
     78 O          -2.9069  -27.4617  -46.8569 O.2       13 UNK        -0.5000 
     79 N          -1.0518  -26.2488  -46.3681 N.am      14 UNK        -0.5000 
     80 CA         -0.0542  -27.2712  -46.6903 C.3       14 UNK         0.1400 
     81 CB          1.3270  -26.8190  -46.1921 C.3       14 UNK        -0.1800 
     82 C          -0.0069  -27.6086  -48.1911 C.2       14 UNK         0.5000 
     83 O           0.0702  -28.7848  -48.5485 O.2       14 UNK        -0.5000 
     84 N          -0.0720  -26.5745  -49.0399 N.am      15 UNK        -0.5000 
     85 CA         -0.1130  -26.6965  -50.4972 C.3       15 UNK         0.1400 
     86 CB          0.2293  -25.3338  -51.1214 C.3       15 UNK        -0.1800 
     87 C          -1.4738  -27.1877  -51.0251 C.2       15 UNK         0.5000 
     88 O          -1.5243  -27.7266  -52.1313 O.2       15 UNK        -0.5000 
     89 N          -2.5408  -26.9657  -50.2411 N.am      16 UNK        -0.5000 
     90 CA         -3.9553  -27.1498  -50.5799 C.3       16 UNK         0.1400 
     91 CB         -4.2920  -28.6430  -50.7725 C.3       16 UNK        -0.1800 
     92 C          -4.3451  -26.2649  -51.7814 C.2       16 UNK         0.5000 
     93 O          -4.8266  -26.7705  -52.7968 O.2       16 UNK        -0.5000 
     94 N          -4.0534  -24.9615  -51.6464 N.am      17 UNK        -0.5000 
     95 CA         -4.1251  -23.9441  -52.6990 C.3       17 UNK         0.1400 
     96 CB         -3.6736  -22.5878  -52.1296 C.3       17 UNK        -0.1800 
     97 C          -5.5061  -23.8364  -53.3708 C.2       17 UNK         0.5000 
     98 O          -5.6033  -24.0273  -54.5843 O.2       17 UNK        -0.5000 
     99 N          -6.5358  -23.5635  -52.5540 N.am      18 UNK        -0.5000 
    100 CA        -7.9528  -23.4519  -52.9220 C.3       18 UNK         0.1400 
    101 CB        -8.5283  -24.8623  -53.1843 C.3       18 UNK        -0.1800 
    102 C         -8.2094  -22.4475  -54.0736 C.2       18 UNK         0.5000 
    103 O         -7.5035  -21.4377  -54.1670 O.2       18 UNK        -0.5000 
    104 N         -9.2135  -22.7450  -54.9133 N.am      19 UNK        -0.5000 
    105 CA        -9.5905  -22.0501  -56.1482 C.3       19 UNK         0.1400 
    106 CB        -8.5533  -22.3693  -57.2500 C.3       19 UNK        -0.1800 
    107 C         -9.8438  -20.5387  -55.9457 C.2       19 UNK         0.5000 
    108 O        -10.4422  -20.1481  -54.9412 O.2       19 UNK        -0.5000 
    109 N         -9.3809  -19.7207  -56.8983 N.am      20 UNK        -0.5000 
    110 CA        -9.3734  -18.2578  -56.8355 C.3       20 UNK         0.1400 
    111 CB        -9.5864  -17.7108  -58.2576 C.3       20 UNK        -0.1800 
    112 C         -8.0687  -17.7065  -56.2185 C.2       20 UNK         0.5000 
    113 O         -7.8826  -16.4885  -56.1937 O.2       20 UNK        -0.5000 
    114 N         -7.1814  -18.5999  -55.7576 N.am      21 UNK        -0.5000 
    115 CA        -5.9205  -18.2866  -55.0925 C.3       21 UNK         0.1400 
    116 CB        -4.8864  -19.3692  -55.4678 C.3       21 UNK        -0.1800 
    117 C         -6.1434  -18.1354  -53.5721 C.2       21 UNK         0.5000 
    118 O         -7.1345  -17.5334  -53.1525 O.2       21 UNK        -0.5000 
    119 N         -5.2170  -18.6662  -52.7663 N.am      22 UNK        -0.5000 
    120 CA        -5.2550  -18.6160  -51.2963 C.3       22 UNK         0.1400 
    121 C         -6.3265  -19.5320  -50.6298 C.2       22 UNK         0.5000 
    122 N         -7.0323  -20.3925  -51.3523 N.am      22 UNK        -0.7600 
    123 O         -6.5299  -19.4534  -49.4217 O.2       22 UNK        -0.5000 
    124 C124       -3.8585  -18.8723  -50.6783 C.3       23 UNK        -0.0398 
    125 S125       -2.5864  -17.6782  -51.2195 S.3       23 UNK        -0.2404 
    126 C126       -1.6818  -17.3571  -49.6665 C.3       23 UNK        -0.0205 
    127 H127        8.2945  -11.7227  -46.3006 H         1 UNK         0.0600 
    128 H128        7.5428  -10.2426  -45.6965 H         1 UNK         0.0600 
    129 H129        8.0940  -11.4800  -44.5625 H         1 UNK         0.0600 
    130 H130        6.8064  -13.1429  -47.1273 H         1 UNK         0.3000 
    131 H131        4.6445  -14.2170  -45.7455 H         1 UNK         0.0600 
    132 H132        6.0098  -15.2213  -47.6776 H         1 UNK         0.0800 
    133 H133        5.0312  -14.3004  -48.7800 H         1 UNK         0.0800 
    134 H134        4.0400  -16.2998  -50.1315 H         1 UNK         0.0800 
    135 H135        2.8263  -15.1212  -49.6813 H         1 UNK         0.0800 
    136 H136        0.5160  -15.7625  -49.4604 H         1 UNK         0.1150 
    137 H137       -0.6305  -19.8534  -50.0190 H         1 UNK         0.1150 
    138 H138        3.5218  -18.7828  -49.8823 H         1 UNK         0.1150 
    139 H139        0.9803  -21.5772  -50.1730 H         1 UNK         0.0800 
    140 H140        2.3177  -21.0595  -51.1632 H         1 UNK         0.0800 
    141 H141        1.5443  -20.3261  -47.4697 H         1 UNK         0.0800 
    142 H142        2.9742  -20.8699  -46.6591 H         1 UNK         0.0800 
    143 H143        2.1193  -23.2216  -46.6458 H         1 UNK         0.0600 
    144 H144        1.1401  -21.1127  -45.0626 H         1 UNK         0.3000 
    145 H145       -0.8976  -23.0140  -42.8101 H         1 UNK         0.0600 
    146 H146        0.5875  -21.8108  -41.2377 H         1 UNK         0.0600 
    147 H147        1.4705  -23.1120  -42.0219 H         1 UNK         0.0600 
    148 H148        1.7229  -21.4484  -42.5353 H         1 UNK         0.0600 
    149 H149       -0.4204  -20.2223  -42.9691 H         1 UNK         0.3000 
    150 H150       -3.1516  -19.4317  -45.1840 H         1 UNK         0.0600 
    151 H151       -4.0375  -19.6309  -42.8510 H         1 UNK         0.0600 
    152 H152       -3.6685  -17.9642  -43.2669 H         1 UNK         0.0600 
    153 H153       -2.5763  -18.8746  -42.2263 H         1 UNK         0.0600 
    154 H154       -1.2366  -17.7278  -43.9921 H         1 UNK         0.3000 
    155 H155        1.2089  -17.8721  -46.6433 H         1 UNK         0.0600 
    156 H156       -0.6298  -15.7093  -45.4902 H         1 UNK         0.0600 
    157 H157       -0.5773  -16.1853  -47.1744 H         1 UNK         0.0600 
    158 H158        0.8345  -15.4455  -46.4344 H         1 UNK         0.0600 
    159 H159        1.3154  -16.5139  -44.1641 H         1 UNK         0.3000 
    160 H160        2.7169  -19.1283  -42.1634 H         1 UNK         0.0600 
    161 H161        4.3478  -17.2606  -41.7916 H         1 UNK         0.0600 
    162 H162        3.8508  -16.5245  -43.3159 H         1 UNK         0.0600 
    163 H163        4.6314  -18.0961  -43.3111 H         1 UNK         0.0600 
    164 H164        1.8619  -16.3890  -41.7395 H         1 UNK         0.3000 
    165 H165       -1.3898  -17.2249  -40.5219 H         1 UNK         0.0600 
    166 H166       -0.5495  -16.0484  -38.5091 H         1 UNK         0.0600 
    167 H167        0.1245  -17.6684  -38.5851 H         1 UNK         0.0600 
    168 H168        1.1194  -16.2864  -39.0283 H         1 UNK         0.0600 
    169 H169        0.0705  -14.7623  -40.6779 H         1 UNK         0.3000 
    170 H170       -0.8050  -13.8961  -44.0045 H         1 UNK         0.0600 
    171 H171       -2.8934  -13.3488  -42.7413 H         1 UNK         0.0600 
    172 H172       -1.9303  -12.7836  -41.3808 H         1 UNK         0.0600 
    173 H173       -1.8630  -11.9383  -42.9274 H         1 UNK         0.0600 
    174 H174        0.4526  -12.2793  -42.1377 H         1 UNK         0.3000 
    175 H175        2.7100  -12.5364  -41.3237 H         1 UNK         0.0600 
    176 H176        5.0521  -13.0237  -41.9777 H         1 UNK         0.0600 
    177 H177        4.1598  -14.5134  -41.7127 H         1 UNK         0.0600 
    178 H178        4.4981  -13.9726  -43.3532 H         1 UNK         0.0600 
    179 H179        3.8464  -11.6722  -43.8361 H         1 UNK         0.3000 
    180 H180        1.8045   -8.7513  -44.1661 H         1 UNK         0.0600 
    181 H181        4.7568   -9.1865  -43.4674 H         1 UNK         0.0600 
    182 H182        3.6260   -8.1699  -42.5816 H         1 UNK         0.0600 
    183 H183        4.0749   -7.7500  -44.2277 H         1 UNK         0.0600 
    184 H184        3.9267  -10.3703  -45.5023 H         1 UNK         0.3000 
    185 H185        1.8537  -11.1441  -48.2428 H         1 UNK         0.0600 
    186 H186        2.4572   -8.8161  -48.9167 H         1 UNK         0.0600 
    187 H187        4.0833   -9.0388  -48.2829 H         1 UNK         0.0600 
    188 H188        3.5301   -9.9892  -49.6627 H         1 UNK         0.0600 
    189 H189        4.6856  -11.3767  -47.8004 H         1 UNK         0.3000 
    190 H190       -0.8240  -21.1862  -47.1126 H         1 UNK         0.3000 
    191 H191       -1.7804  -22.4051  -49.4427 H         1 UNK         0.0600 
    192 H192       -3.3817  -21.0968  -47.1784 H         1 UNK         0.0600 
    193 H193       -3.9261  -21.3218  -48.8354 H         1 UNK         0.0600 
    194 H194       -2.5765  -20.2426  -48.4848 H         1 UNK         0.0600 
    195 H195       -2.4251  -23.2650  -46.0274 H         1 UNK         0.3000 
    196 H196       -4.2563  -25.3909  -46.5463 H         1 UNK         0.0600 
    197 H197       -3.8026  -25.9811  -44.1585 H         1 UNK         0.0600 
    198 H198       -4.1044  -24.2603  -44.3508 H         1 UNK         0.0600 
    199 H199       -2.4585  -24.8451  -44.1239 H         1 UNK         0.0600 
    200 H200       -0.6951  -25.3668  -46.0104 H         1 UNK         0.3000 
    201 H201       -0.3244  -28.1832  -46.1540 H         1 UNK         0.0600 
    202 H202        1.3258  -26.6692  -45.1123 H         1 UNK         0.0600 
    203 H203        1.6366  -25.8830  -46.6584 H         1 UNK         0.0600 
    204 H204        2.0887  -27.5669  -46.4159 H         1 UNK         0.0600 
    205 H205       -0.0683  -25.6273  -48.6647 H         1 UNK         0.3000 
    206 H206        0.6466  -27.4170  -50.8072 H         1 UNK         0.0600 
    207 H207        1.2093  -24.9845  -50.7954 H         1 UNK         0.0600 
    208 H208        0.2508  -25.3952  -52.2101 H         1 UNK         0.0600 
    209 H209       -0.5041  -24.5729  -50.8497 H         1 UNK         0.0600 
    210 H210       -2.3765  -26.4753  -49.3715 H         1 UNK         0.3000 
    211 H211       -4.5295  -26.7899  -49.7248 H         1 UNK         0.0600 
    212 H212       -3.7815  -29.0712  -51.6354 H         1 UNK         0.0600 
    213 H213       -5.3628  -28.7821  -50.9253 H         1 UNK         0.0600 
    214 H214       -4.0104  -29.2241  -49.8943 H         1 UNK         0.0600 
    215 H215       -3.6737  -24.6637  -50.7522 H         1 UNK         0.3000 
    216 H216       -3.4113  -24.2347  -53.4725 H         1 UNK         0.0600 
    217 H217       -3.7485  -21.8021  -52.8827 H         1 UNK         0.0600 
    218 H218       -2.6341  -22.6259  -51.8038 H         1 UNK         0.0600 
    219 H219       -4.2809  -22.2848  -51.2761 H         1 UNK         0.0600 
    220 H220       -6.3271  -23.4121  -51.5781 H         1 UNK         0.3000 
    221 H221       -8.4630  -23.0446  -52.0486 H         1 UNK         0.0600 
    222 H222       -8.1289  -25.2974  -54.1015 H         1 UNK         0.0600 
    223 H223       -8.2843  -25.5409  -52.3667 H         1 UNK         0.0600 
    224 H224       -9.6156  -24.8454  -53.2645 H         1 UNK         0.0600 
    225 H225       -9.7537  -23.5737  -54.7104 H         1 UNK         0.3000 
    226 H226      -10.5457  -22.4751  -56.4593 H         1 UNK         0.0600 
    227 H227       -8.4071  -23.4455  -57.3451 H         1 UNK         0.0600 
    228 H228       -8.8795  -22.0107  -58.2269 H         1 UNK         0.0600 
    229 H229       -7.5801  -21.9263  -57.0331 H         1 UNK         0.0600 
    230 H230       -8.9058  -20.1310  -57.6898 H         1 UNK         0.3000 
    231 H231      -10.1993  -17.9110  -56.2111 H         1 UNK         0.0600 
    232 H232      -10.5162  -18.0834  -58.6878 H         1 UNK         0.0600 
    233 H233       -8.7706  -17.9935  -58.9240 H         1 UNK         0.0600 
    234 H234       -9.6468  -16.6217  -58.2556 H         1 UNK         0.0600 
    235 H235       -7.4522  -19.5735  -55.7416 H         1 UNK         0.3000 
    236 H236       -5.5455  -17.3284  -55.4573 H         1 UNK         0.0600 
    237 H237       -3.8925  -19.1190  -55.0950 H         1 UNK         0.0600 
    238 H238       -5.1589  -20.3485  -55.0716 H         1 UNK         0.0600 
    239 H239       -4.8002  -19.4658  -56.5503 H         1 UNK         0.0600 
    240 H240       -4.4253  -19.1377  -53.1767 H         1 UNK         0.3000 
    241 H241       -5.5410  -17.5989  -51.0210 H         1 UNK         0.0600 
    242 H242       -7.7359  -20.9393  -50.8853 H         1 UNK         0.3800 
    243 H243       -6.9233  -20.4632  -52.3563 H         1 UNK         0.3800 
    244 H244       -3.9447  -18.8177  -49.5937 H         1 UNK         0.0800 
    245 H245       -3.5091  -19.8777  -50.9147 H         1 UNK         0.0800 
    246 H246       -1.7708  -16.2935  -49.4412 H         1 UNK         0.0800 
    247 H247       -2.1298  -17.8761  -48.8196 H         1 UNK         0.0800 
@<TRIPOS>BOND
     1    1    2 1    
     2    1  127 1    
     3    1  128 1    
     4    1  129 1    
     5    2    3 2    
     6    2    4 am   BACKBONE|DICT|INTERRES
     7    4    5 1    
     8    4  130 1    
     9    5    6 1    
    10    5   65 1    
    11    5  131 1    
    12    6    7 1    
    13    6  132 1    
    14    6  133 1    
    15    7    8 1    
    16    8    9 1    
    17    8  134 1    
    18    8  135 1    
    19    9   10 ar   
    20    9   14 ar   
    21   10   11 ar   
    22   10  136 1    
    23   11   12 ar   
    24   11  126 1    
    25   12   13 ar   
    26   12  137 1    
    27   13   14 ar   
    28   13   15 1    
    29   14  138 1    
    30   15   16 1    
    31   15  139 1    
    32   15  140 1    
    33   16   17 1    
    34   17   18 1    
    35   17  141 1    
    36   17  142 1    
    37   18   19 1    
    38   18   67 1    
    39   18  143 1    
    40   19   20 am   BACKBONE|DICT|INTERRES
    41   19  144 1    
    42   20   21 2    
    43   20   22 1    
    44   22   23 1    
    45   22   24 1    
    46   22  145 1    
    47   23  146 1    
    48   23  147 1    
    49   23  148 1    
    50   24   25 am   BACKBONE|DICT|INTERRES
    51   24  149 1    
    52   25   26 2    
    53   25   27 1    
    54   27   28 1    
    55   27   29 1    
    56   27  150 1    
    57   28  151 1    
    58   28  152 1    
    59   28  153 1    
    60   29   30 am   BACKBONE|DICT|INTERRES
    61   29  154 1    
    62   30   31 2    
    63   30   32 1    
    64   32   33 1    
    65   32   34 1    
    66   32  155 1    
    67   33  156 1    
    68   33  157 1    
    69   33  158 1    
    70   34   35 am   BACKBONE|DICT|INTERRES
    71   34  159 1    
    72   35   36 2    
    73   35   37 1    
    74   37   38 1    
    75   37   39 1    
    76   37  160 1    
    77   38  161 1    
    78   38  162 1    
    79   38  163 1    
    80   39   40 am   BACKBONE|DICT|INTERRES
    81   39  164 1    
    82   40   41 2    
    83   40   42 1    
    84   42   43 1    
    85   42   44 1    
    86   42  165 1    
    87   43  166 1    
    88   43  167 1    
    89   43  168 1    
    90   44   45 am   BACKBONE|DICT|INTERRES
    91   44  169 1    
    92   45   46 2    
    93   45   47 1    
    94   47   48 1    
    95   47   49 1    
    96   47  170 1    
    97   48  171 1    
    98   48  172 1    
    99   48  173 1    
   100   49   50 am   BACKBONE|DICT|INTERRES
   101   49  174 1    
   102   50   51 2    
   103   50   52 1    
   104   52   53 1    
   105   52   54 1    
   106   52  175 1    
   107   53  176 1    
   108   53  177 1    
   109   53  178 1    
   110   54   55 am   BACKBONE|DICT|INTERRES
   111   54  179 1    
   112   55   56 2    
   113   55   57 1    
   114   57   58 1    
   115   57   59 1    
   116   57  180 1    
   117   58  181 1    
   118   58  182 1    
   119   58  183 1    
   120   59   60 am   BACKBONE|DICT|INTERRES
   121   59  184 1    
   122   60   61 2    
   123   60   62 1    
   124   62   63 1    
   125   62   64 1    
   126   62  185 1    
   127   63  186 1    
   128   63  187 1    
   129   63  188 1    
   130   64   65 am   BACKBONE|DICT|INTERRES
   131   64  189 1    
   132   65   66 2    
   133   67   68 2    
   134   67   69 am   BACKBONE|DICT|INTERRES
   135   69   70 1    
   136   69  190 1    
   137   70   71 1    
   138   70   72 1    
   139   70  191 1    
   140   71  192 1    
   141   71  193 1    
   142   71  194 1    
   143   72   73 2    
   144   72   74 am   BACKBONE|DICT|INTERRES
   145   74   75 1    
   146   74  195 1    
   147   75   76 1    
   148   75   77 1    
   149   75  196 1    
   150   76  197 1    
   151   76  198 1    
   152   76  199 1    
   153   77   78 2    
   154   77   79 am   BACKBONE|DICT|INTERRES
   155   79   80 1    
   156   79  200 1    
   157   80   81 1    
   158   80   82 1    
   159   80  201 1    
   160   81  202 1    
   161   81  203 1    
   162   81  204 1    
   163   82   83 2    
   164   82   84 am   BACKBONE|DICT|INTERRES
   165   84   85 1    
   166   84  205 1    
   167   85   86 1    
   168   85   87 1    
   169   85  206 1    
   170   86  207 1    
   171   86  208 1    
   172   86  209 1    
   173   87   88 2    
   174   87   89 am   BACKBONE|DICT|INTERRES
   175   89   90 1    
   176   89  210 1    
   177   90   91 1    
   178   90   92 1    
   179   90  211 1    
   180   91  212 1    
   181   91  213 1    
   182   91  214 1    
   183   92   93 2    
   184   92   94 am   BACKBONE|DICT|INTERRES
   185   94   95 1    
   186   94  215 1    
   187   95   96 1    
   188   95   97 1    
   189   95  216 1    
   190   96  217 1    
   191   96  218 1    
   192   96  219 1    
   193   97   98 2    
   194   97   99 am   BACKBONE|DICT|INTERRES
   195   99  100 1    
   196   99  220 1    
   197  100  101 1    
   198  100  102 1    
   199  100  221 1    
   200  101  222 1    
   201  101  223 1    
   202  101  224 1    
   203  102  103 2    
   204  102  104 am   BACKBONE|DICT|INTERRES
   205  104  105 1    
   206  104  225 1    
   207  105  106 1    
   208  105  107 1    
   209  105  226 1    
   210  106  227 1    
   211  106  228 1    
   212  106  229 1    
   213  107  108 2    
   214  107  109 am   BACKBONE|DICT|INTERRES
   215  109  110 1    
   216  109  230 1    
   217  110  111 1    
   218  110  112 1    
   219  110  231 1    
   220  111  232 1    
   221  111  233 1    
   222  111  234 1    
   223  112  113 2    
   224  112  114 am   BACKBONE|DICT|INTERRES
   225  114  115 1    
   226  114  235 1    
   227  115  116 1    
   228  115  117 1    
   229  115  236 1    
   230  116  237 1    
   231  116  238 1    
   232  116  239 1    
   233  117  118 2    
   234  117  119 am   BACKBONE|DICT|INTERRES
   235  119  120 1    
   236  119  240 1    
   237  120  121 1    
   238  120  124 1    
   239  120  241 1    
   240  121  122 am   BACKBONE|DICT|INTERRES
   241  121  123 2    
   242  122  242 1    
   243  122  243 1    
   244  124  125 1    
   245  124  244 1    
   246  124  245 1    
   247  125  126 1    
   248  126  246 1    
   249  126  247 1    
@<TRIPOS>SUBSTRUCTURE
     1 UNK         1 GROUP             0       ****    0 ROOT    
