@<TRIPOS>MOLECULE
3R540
247   249    1
SMALL
USER_CHARGES


@<TRIPOS>ATOM
      1 CA         -1.0114  -11.5208  -50.3042 C.3       0 UNK        -0.1800 
      2 C          -0.1719  -12.4274  -49.4167 C.2       0 UNK         0.5000 
      3 O          -0.4737  -12.5749  -48.2334 O.2       0 UNK        -0.5000 
      4 N           0.8680  -13.0509  -49.9860 N.am      1 UNK        -0.5000 
      5 CA          1.8081  -13.9607  -49.3125 C.3       1 UNK         0.1400 
      6 C6          2.9857  -14.3681  -50.2319 C.3       23 UNK        -0.0398 
      7 S7          2.4748  -14.9730  -51.8821 S.3       23 UNK        -0.2404 
      8 C8          3.3367  -16.5701  -51.9966 C.3       23 UNK        -0.0205 
      9 C9          2.4861  -17.7275  -51.4950 C.ar      23 UNK        -0.0193 
     10 C10         1.5442  -18.3131  -52.3448 C.ar      23 UNK        -0.1150 
     11 C11         0.8116  -19.4316  -51.9379 C.ar      23 UNK        -0.0193 
     12 C12         1.0319  -19.9673  -50.6635 C.ar      23 UNK        -0.1150 
     13 C13         1.9852  -19.4015  -49.8092 C.ar      23 UNK        -0.0193 
     14 C14         2.6932  -18.2682  -50.2231 C.ar      23 UNK        -0.1150 
     15 C15         2.3404  -20.0743  -48.4898 C.3       23 UNK        -0.0205 
     16 S16         1.4410  -19.3959  -47.0613 S.3       23 UNK        -0.2404 
     17 C17        -0.0981  -20.3766  -47.0519 C.3       23 UNK        -0.0398 
     18 CA          0.0895  -21.8432  -46.5843 C.3       11 UNK         0.1400 
     19 N           0.8095  -21.9742  -45.3130 N.am      11 UNK        -0.5000 
     20 C           1.2748  -23.1360  -44.8306 C.2       10 UNK         0.5000 
     21 O           1.1810  -24.2071  -45.4279 O.2       10 UNK        -0.5000 
     22 CA          1.8999  -23.1133  -43.4270 C.3       10 UNK         0.1400 
     23 CB          3.3817  -22.7125  -43.4856 C.3       10 UNK        -0.1800 
     24 N           1.1711  -22.2136  -42.5352 N.am      10 UNK        -0.5000 
     25 C          -0.0315  -22.4888  -42.0115 C.2       9 UNK         0.5000 
     26 O          -0.6186  -23.5589  -42.1770 O.2       9 UNK        -0.5000 
     27 CA         -0.7087  -21.3645  -41.2046 C.3       9 UNK         0.1400 
     28 CB         -0.2175  -21.3683  -39.7497 C.3       9 UNK        -0.1800 
     29 N          -0.4878  -20.0403  -41.7889 N.am      9 UNK        -0.5000 
     30 C          -0.9882  -19.6475  -42.9696 C.2       8 UNK         0.5000 
     31 O          -1.7258  -20.3484  -43.6589 O.2       8 UNK        -0.5000 
     32 CA         -0.5703  -18.2620  -43.4963 C.3       8 UNK         0.1400 
     33 CB         -1.5904  -17.2064  -43.0480 C.3       8 UNK        -0.1800 
     34 N           0.7764  -17.8376  -43.1046 N.am      8 UNK        -0.5000 
     35 C           1.9035  -18.5383  -43.3010 C.2       7 UNK         0.5000 
     36 O           1.9318  -19.6586  -43.8076 O.2       7 UNK        -0.5000 
     37 CA          3.2161  -17.9153  -42.7971 C.3       7 UNK         0.1400 
     38 CB          3.8253  -17.0062  -43.8730 C.3       7 UNK        -0.1800 
     39 N           3.0655  -17.1577  -41.5548 N.am      7 UNK        -0.5000 
     40 C           2.6389  -17.6397  -40.3808 C.2       6 UNK         0.5000 
     41 O           2.3091  -18.8137  -40.2077 O.2       6 UNK        -0.5000 
     42 CA          2.5295  -16.6453  -39.2058 C.3       6 UNK         0.1400 
     43 CB          3.8788  -16.4881  -38.4791 C.3       6 UNK        -0.1800 
     44 N           1.9488  -15.3427  -39.5665 N.am      6 UNK        -0.5000 
     45 C           2.4512  -14.3844  -40.3574 C.2       5 UNK         0.5000 
     46 O           3.5676  -14.4261  -40.8801 O.2       5 UNK        -0.5000 
     47 CA          1.5205  -13.1929  -40.6493 C.3       5 UNK         0.1400 
     48 CB          2.0002  -11.9369  -39.9060 C.3       5 UNK        -0.1800 
     49 N           1.4122  -12.8941  -42.0802 N.am      5 UNK        -0.5000 
     50 C           1.0427  -13.7607  -43.0338 C.2       4 UNK         0.5000 
     51 O           0.7923  -14.9503  -42.8245 O.2       4 UNK        -0.5000 
     52 CA          0.9499  -13.1967  -44.4647 C.3       4 UNK         0.1400 
     53 CB          2.2970  -13.3147  -45.1920 C.3       4 UNK        -0.1800 
     54 N          -0.0834  -13.8645  -45.2575 N.am      4 UNK        -0.5000 
     55 C          -1.4017  -13.7468  -45.0399 C.2       3 UNK         0.5000 
     56 O          -1.8763  -13.0317  -44.1554 O.2       3 UNK        -0.5000 
     57 CA         -2.3560  -14.5417  -45.9549 C.3       3 UNK         0.1400 
     58 CB         -3.5226  -13.6663  -46.4462 C.3       3 UNK        -0.1800 
     59 N          -1.6679  -15.0835  -47.1252 N.am      3 UNK        -0.5000 
     60 C          -1.5466  -16.3819  -47.4335 C.2       2 UNK         0.5000 
     61 O          -1.9899  -17.2934  -46.7356 O.2       2 UNK        -0.5000 
     62 CA         -0.8199  -16.7276  -48.7515 C.3       2 UNK         0.1400 
     63 CB         -1.8329  -17.1061  -49.8401 C.3       2 UNK        -0.1800 
     64 N           0.0249  -15.6491  -49.2630 N.am      2 UNK        -0.5000 
     65 C           1.1355  -15.1923  -48.6702 C.2       1 UNK         0.5000 
     66 O           1.5961  -15.6586  -47.6288 O.2       1 UNK        -0.5000 
     67 C          -1.2517  -22.6081  -46.5576 C.2       11 UNK         0.5000 
     68 O          -1.5636  -23.3061  -47.5193 O.2       11 UNK        -0.5000 
     69 N          -1.9880  -22.5252  -45.4394 N.am      12 UNK        -0.5000 
     70 CA         -3.2196  -23.2789  -45.1977 C.3       12 UNK         0.1400 
     71 CB         -3.8669  -22.8147  -43.8851 C.3       12 UNK        -0.1800 
     72 C          -3.0022  -24.8032  -45.1895 C.2       12 UNK         0.5000 
     73 O          -3.8122  -25.5335  -45.7633 O.2       12 UNK        -0.5000 
     74 N          -1.8990  -25.2537  -44.5739 N.am      13 UNK        -0.5000 
     75 CA         -1.4705  -26.6539  -44.5777 C.3       13 UNK         0.1400 
     76 CB         -0.3180  -26.8451  -43.5806 C.3       13 UNK        -0.1800 
     77 C          -1.0752  -27.1457  -45.9841 C.2       13 UNK         0.5000 
     78 O          -1.3993  -28.2772  -46.3478 O.2       13 UNK        -0.5000 
     79 N          -0.4322  -26.2736  -46.7713 N.am      14 UNK        -0.5000 
     80 CA         -0.0537  -26.4834  -48.1696 C.3       14 UNK         0.1400 
     81 CB          1.1086  -25.5349  -48.5153 C.3       14 UNK        -0.1800 
     82 C          -1.2505  -26.3390  -49.1388 C.2       14 UNK         0.5000 
     83 O          -1.1880  -25.5583  -50.0902 O.2       14 UNK        -0.5000 
     84 N          -2.3071  -27.1249  -48.8887 N.am      15 UNK        -0.5000 
     85 CA         -3.5340  -27.2571  -49.6794 C.3       15 UNK         0.1400 
     86 CB         -3.2295  -27.8802  -51.0584 C.3       15 UNK        -0.1800 
     87 C          -4.3466  -25.9487  -49.7718 C.2       15 UNK         0.5000 
     88 O          -4.6560  -25.4829  -50.8706 O.2       15 UNK        -0.5000 
     89 N          -4.6904  -25.3890  -48.6038 N.am      16 UNK        -0.5000 
     90 CA         -5.5832  -24.2475  -48.3561 C.3       16 UNK         0.1400 
     91 CB         -6.9914  -24.4952  -48.9318 C.3       16 UNK        -0.1800 
     92 C          -5.0468  -22.8688  -48.7874 C.2       16 UNK         0.5000 
     93 O          -5.2780  -21.9019  -48.0613 O.2       16 UNK        -0.5000 
     94 N          -4.3540  -22.7998  -49.9328 N.am      17 UNK        -0.5000 
     95 CA         -3.7448  -21.6099  -50.5369 C.3       17 UNK         0.1400 
     96 CB         -2.5399  -21.1393  -49.7025 C.3       17 UNK        -0.1800 
     97 C          -4.7696  -20.4875  -50.7957 C.2       17 UNK         0.5000 
     98 O          -4.6902  -19.4108  -50.2005 O.2       17 UNK        -0.5000 
     99 N          -5.7421  -20.7813  -51.6686 N.am      18 UNK        -0.5000 
    100 CA        -6.7625  -19.8344  -52.1159 C.3       18 UNK         0.1400 
    101 CB        -7.7893  -20.5794  -52.9826 C.3       18 UNK        -0.1800 
    102 C         -6.1483  -18.6654  -52.9077 C.2       18 UNK         0.5000 
    103 O         -5.2550  -18.8860  -53.7284 O.2       18 UNK        -0.5000 
    104 N         -6.6756  -17.4529  -52.6972 N.am      19 UNK        -0.5000 
    105 CA        -6.2145  -16.2158  -53.3392 C.3       19 UNK         0.1400 
    106 CB        -6.9365  -15.0218  -52.6961 C.3       19 UNK        -0.1800 
    107 C         -6.3904  -16.1924  -54.8720 C.2       19 UNK         0.5000 
    108 O         -5.6872  -15.4446  -55.5504 O.2       19 UNK        -0.5000 
    109 N         -7.3130  -17.0147  -55.3889 N.am      20 UNK        -0.5000 
    110 CA        -7.5209  -17.2361  -56.8194 C.3       20 UNK         0.1400 
    111 CB        -8.9402  -17.7861  -57.0309 C.3       20 UNK        -0.1800 
    112 C         -6.4790  -18.1911  -57.4381 C.2       20 UNK         0.5000 
    113 O         -6.2802  -18.1501  -58.6531 O.2       20 UNK        -0.5000 
    114 N         -5.8530  -19.0418  -56.6124 N.am      21 UNK        -0.5000 
    115 CA        -4.8538  -20.0230  -57.0316 C.3       21 UNK         0.1400 
    116 CB        -5.0303  -21.3131  -56.2128 C.3       21 UNK        -0.1800 
    117 C         -3.4300  -19.4671  -56.8750 C.2       21 UNK         0.5000 
    118 O         -2.6214  -19.6057  -57.7941 O.2       21 UNK        -0.5000 
    119 N         -3.1481  -18.8564  -55.7178 N.am      22 UNK        -0.5000 
    120 CA        -1.8545  -18.2412  -55.3887 C.3       22 UNK         0.1400 
    121 C         -1.5682  -16.9567  -56.2147 C.2       22 UNK         0.5000 
    122 N         -0.3164  -16.7149  -56.5806 N.am      22 UNK        -0.7600 
    123 O         -2.4576  -16.1571  -56.4937 O.2       22 UNK        -0.5000 
    124 C124       -1.7264  -17.9540  -53.8716 C.3       23 UNK        -0.0398 
    125 S125       -1.8356  -19.4697  -52.8625 S.3       23 UNK        -0.2404 
    126 C126       -0.1359  -20.1215  -52.9124 C.3       23 UNK        -0.0205 
    127 H127       -0.9999  -10.5024  -49.9160 H         1 UNK         0.0600 
    128 H128       -2.0445  -11.8680  -50.3231 H         1 UNK         0.0600 
    129 H129       -0.6401  -11.4993  -51.3291 H         1 UNK         0.0600 
    130 H130        1.0506  -12.9060  -50.9694 H         1 UNK         0.3000 
    131 H131        2.2361  -13.3928  -48.4844 H         1 UNK         0.0600 
    132 H132        3.6232  -15.1025  -49.7362 H         1 UNK         0.0800 
    133 H133        3.6246  -13.4991  -50.3943 H         1 UNK         0.0800 
    134 H134        4.2895  -16.5284  -51.4667 H         1 UNK         0.0800 
    135 H135        3.5917  -16.7456  -53.0428 H         1 UNK         0.0800 
    136 H136        1.4126  -17.9164  -53.3410 H         1 UNK         0.1150 
    137 H137        0.4990  -20.8563  -50.3577 H         1 UNK         0.1150 
    138 H138        3.4406  -17.8374  -49.5716 H         1 UNK         0.1150 
    139 H139        2.1880  -21.1508  -48.5622 H         1 UNK         0.0800 
    140 H140        3.4076  -19.9468  -48.3027 H         1 UNK         0.0800 
    141 H141       -0.5173  -20.3443  -48.0562 H         1 UNK         0.0800 
    142 H142       -0.8151  -19.8634  -46.4096 H         1 UNK         0.0800 
    143 H143        0.7031  -22.3425  -47.3351 H         1 UNK         0.0600 
    144 H144        0.9881  -21.1210  -44.7919 H         1 UNK         0.3000 
    145 H145        1.8431  -24.1245  -43.0181 H         1 UNK         0.0600 
    146 H146        3.8280  -22.7049  -42.4911 H         1 UNK         0.0600 
    147 H147        3.9490  -23.4200  -44.0915 H         1 UNK         0.0600 
    148 H148        3.5221  -21.7247  -43.9242 H         1 UNK         0.0600 
    149 H149        1.5450  -21.2781  -42.4367 H         1 UNK         0.3000 
    150 H150       -1.7834  -21.5587  -41.2017 H         1 UNK         0.0600 
    151 H151       -0.3986  -22.3357  -39.2796 H         1 UNK         0.0600 
    152 H152       -0.7367  -20.6159  -39.1559 H         1 UNK         0.0600 
    153 H153        0.8525  -21.1667  -39.6851 H         1 UNK         0.0600 
    154 H154        0.1450  -19.4225  -41.2987 H         1 UNK         0.3000 
    155 H155       -0.5844  -18.3091  -44.5861 H         1 UNK         0.0600 
    156 H156       -1.5738  -17.0634  -41.9670 H         1 UNK         0.0600 
    157 H157       -2.6039  -17.4947  -43.3307 H         1 UNK         0.0600 
    158 H158       -1.3895  -16.2453  -43.5160 H         1 UNK         0.0600 
    159 H159        0.8573  -16.8918  -42.7408 H         1 UNK         0.3000 
    160 H160        3.9135  -18.7326  -42.6030 H         1 UNK         0.0600 
    161 H161        3.1900  -16.1423  -44.0650 H         1 UNK         0.0600 
    162 H162        3.9477  -17.5411  -44.8161 H         1 UNK         0.0600 
    163 H163        4.8076  -16.6411  -43.5732 H         1 UNK         0.0600 
    164 H164        3.3081  -16.1715  -41.5862 H         1 UNK         0.3000 
    165 H165        1.8304  -17.0872  -38.4940 H         1 UNK         0.0600 
    166 H166        4.6536  -16.0870  -39.1328 H         1 UNK         0.0600 
    167 H167        3.7885  -15.8250  -37.6188 H         1 UNK         0.0600 
    168 H168        4.2339  -17.4515  -38.1112 H         1 UNK         0.0600 
    169 H169        1.0091  -15.2041  -39.2210 H         1 UNK         0.3000 
    170 H170        0.5166  -13.4363  -40.2956 H         1 UNK         0.0600 
    171 H171        2.9850  -11.6181  -40.2503 H         1 UNK         0.0600 
    172 H172        1.3092  -11.1055  -40.0462 H         1 UNK         0.0600 
    173 H173        2.0717  -12.1212  -38.8333 H         1 UNK         0.0600 
    174 H174        1.6321  -11.9464  -42.3487 H         1 UNK         0.3000 
    175 H175        0.6903  -12.1380  -44.3988 H         1 UNK         0.0600 
    176 H176        3.1045  -12.8770  -44.6038 H         1 UNK         0.0600 
    177 H177        2.2703  -12.7896  -46.1464 H         1 UNK         0.0600 
    178 H178        2.5589  -14.3536  -45.3902 H         1 UNK         0.0600 
    179 H179        0.2354  -14.4995  -45.9761 H         1 UNK         0.3000 
    180 H180       -2.7715  -15.3481  -45.3482 H         1 UNK         0.0600 
    181 H181       -4.2020  -14.2362  -47.0802 H         1 UNK         0.0600 
    182 H182       -3.1656  -12.8109  -47.0212 H         1 UNK         0.0600 
    183 H183       -4.1085  -13.2816  -45.6106 H         1 UNK         0.0600 
    184 H184       -1.2408  -14.3895  -47.7306 H         1 UNK         0.3000 
    185 H185       -0.1845  -17.5928  -48.5650 H         1 UNK         0.0600 
    186 H186       -1.3257  -17.4336  -50.7470 H         1 UNK         0.0600 
    187 H187       -2.4713  -17.9261  -49.5105 H         1 UNK         0.0600 
    188 H188       -2.4823  -16.2692  -50.0987 H         1 UNK         0.0600 
    189 H189       -0.2766  -15.2013  -50.1157 H         1 UNK         0.3000 
    190 H190       -1.7083  -21.8739  -44.7094 H         1 UNK         0.3000 
    191 H191       -3.9079  -23.0478  -46.0103 H         1 UNK         0.0600 
    192 H192       -4.7887  -23.3634  -43.6878 H         1 UNK         0.0600 
    193 H193       -4.1228  -21.7558  -43.9263 H         1 UNK         0.0600 
    194 H194       -3.2042  -22.9660  -43.0327 H         1 UNK         0.0600 
    195 H195       -1.3003  -24.5922  -44.0956 H         1 UNK         0.3000 
    196 H196       -2.3125  -27.2614  -44.2396 H         1 UNK         0.0600 
    197 H197        0.5625  -26.2681  -43.8620 H         1 UNK         0.0600 
    198 H198       -0.6108  -26.5385  -42.5761 H         1 UNK         0.0600 
    199 H199       -0.0194  -27.8927  -43.5276 H         1 UNK         0.0600 
    200 H200       -0.1833  -25.3716  -46.3790 H         1 UNK         0.3000 
    201 H201        0.3175  -27.5048  -48.2748 H         1 UNK         0.0600 
    202 H202        1.4723  -25.7123  -49.5280 H         1 UNK         0.0600 
    203 H203        0.8046  -24.4901  -48.4532 H         1 UNK         0.0600 
    204 H204        1.9508  -25.6787  -47.8381 H         1 UNK         0.0600 
    205 H205       -2.2477  -27.7120  -48.0624 H         1 UNK         0.3000 
    206 H206       -4.1652  -27.9649  -49.1402 H         1 UNK         0.0600 
    207 H207       -2.6999  -28.8272  -50.9549 H         1 UNK         0.0600 
    208 H208       -4.1508  -28.0828  -51.6059 H         1 UNK         0.0600 
    209 H209       -2.6208  -27.2216  -51.6786 H         1 UNK         0.0600 
    210 H210       -4.3076  -25.7943  -47.7554 H         1 UNK         0.3000 
    211 H211       -5.6922  -24.2052  -47.2717 H         1 UNK         0.0600 
    212 H212       -7.4067  -25.4355  -48.5691 H         1 UNK         0.0600 
    213 H213       -6.9896  -24.5256  -50.0216 H         1 UNK         0.0600 
    214 H214       -7.6768  -23.7011  -48.6328 H         1 UNK         0.0600 
    215 H215       -4.2609  -23.6666  -50.4554 H         1 UNK         0.3000 
    216 H216       -3.3645  -21.9131  -51.5135 H         1 UNK         0.0600 
    217 H217       -2.0956  -20.2350  -50.1151 H         1 UNK         0.0600 
    218 H218       -1.7604  -21.9000  -49.6921 H         1 UNK         0.0600 
    219 H219       -2.8208  -20.9184  -48.6728 H         1 UNK         0.0600 
    220 H220       -5.7368  -21.6854  -52.1165 H         1 UNK         0.3000 
    221 H221       -7.2688  -19.4399  -51.2325 H         1 UNK         0.0600 
    222 H222       -8.2591  -21.3915  -52.4275 H         1 UNK         0.0600 
    223 H223       -7.3299  -21.0053  -53.8759 H         1 UNK         0.0600 
    224 H224       -8.5851  -19.9096  -53.3108 H         1 UNK         0.0600 
    225 H225       -7.4183  -17.3531  -52.0201 H         1 UNK         0.3000 
    226 H226       -5.1456  -16.1180  -53.1374 H         1 UNK         0.0600 
    227 H227       -6.7428  -14.9735  -51.6243 H         1 UNK         0.0600 
    228 H228       -6.5963  -14.0796  -53.1282 H         1 UNK         0.0600 
    229 H229       -8.0160  -15.0788  -52.8416 H         1 UNK         0.0600 
    230 H230       -7.8655  -17.5730  -54.7557 H         1 UNK         0.3000 
    231 H231       -7.4453  -16.2795  -57.3410 H         1 UNK         0.0600 
    232 H232       -9.0803  -18.7439  -56.5281 H         1 UNK         0.0600 
    233 H233       -9.1462  -17.9388  -58.0912 H         1 UNK         0.0600 
    234 H234       -9.6922  -17.0937  -56.6519 H         1 UNK         0.0600 
    235 H235       -6.0023  -18.9589  -55.6142 H         1 UNK         0.3000 
    236 H236       -5.0020  -20.2775  -58.0833 H         1 UNK         0.0600 
    237 H237       -6.0281  -21.7307  -56.3475 H         1 UNK         0.0600 
    238 H238       -4.3142  -22.0733  -56.5272 H         1 UNK         0.0600 
    239 H239       -4.8798  -21.1449  -55.1460 H         1 UNK         0.0600 
    240 H240       -3.8651  -18.8042  -54.9993 H         1 UNK         0.3000 
    241 H241       -1.0850  -18.9690  -55.6530 H         1 UNK         0.0600 
    242 H242        0.4336  -17.3543  -56.3689 H         1 UNK         0.3800 
    243 H243       -0.1156  -15.8775  -57.1052 H         1 UNK         0.3800 
    244 H244       -2.5234  -17.2812  -53.5500 H         1 UNK         0.0800 
    245 H245       -0.7938  -17.4395  -53.6430 H         1 UNK         0.0800 
    246 H246        0.2553  -20.0548  -53.9283 H         1 UNK         0.0800 
    247 H247       -0.1763  -21.1871  -52.6822 H         1 UNK         0.0800 
@<TRIPOS>BOND
     1    1    2 1    
     2    1  127 1    
     3    1  128 1    
     4    1  129 1    
     5    2    3 2    
     6    2    4 am   BACKBONE|DICT|INTERRES
     7    4    5 1    
     8    4  130 1    
     9    5    6 1    
    10    5   65 1    
    11    5  131 1    
    12    6    7 1    
    13    6  132 1    
    14    6  133 1    
    15    7    8 1    
    16    8    9 1    
    17    8  134 1    
    18    8  135 1    
    19    9   10 ar   
    20    9   14 ar   
    21   10   11 ar   
    22   10  136 1    
    23   11   12 ar   
    24   11  126 1    
    25   12   13 ar   
    26   12  137 1    
    27   13   14 ar   
    28   13   15 1    
    29   14  138 1    
    30   15   16 1    
    31   15  139 1    
    32   15  140 1    
    33   16   17 1    
    34   17   18 1    
    35   17  141 1    
    36   17  142 1    
    37   18   19 1    
    38   18   67 1    
    39   18  143 1    
    40   19   20 am   BACKBONE|DICT|INTERRES
    41   19  144 1    
    42   20   21 2    
    43   20   22 1    
    44   22   23 1    
    45   22   24 1    
    46   22  145 1    
    47   23  146 1    
    48   23  147 1    
    49   23  148 1    
    50   24   25 am   BACKBONE|DICT|INTERRES
    51   24  149 1    
    52   25   26 2    
    53   25   27 1    
    54   27   28 1    
    55   27   29 1    
    56   27  150 1    
    57   28  151 1    
    58   28  152 1    
    59   28  153 1    
    60   29   30 am   BACKBONE|DICT|INTERRES
    61   29  154 1    
    62   30   31 2    
    63   30   32 1    
    64   32   33 1    
    65   32   34 1    
    66   32  155 1    
    67   33  156 1    
    68   33  157 1    
    69   33  158 1    
    70   34   35 am   BACKBONE|DICT|INTERRES
    71   34  159 1    
    72   35   36 2    
    73   35   37 1    
    74   37   38 1    
    75   37   39 1    
    76   37  160 1    
    77   38  161 1    
    78   38  162 1    
    79   38  163 1    
    80   39   40 am   BACKBONE|DICT|INTERRES
    81   39  164 1    
    82   40   41 2    
    83   40   42 1    
    84   42   43 1    
    85   42   44 1    
    86   42  165 1    
    87   43  166 1    
    88   43  167 1    
    89   43  168 1    
    90   44   45 am   BACKBONE|DICT|INTERRES
    91   44  169 1    
    92   45   46 2    
    93   45   47 1    
    94   47   48 1    
    95   47   49 1    
    96   47  170 1    
    97   48  171 1    
    98   48  172 1    
    99   48  173 1    
   100   49   50 am   BACKBONE|DICT|INTERRES
   101   49  174 1    
   102   50   51 2    
   103   50   52 1    
   104   52   53 1    
   105   52   54 1    
   106   52  175 1    
   107   53  176 1    
   108   53  177 1    
   109   53  178 1    
   110   54   55 am   BACKBONE|DICT|INTERRES
   111   54  179 1    
   112   55   56 2    
   113   55   57 1    
   114   57   58 1    
   115   57   59 1    
   116   57  180 1    
   117   58  181 1    
   118   58  182 1    
   119   58  183 1    
   120   59   60 am   BACKBONE|DICT|INTERRES
   121   59  184 1    
   122   60   61 2    
   123   60   62 1    
   124   62   63 1    
   125   62   64 1    
   126   62  185 1    
   127   63  186 1    
   128   63  187 1    
   129   63  188 1    
   130   64   65 am   BACKBONE|DICT|INTERRES
   131   64  189 1    
   132   65   66 2    
   133   67   68 2    
   134   67   69 am   BACKBONE|DICT|INTERRES
   135   69   70 1    
   136   69  190 1    
   137   70   71 1    
   138   70   72 1    
   139   70  191 1    
   140   71  192 1    
   141   71  193 1    
   142   71  194 1    
   143   72   73 2    
   144   72   74 am   BACKBONE|DICT|INTERRES
   145   74   75 1    
   146   74  195 1    
   147   75   76 1    
   148   75   77 1    
   149   75  196 1    
   150   76  197 1    
   151   76  198 1    
   152   76  199 1    
   153   77   78 2    
   154   77   79 am   BACKBONE|DICT|INTERRES
   155   79   80 1    
   156   79  200 1    
   157   80   81 1    
   158   80   82 1    
   159   80  201 1    
   160   81  202 1    
   161   81  203 1    
   162   81  204 1    
   163   82   83 2    
   164   82   84 am   BACKBONE|DICT|INTERRES
   165   84   85 1    
   166   84  205 1    
   167   85   86 1    
   168   85   87 1    
   169   85  206 1    
   170   86  207 1    
   171   86  208 1    
   172   86  209 1    
   173   87   88 2    
   174   87   89 am   BACKBONE|DICT|INTERRES
   175   89   90 1    
   176   89  210 1    
   177   90   91 1    
   178   90   92 1    
   179   90  211 1    
   180   91  212 1    
   181   91  213 1    
   182   91  214 1    
   183   92   93 2    
   184   92   94 am   BACKBONE|DICT|INTERRES
   185   94   95 1    
   186   94  215 1    
   187   95   96 1    
   188   95   97 1    
   189   95  216 1    
   190   96  217 1    
   191   96  218 1    
   192   96  219 1    
   193   97   98 2    
   194   97   99 am   BACKBONE|DICT|INTERRES
   195   99  100 1    
   196   99  220 1    
   197  100  101 1    
   198  100  102 1    
   199  100  221 1    
   200  101  222 1    
   201  101  223 1    
   202  101  224 1    
   203  102  103 2    
   204  102  104 am   BACKBONE|DICT|INTERRES
   205  104  105 1    
   206  104  225 1    
   207  105  106 1    
   208  105  107 1    
   209  105  226 1    
   210  106  227 1    
   211  106  228 1    
   212  106  229 1    
   213  107  108 2    
   214  107  109 am   BACKBONE|DICT|INTERRES
   215  109  110 1    
   216  109  230 1    
   217  110  111 1    
   218  110  112 1    
   219  110  231 1    
   220  111  232 1    
   221  111  233 1    
   222  111  234 1    
   223  112  113 2    
   224  112  114 am   BACKBONE|DICT|INTERRES
   225  114  115 1    
   226  114  235 1    
   227  115  116 1    
   228  115  117 1    
   229  115  236 1    
   230  116  237 1    
   231  116  238 1    
   232  116  239 1    
   233  117  118 2    
   234  117  119 am   BACKBONE|DICT|INTERRES
   235  119  120 1    
   236  119  240 1    
   237  120  121 1    
   238  120  124 1    
   239  120  241 1    
   240  121  122 am   BACKBONE|DICT|INTERRES
   241  121  123 2    
   242  122  242 1    
   243  122  243 1    
   244  124  125 1    
   245  124  244 1    
   246  124  245 1    
   247  125  126 1    
   248  126  246 1    
   249  126  247 1    
@<TRIPOS>SUBSTRUCTURE
     1 UNK         1 GROUP             0       ****    0 ROOT    
