@<TRIPOS>MOLECULE
3R540
247   249    1
SMALL
USER_CHARGES


@<TRIPOS>ATOM
      1 CA         -0.3616   -9.9562  -50.3562 C.3       0 UNK        -0.1800 
      2 C           0.3790  -11.2293  -49.9724 C.2       0 UNK         0.5000 
      3 O           1.6010  -11.2069  -49.8261 O.2       0 UNK        -0.5000 
      4 N          -0.3559  -12.3370  -49.8097 N.am      1 UNK        -0.5000 
      5 CA          0.1756  -13.6591  -49.4464 C.3       1 UNK         0.1400 
      6 C6         -0.8746  -14.7844  -49.6300 C.3       23 UNK        -0.0398 
      7 S7         -1.6682  -14.7903  -51.2743 S.3       23 UNK        -0.2404 
      8 C8         -0.9200  -16.2513  -52.0674 C.3       23 UNK        -0.0205 
      9 C9         -1.1990  -17.5663  -51.3440 C.ar      23 UNK        -0.0193 
     10 C10        -2.4847  -17.8878  -50.8947 C.ar      23 UNK        -0.1150 
     11 C11        -2.7342  -19.1050  -50.2571 C.ar      23 UNK        -0.0193 
     12 C12        -1.6865  -20.0077  -50.0643 C.ar      23 UNK        -0.1150 
     13 C13        -0.3975  -19.7033  -50.5098 C.ar      23 UNK        -0.0193 
     14 C14        -0.1610  -18.4832  -51.1496 C.ar      23 UNK        -0.1150 
     15 C15         0.7277  -20.7129  -50.3433 C.3       23 UNK        -0.0205 
     16 S16         1.9392  -20.2332  -49.0701 S.3       23 UNK        -0.2404 
     17 C17         0.9513  -20.1946  -47.5357 C.3       23 UNK        -0.0398 
     18 CA          0.7725  -21.5935  -46.8838 C.3       11 UNK         0.1400 
     19 N           0.9247  -21.5684  -45.4252 N.am      11 UNK        -0.5000 
     20 C           0.9539  -22.6594  -44.6441 C.2       10 UNK         0.5000 
     21 O           0.8975  -23.8114  -45.0738 O.2       10 UNK        -0.5000 
     22 CA          1.0049  -22.4305  -43.1235 C.3       10 UNK         0.1400 
     23 CB          2.4346  -22.1077  -42.6649 C.3       10 UNK        -0.1800 
     24 N           0.0879  -21.3804  -42.6794 N.am      10 UNK        -0.5000 
     25 C          -1.2463  -21.4391  -42.8021 C.2       9 UNK         0.5000 
     26 O          -1.8485  -22.4051  -43.2691 O.2       9 UNK        -0.5000 
     27 CA         -2.0426  -20.1932  -42.3777 C.3       9 UNK         0.1400 
     28 CB         -2.2072  -20.1404  -40.8517 C.3       9 UNK        -0.1800 
     29 N          -1.4401  -18.9482  -42.8519 N.am      9 UNK        -0.5000 
     30 C          -1.2591  -18.6290  -44.1422 C.2       8 UNK         0.5000 
     31 O          -1.6007  -19.3415  -45.0868 O.2       8 UNK        -0.5000 
     32 CA         -0.5204  -17.3090  -44.4177 C.3       8 UNK         0.1400 
     33 CB         -1.4494  -16.1134  -44.1583 C.3       8 UNK        -0.1800 
     34 N           0.6943  -17.1770  -43.6111 N.am      8 UNK        -0.5000 
     35 C           1.7353  -18.0225  -43.6542 C.2       7 UNK         0.5000 
     36 O           1.8087  -18.9833  -44.4187 O.2       7 UNK        -0.5000 
     37 CA          2.8573  -17.7932  -42.6289 C.3       7 UNK         0.1400 
     38 CB          3.8108  -16.6798  -43.0896 C.3       7 UNK        -0.1800 
     39 N           2.3256  -17.4851  -41.3012 N.am      7 UNK        -0.5000 
     40 C           1.6529  -18.3585  -40.5370 C.2       6 UNK         0.5000 
     41 O           1.4399  -19.5268  -40.8583 O.2       6 UNK        -0.5000 
     42 CA          1.0896  -17.8249  -39.2080 C.3       6 UNK         0.1400 
     43 CB          2.1580  -17.8798  -38.1061 C.3       6 UNK        -0.1800 
     44 N           0.5836  -16.4574  -39.3259 N.am      6 UNK        -0.5000 
     45 C          -0.4894  -16.1057  -40.0487 C.2       5 UNK         0.5000 
     46 O          -1.1956  -16.9067  -40.6616 O.2       5 UNK        -0.5000 
     47 CA         -0.7784  -14.5954  -40.1470 C.3       5 UNK         0.1400 
     48 CB         -1.5844  -14.1151  -38.9311 C.3       5 UNK        -0.1800 
     49 N           0.4444  -13.7931  -40.2746 N.am      5 UNK        -0.5000 
     50 C           1.2745  -13.8684  -41.3215 C.2       4 UNK         0.5000 
     51 O           1.0786  -14.6109  -42.2903 O.2       4 UNK        -0.5000 
     52 CA          2.5482  -13.0104  -41.2742 C.3       4 UNK         0.1400 
     53 CB          3.6162  -13.6470  -40.3678 C.3       4 UNK        -0.1800 
     54 N           3.0344  -12.9307  -42.6416 N.am      4 UNK        -0.5000 
     55 C           3.8460  -12.0204  -43.1877 C.2       3 UNK         0.5000 
     56 O           4.4325  -11.1444  -42.5518 O.2       3 UNK        -0.5000 
     57 CA          3.9817  -12.0915  -44.7254 C.3       3 UNK         0.1400 
     58 CB          5.1816  -12.9653  -45.1213 C.3       3 UNK        -0.1800 
     59 N           2.7674  -12.6308  -45.3504 N.am      3 UNK        -0.5000 
     60 C           1.5905  -11.9916  -45.3691 C.2       2 UNK         0.5000 
     61 O           1.4566  -10.7953  -45.1046 O.2       2 UNK        -0.5000 
     62 CA          0.3590  -12.8530  -45.6890 C.3       2 UNK         0.1400 
     63 CB         -0.9004  -12.3536  -44.9585 C.3       2 UNK        -0.1800 
     64 N           0.0883  -12.8965  -47.1187 N.am      2 UNK        -0.5000 
     65 C           0.7047  -13.6981  -47.9963 C.2       1 UNK         0.5000 
     66 O           1.6220  -14.4634  -47.6960 O.2       1 UNK        -0.5000 
     67 C          -0.5690  -22.2310  -47.2933 C.2       11 UNK         0.5000 
     68 O          -0.5825  -23.1380  -48.1255 O.2       11 UNK        -0.5000 
     69 N          -1.6651  -21.7720  -46.6716 N.am      12 UNK        -0.5000 
     70 CA         -3.0192  -22.2785  -46.8901 C.3       12 UNK         0.1400 
     71 CB         -4.0229  -21.4265  -46.0997 C.3       12 UNK        -0.1800 
     72 C          -3.1667  -23.7688  -46.5410 C.2       12 UNK         0.5000 
     73 O          -3.7689  -24.5086  -47.3166 O.2       12 UNK        -0.5000 
     74 N          -2.5848  -24.1926  -45.4111 N.am      13 UNK        -0.5000 
     75 CA         -2.5561  -25.5880  -44.9724 C.3       13 UNK         0.1400 
     76 CB         -2.0027  -25.6660  -43.5415 C.3       13 UNK        -0.1800 
     77 C          -1.7503  -26.5001  -45.9159 C.2       13 UNK         0.5000 
     78 O          -2.1767  -27.6257  -46.1767 O.2       13 UNK        -0.5000 
     79 N          -0.6092  -26.0019  -46.4106 N.am      14 UNK        -0.5000 
     80 CA          0.2725  -26.7190  -47.3285 C.3       14 UNK         0.1400 
     81 CB          1.6436  -26.0257  -47.3718 C.3       14 UNK        -0.1800 
     82 C          -0.3162  -26.8475  -48.7439 C.2       14 UNK         0.5000 
     83 O          -0.3173  -27.9457  -49.3021 O.2       14 UNK        -0.5000 
     84 N          -0.7815  -25.7255  -49.3082 N.am      15 UNK        -0.5000 
     85 CA         -1.2396  -25.6455  -50.6952 C.3       15 UNK         0.1400 
     86 CB         -1.0637  -24.2070  -51.2003 C.3       15 UNK        -0.1800 
     87 C          -2.6954  -26.0947  -50.8964 C.2       15 UNK         0.5000 
     88 O          -3.0475  -26.4749  -52.0137 O.2       15 UNK        -0.5000 
     89 N          -3.5248  -25.9974  -49.8466 N.am      16 UNK        -0.5000 
     90 CA         -4.9779  -26.2219  -49.7954 C.3       16 UNK         0.1400 
     91 CB         -5.3566  -27.6538  -50.2210 C.3       16 UNK        -0.1800 
     92 C          -5.7958  -25.1642  -50.5661 C.2       16 UNK         0.5000 
     93 O          -6.7586  -24.6243  -50.0204 O.2       16 UNK        -0.5000 
     94 N          -5.3904  -24.8766  -51.8051 N.am      17 UNK        -0.5000 
     95 CA         -5.9560  -23.8777  -52.6993 C.3       17 UNK         0.1400 
     96 CB         -7.2367  -24.4220  -53.3615 C.3       17 UNK        -0.1800 
     97 C          -4.8638  -23.5188  -53.7158 C.2       17 UNK         0.5000 
     98 O          -4.7949  -24.1272  -54.7856 O.2       17 UNK        -0.5000 
     99 N          -3.9860  -22.5813  -53.3380 N.am      18 UNK        -0.5000 
    100 CA        -2.8943  -22.0861  -54.1742 C.3       18 UNK         0.1400 
    101 CB        -1.9573  -21.2111  -53.3280 C.3       18 UNK        -0.1800 
    102 C         -3.4282  -21.2645  -55.3566 C.2       18 UNK         0.5000 
    103 O         -4.2190  -20.3413  -55.1461 O.2       18 UNK        -0.5000 
    104 N         -2.9361  -21.5562  -56.5672 N.am      19 UNK        -0.5000 
    105 CA        -3.2876  -20.8562  -57.8106 C.3       19 UNK         0.1400 
    106 CB        -2.6168  -21.5754  -58.9912 C.3       19 UNK        -0.1800 
    107 C         -2.9275  -19.3544  -57.8159 C.2       19 UNK         0.5000 
    108 O         -3.4583  -18.6027  -58.6342 O.2       19 UNK        -0.5000 
    109 N         -2.0479  -18.9482  -56.8909 N.am      20 UNK        -0.5000 
    110 CA        -1.6691  -17.5679  -56.6135 C.3       20 UNK         0.1400 
    111 CB        -0.4900  -17.5728  -55.6279 C.3       20 UNK        -0.1800 
    112 C         -2.8225  -16.6977  -56.0731 C.2       20 UNK         0.5000 
    113 O         -2.8007  -15.4900  -56.3157 O.2       20 UNK        -0.5000 
    114 N         -3.8002  -17.2939  -55.3693 N.am      21 UNK        -0.5000 
    115 CA        -4.9539  -16.5724  -54.8294 C.3       21 UNK         0.1400 
    116 CB        -4.5482  -15.6632  -53.6508 C.3       21 UNK        -0.1800 
    117 C         -6.1034  -17.5108  -54.4337 C.2       21 UNK         0.5000 
    118 O         -7.1720  -17.4388  -55.0421 O.2       21 UNK        -0.5000 
    119 N         -5.8936  -18.3230  -53.3882 N.am      22 UNK        -0.5000 
    120 CA        -6.9533  -19.1029  -52.7199 C.3       22 UNK         0.1400 
    121 C         -7.5244  -20.3227  -53.5016 C.2       22 UNK         0.5000 
    122 N         -6.8974  -20.7852  -54.5724 N.am      22 UNK        -0.7600 
    123 O         -8.5759  -20.8439  -53.1406 O.2       22 UNK        -0.5000 
    124 C124       -6.5903  -19.4553  -51.2529 C.3       23 UNK        -0.0398 
    125 S125       -5.0326  -20.3951  -51.0641 S.3       23 UNK        -0.2404 
    126 C126       -4.1374  -19.4490  -49.7901 C.3       23 UNK        -0.0205 
    127 H127        0.0134   -9.5761  -51.3065 H         1 UNK         0.0600 
    128 H128       -1.4339  -10.1254  -50.4574 H         1 UNK         0.0600 
    129 H129       -0.2083   -9.1896  -49.5966 H         1 UNK         0.0600 
    130 H130       -1.3515  -12.3012  -49.9777 H         1 UNK         0.3000 
    131 H131        1.0181  -13.8719  -50.1079 H         1 UNK         0.0600 
    132 H132       -1.6737  -14.6854  -48.8927 H         1 UNK         0.0800 
    133 H133       -0.4175  -15.7574  -49.4421 H         1 UNK         0.0800 
    134 H134       -1.3158  -16.3250  -53.0800 H         1 UNK         0.0800 
    135 H135        0.1535  -16.0824  -52.1646 H         1 UNK         0.0800 
    136 H136       -3.2962  -17.1905  -51.0358 H         1 UNK         0.1150 
    137 H137       -1.8821  -20.9576  -49.5892 H         1 UNK         0.1150 
    138 H138        0.8347  -18.2544  -51.5028 H         1 UNK         0.1150 
    139 H139        0.3309  -21.7007  -50.1135 H         1 UNK         0.0800 
    140 H140        1.2489  -20.8190  -51.2957 H         1 UNK         0.0800 
    141 H141        0.0035  -19.6795  -47.7028 H         1 UNK         0.0800 
    142 H142        1.5050  -19.5401  -46.8648 H         1 UNK         0.0800 
    143 H143        1.5636  -22.2512  -47.2506 H         1 UNK         0.0600 
    144 H144        1.0155  -20.6538  -44.9912 H         1 UNK         0.3000 
    145 H145        0.6990  -23.3607  -42.6403 H         1 UNK         0.0600 
    146 H146        2.4927  -22.0367  -41.5788 H         1 UNK         0.0600 
    147 H147        3.1302  -22.8875  -42.9773 H         1 UNK         0.0600 
    148 H148        2.7894  -21.1648  -43.0809 H         1 UNK         0.0600 
    149 H149        0.5077  -20.5671  -42.2391 H         1 UNK         0.3000 
    150 H150       -3.0364  -20.2685  -42.8235 H         1 UNK         0.0600 
    151 H151       -2.6760  -21.0514  -40.4777 H         1 UNK         0.0600 
    152 H152       -2.8377  -19.3030  -40.5526 H         1 UNK         0.0600 
    153 H153       -1.2476  -20.0326  -40.3458 H         1 UNK         0.0600 
    154 H154       -1.1533  -18.2836  -42.1400 H         1 UNK         0.3000 
    155 H155       -0.2245  -17.2958  -45.4688 H         1 UNK         0.0600 
    156 H156       -1.8419  -16.1141  -43.1416 H         1 UNK         0.0600 
    157 H157       -2.3014  -16.1277  -44.8388 H         1 UNK         0.0600 
    158 H158       -0.9302  -15.1703  -44.3035 H         1 UNK         0.0600 
    159 H159        0.7347  -16.3868  -42.9744 H         1 UNK         0.3000 
    160 H160        3.4336  -18.7178  -42.5533 H         1 UNK         0.0600 
    161 H161        4.6247  -16.5365  -42.3789 H         1 UNK         0.0600 
    162 H162        3.2978  -15.7273  -43.2102 H         1 UNK         0.0600 
    163 H163        4.2606  -16.9295  -44.0513 H         1 UNK         0.0600 
    164 H164        2.4188  -16.5342  -40.9809 H         1 UNK         0.3000 
    165 H165        0.2601  -18.4713  -38.9133 H         1 UNK         0.0600 
    166 H166        1.7479  -17.5728  -37.1439 H         1 UNK         0.0600 
    167 H167        2.5418  -18.8939  -37.9858 H         1 UNK         0.0600 
    168 H168        3.0062  -17.2323  -38.3322 H         1 UNK         0.0600 
    169 H169        1.1043  -15.7341  -38.8526 H         1 UNK         0.3000 
    170 H170       -1.3832  -14.4335  -41.0420 H         1 UNK         0.0600 
    171 H171       -2.5071  -14.6874  -38.8245 H         1 UNK         0.0600 
    172 H172       -1.0212  -14.2241  -38.0035 H         1 UNK         0.0600 
    173 H173       -1.8642  -13.0665  -39.0333 H         1 UNK         0.0600 
    174 H174        0.6586  -13.1646  -39.5135 H         1 UNK         0.3000 
    175 H175        2.2930  -12.0104  -40.9183 H         1 UNK         0.0600 
    176 H176        3.8893  -14.6468  -40.7064 H         1 UNK         0.0600 
    177 H177        4.5245  -13.0447  -40.3462 H         1 UNK         0.0600 
    178 H178        3.2612  -13.7314  -39.3401 H         1 UNK         0.0600 
    179 H179        2.5689  -13.5911  -43.2512 H         1 UNK         0.3000 
    180 H180        4.1495  -11.0792  -45.0990 H         1 UNK         0.0600 
    181 H181        5.0643  -13.9932  -44.7753 H         1 UNK         0.0600 
    182 H182        6.1052  -12.5771  -44.6900 H         1 UNK         0.0600 
    183 H183        5.3128  -12.9877  -46.2033 H         1 UNK         0.0600 
    184 H184        2.8034  -13.5895  -45.6702 H         1 UNK         0.3000 
    185 H185        0.5655  -13.8656  -45.3382 H         1 UNK         0.0600 
    186 H186       -0.7408  -12.3346  -43.8794 H         1 UNK         0.0600 
    187 H187       -1.1789  -11.3459  -45.2692 H         1 UNK         0.0600 
    188 H188       -1.7526  -13.0063  -45.1484 H         1 UNK         0.0600 
    189 H189       -0.6214  -12.2667  -47.4632 H         1 UNK         0.3000 
    190 H190       -1.5709  -21.0097  -46.0044 H         1 UNK         0.3000 
    191 H191       -3.2439  -22.1700  -47.9528 H         1 UNK         0.0600 
    192 H192       -3.8401  -21.4823  -45.0262 H         1 UNK         0.0600 
    193 H193       -5.0454  -21.7613  -46.2784 H         1 UNK         0.0600 
    194 H194       -3.9672  -20.3777  -46.3916 H         1 UNK         0.0600 
    195 H195       -2.1470  -23.5122  -44.7951 H         1 UNK         0.3000 
    196 H196       -3.5849  -25.9538  -44.9577 H         1 UNK         0.0600 
    197 H197       -0.9881  -25.2707  -43.4810 H         1 UNK         0.0600 
    198 H198       -1.9768  -26.6970  -43.1867 H         1 UNK         0.0600 
    199 H199       -2.6238  -25.0990  -42.8479 H         1 UNK         0.0600 
    200 H200       -0.3030  -25.0813  -46.1119 H         1 UNK         0.3000 
    201 H201        0.4220  -27.7279  -46.9380 H         1 UNK         0.0600 
    202 H202        1.5628  -24.9901  -47.7046 H         1 UNK         0.0600 
    203 H203        2.3216  -26.5396  -48.0543 H         1 UNK         0.0600 
    204 H204        2.1132  -26.0230  -46.3880 H         1 UNK         0.0600 
    205 H205       -0.7354  -24.8494  -48.7903 H         1 UNK         0.3000 
    206 H206       -0.6106  -26.2910  -51.3121 H         1 UNK         0.0600 
    207 H207       -0.0248  -23.8872  -51.1229 H         1 UNK         0.0600 
    208 H208       -1.3500  -24.1290  -52.2497 H         1 UNK         0.0600 
    209 H209       -1.6781  -23.5035  -50.6367 H         1 UNK         0.0600 
    210 H210       -3.1456  -25.6172  -48.9862 H         1 UNK         0.3000 
    211 H211       -5.2539  -26.1231  -48.7450 H         1 UNK         0.0600 
    212 H212       -5.1645  -27.8353  -51.2785 H         1 UNK         0.0600 
    213 H213       -6.4178  -27.8381  -50.0504 H         1 UNK         0.0600 
    214 H214       -4.8011  -28.3947  -49.6462 H         1 UNK         0.0600 
    215 H215       -4.5788  -25.3786  -52.1591 H         1 UNK         0.3000 
    216 H216       -6.2111  -22.9802  -52.1325 H         1 UNK         0.0600 
    217 H217       -7.6361  -23.7073  -54.0814 H         1 UNK         0.0600 
    218 H218       -8.0164  -24.6045  -52.6222 H         1 UNK         0.0600 
    219 H219       -7.0524  -25.3577  -53.8907 H         1 UNK         0.0600 
    220 H220       -4.1325  -22.0967  -52.4625 H         1 UNK         0.3000 
    221 H221       -2.3301  -22.9434  -54.5472 H         1 UNK         0.0600 
    222 H222       -2.4617  -20.3138  -52.9671 H         1 UNK         0.0600 
    223 H223       -1.5800  -21.7482  -52.4604 H         1 UNK         0.0600 
    224 H224       -1.0923  -20.8862  -53.9072 H         1 UNK         0.0600 
    225 H225       -2.2835  -22.3216  -56.6579 H         1 UNK         0.3000 
    226 H226       -4.3701  -20.9268  -57.9352 H         1 UNK         0.0600 
    227 H227       -2.9327  -22.6172  -59.0504 H         1 UNK         0.0600 
    228 H228       -2.8812  -21.1040  -59.9388 H         1 UNK         0.0600 
    229 H229       -1.5295  -21.5569  -58.9076 H         1 UNK         0.0600 
    230 H230       -1.6639  -19.6494  -56.2764 H         1 UNK         0.3000 
    231 H231       -1.3311  -17.1195  -57.5500 H         1 UNK         0.0600 
    232 H232        0.3740  -18.0863  -56.0498 H         1 UNK         0.0600 
    233 H233       -0.7502  -18.0697  -54.6923 H         1 UNK         0.0600 
    234 H234       -0.1753  -16.5565  -55.3869 H         1 UNK         0.0600 
    235 H235       -3.8032  -18.3033  -55.2580 H         1 UNK         0.3000 
    236 H236       -5.3457  -15.9302  -55.6215 H         1 UNK         0.0600 
    237 H237       -5.4231  -15.2201  -53.1732 H         1 UNK         0.0600 
    238 H238       -4.0027  -16.2169  -52.8906 H         1 UNK         0.0600 
    239 H239       -3.9129  -14.8399  -53.9763 H         1 UNK         0.0600 
    240 H240       -4.9771  -18.3719  -52.9690 H         1 UNK         0.3000 
    241 H241       -7.8079  -18.4269  -52.6466 H         1 UNK         0.0600 
    242 H242       -7.2999  -21.5438  -55.0959 H         1 UNK         0.3800 
    243 H243       -5.9852  -20.4154  -54.8333 H         1 UNK         0.3800 
    244 H244       -6.5323  -18.5286  -50.6827 H         1 UNK         0.0800 
    245 H245       -7.3926  -20.0267  -50.7826 H         1 UNK         0.0800 
    246 H246       -4.6671  -18.5350  -49.5212 H         1 UNK         0.0800 
    247 H247       -4.0906  -20.0438  -48.8780 H         1 UNK         0.0800 
@<TRIPOS>BOND
     1    1    2 1    
     2    1  127 1    
     3    1  128 1    
     4    1  129 1    
     5    2    3 2    
     6    2    4 am   BACKBONE|DICT|INTERRES
     7    4    5 1    
     8    4  130 1    
     9    5    6 1    
    10    5   65 1    
    11    5  131 1    
    12    6    7 1    
    13    6  132 1    
    14    6  133 1    
    15    7    8 1    
    16    8    9 1    
    17    8  134 1    
    18    8  135 1    
    19    9   10 ar   
    20    9   14 ar   
    21   10   11 ar   
    22   10  136 1    
    23   11   12 ar   
    24   11  126 1    
    25   12   13 ar   
    26   12  137 1    
    27   13   14 ar   
    28   13   15 1    
    29   14  138 1    
    30   15   16 1    
    31   15  139 1    
    32   15  140 1    
    33   16   17 1    
    34   17   18 1    
    35   17  141 1    
    36   17  142 1    
    37   18   19 1    
    38   18   67 1    
    39   18  143 1    
    40   19   20 am   BACKBONE|DICT|INTERRES
    41   19  144 1    
    42   20   21 2    
    43   20   22 1    
    44   22   23 1    
    45   22   24 1    
    46   22  145 1    
    47   23  146 1    
    48   23  147 1    
    49   23  148 1    
    50   24   25 am   BACKBONE|DICT|INTERRES
    51   24  149 1    
    52   25   26 2    
    53   25   27 1    
    54   27   28 1    
    55   27   29 1    
    56   27  150 1    
    57   28  151 1    
    58   28  152 1    
    59   28  153 1    
    60   29   30 am   BACKBONE|DICT|INTERRES
    61   29  154 1    
    62   30   31 2    
    63   30   32 1    
    64   32   33 1    
    65   32   34 1    
    66   32  155 1    
    67   33  156 1    
    68   33  157 1    
    69   33  158 1    
    70   34   35 am   BACKBONE|DICT|INTERRES
    71   34  159 1    
    72   35   36 2    
    73   35   37 1    
    74   37   38 1    
    75   37   39 1    
    76   37  160 1    
    77   38  161 1    
    78   38  162 1    
    79   38  163 1    
    80   39   40 am   BACKBONE|DICT|INTERRES
    81   39  164 1    
    82   40   41 2    
    83   40   42 1    
    84   42   43 1    
    85   42   44 1    
    86   42  165 1    
    87   43  166 1    
    88   43  167 1    
    89   43  168 1    
    90   44   45 am   BACKBONE|DICT|INTERRES
    91   44  169 1    
    92   45   46 2    
    93   45   47 1    
    94   47   48 1    
    95   47   49 1    
    96   47  170 1    
    97   48  171 1    
    98   48  172 1    
    99   48  173 1    
   100   49   50 am   BACKBONE|DICT|INTERRES
   101   49  174 1    
   102   50   51 2    
   103   50   52 1    
   104   52   53 1    
   105   52   54 1    
   106   52  175 1    
   107   53  176 1    
   108   53  177 1    
   109   53  178 1    
   110   54   55 am   BACKBONE|DICT|INTERRES
   111   54  179 1    
   112   55   56 2    
   113   55   57 1    
   114   57   58 1    
   115   57   59 1    
   116   57  180 1    
   117   58  181 1    
   118   58  182 1    
   119   58  183 1    
   120   59   60 am   BACKBONE|DICT|INTERRES
   121   59  184 1    
   122   60   61 2    
   123   60   62 1    
   124   62   63 1    
   125   62   64 1    
   126   62  185 1    
   127   63  186 1    
   128   63  187 1    
   129   63  188 1    
   130   64   65 am   BACKBONE|DICT|INTERRES
   131   64  189 1    
   132   65   66 2    
   133   67   68 2    
   134   67   69 am   BACKBONE|DICT|INTERRES
   135   69   70 1    
   136   69  190 1    
   137   70   71 1    
   138   70   72 1    
   139   70  191 1    
   140   71  192 1    
   141   71  193 1    
   142   71  194 1    
   143   72   73 2    
   144   72   74 am   BACKBONE|DICT|INTERRES
   145   74   75 1    
   146   74  195 1    
   147   75   76 1    
   148   75   77 1    
   149   75  196 1    
   150   76  197 1    
   151   76  198 1    
   152   76  199 1    
   153   77   78 2    
   154   77   79 am   BACKBONE|DICT|INTERRES
   155   79   80 1    
   156   79  200 1    
   157   80   81 1    
   158   80   82 1    
   159   80  201 1    
   160   81  202 1    
   161   81  203 1    
   162   81  204 1    
   163   82   83 2    
   164   82   84 am   BACKBONE|DICT|INTERRES
   165   84   85 1    
   166   84  205 1    
   167   85   86 1    
   168   85   87 1    
   169   85  206 1    
   170   86  207 1    
   171   86  208 1    
   172   86  209 1    
   173   87   88 2    
   174   87   89 am   BACKBONE|DICT|INTERRES
   175   89   90 1    
   176   89  210 1    
   177   90   91 1    
   178   90   92 1    
   179   90  211 1    
   180   91  212 1    
   181   91  213 1    
   182   91  214 1    
   183   92   93 2    
   184   92   94 am   BACKBONE|DICT|INTERRES
   185   94   95 1    
   186   94  215 1    
   187   95   96 1    
   188   95   97 1    
   189   95  216 1    
   190   96  217 1    
   191   96  218 1    
   192   96  219 1    
   193   97   98 2    
   194   97   99 am   BACKBONE|DICT|INTERRES
   195   99  100 1    
   196   99  220 1    
   197  100  101 1    
   198  100  102 1    
   199  100  221 1    
   200  101  222 1    
   201  101  223 1    
   202  101  224 1    
   203  102  103 2    
   204  102  104 am   BACKBONE|DICT|INTERRES
   205  104  105 1    
   206  104  225 1    
   207  105  106 1    
   208  105  107 1    
   209  105  226 1    
   210  106  227 1    
   211  106  228 1    
   212  106  229 1    
   213  107  108 2    
   214  107  109 am   BACKBONE|DICT|INTERRES
   215  109  110 1    
   216  109  230 1    
   217  110  111 1    
   218  110  112 1    
   219  110  231 1    
   220  111  232 1    
   221  111  233 1    
   222  111  234 1    
   223  112  113 2    
   224  112  114 am   BACKBONE|DICT|INTERRES
   225  114  115 1    
   226  114  235 1    
   227  115  116 1    
   228  115  117 1    
   229  115  236 1    
   230  116  237 1    
   231  116  238 1    
   232  116  239 1    
   233  117  118 2    
   234  117  119 am   BACKBONE|DICT|INTERRES
   235  119  120 1    
   236  119  240 1    
   237  120  121 1    
   238  120  124 1    
   239  120  241 1    
   240  121  122 am   BACKBONE|DICT|INTERRES
   241  121  123 2    
   242  122  242 1    
   243  122  243 1    
   244  124  125 1    
   245  124  244 1    
   246  124  245 1    
   247  125  126 1    
   248  126  246 1    
   249  126  247 1    
@<TRIPOS>SUBSTRUCTURE
     1 UNK         1 GROUP             0       ****    0 ROOT    
