@<TRIPOS>MOLECULE
3R540
247   249    1
SMALL
USER_CHARGES


@<TRIPOS>ATOM
      1 CA         -3.6722  -10.5380  -47.4052 C.3       0 UNK        -0.1800 
      2 C          -2.7287  -10.7383  -48.5826 C.2       0 UNK         0.5000 
      3 O          -1.6248  -10.1950  -48.5808 O.2       0 UNK        -0.5000 
      4 N          -3.1572  -11.5214  -49.5814 N.am      1 UNK        -0.5000 
      5 CA         -2.3867  -11.8774  -50.7817 C.3       1 UNK         0.1400 
      6 C6         -3.2727  -12.5336  -51.8728 C.3       23 UNK        -0.0398 
      7 S7         -4.3667  -13.8615  -51.2502 S.3       23 UNK        -0.2404 
      8 C8         -3.5498  -15.3346  -51.9213 C.3       23 UNK        -0.0205 
      9 C9         -4.1770  -16.6037  -51.3702 C.ar      23 UNK        -0.0193 
     10 C10        -5.2415  -17.2186  -52.0358 C.ar      23 UNK        -0.1150 
     11 C11        -5.7894  -18.4136  -51.5521 C.ar      23 UNK        -0.0193 
     12 C12        -5.2678  -18.9806  -50.3838 C.ar      23 UNK        -0.1150 
     13 C13        -4.2124  -18.3675  -49.7033 C.ar      23 UNK        -0.0193 
     14 C14        -3.6781  -17.1759  -50.1979 C.ar      23 UNK        -0.1150 
     15 C15        -3.6437  -18.9821  -48.4342 C.3       23 UNK        -0.0205 
     16 S16        -2.1693  -19.9842  -48.7958 S.3       23 UNK        -0.2404 
     17 C17        -1.4519  -20.1581  -47.1307 C.3       23 UNK        -0.0398 
     18 CA         -1.0133  -21.6030  -46.7926 C.3       11 UNK         0.1400 
     19 N          -0.0378  -21.6183  -45.7000 N.am      11 UNK        -0.5000 
     20 C           0.6380  -22.6920  -45.2695 C.2       10 UNK         0.5000 
     21 O           0.5459  -23.8067  -45.7793 O.2       10 UNK        -0.5000 
     22 CA          1.5230  -22.5005  -44.0236 C.3       10 UNK         0.1400 
     23 CB          2.8624  -21.8456  -44.3918 C.3       10 UNK        -0.1800 
     24 N           0.8569  -21.7164  -42.9824 N.am      10 UNK        -0.5000 
     25 C          -0.2587  -22.1009  -42.3454 C.2       9 UNK         0.5000 
     26 O          -0.8103  -23.1856  -42.5258 O.2       9 UNK        -0.5000 
     27 CA         -0.8992  -21.0822  -41.3889 C.3       9 UNK         0.1400 
     28 CB         -0.2130  -21.1020  -40.0148 C.3       9 UNK        -0.1800 
     29 N          -0.8777  -19.7268  -41.9373 N.am      9 UNK        -0.5000 
     30 C          -1.5947  -19.3290  -42.9980 C.2       8 UNK         0.5000 
     31 O          -2.3677  -20.0596  -43.6180 O.2       8 UNK        -0.5000 
     32 CA         -1.3766  -17.8789  -43.4660 C.3       8 UNK         0.1400 
     33 CB         -2.1683  -16.9132  -42.5703 C.3       8 UNK        -0.1800 
     34 N           0.0361  -17.4925  -43.4746 N.am      8 UNK        -0.5000 
     35 C           0.9881  -18.0925  -44.2048 C.2       7 UNK         0.5000 
     36 O           0.7655  -19.0129  -44.9881 O.2       7 UNK        -0.5000 
     37 CA          2.4417  -17.6437  -43.9746 C.3       7 UNK         0.1400 
     38 CB          2.7699  -16.4072  -44.8198 C.3       7 UNK        -0.1800 
     39 N           2.7365  -17.3691  -42.5685 N.am      7 UNK        -0.5000 
     40 C           2.6727  -18.2604  -41.5716 C.2       6 UNK         0.5000 
     41 O           2.3686  -19.4413  -41.7440 O.2       6 UNK        -0.5000 
     42 CA          2.9471  -17.7556  -40.1382 C.3       6 UNK         0.1400 
     43 CB          4.4376  -17.8929  -39.7748 C.3       6 UNK        -0.1800 
     44 N           2.4362  -16.4030  -39.8599 N.am      6 UNK        -0.5000 
     45 C           2.8464  -15.2304  -40.3629 C.2       5 UNK         0.5000 
     46 O           3.8136  -15.0987  -41.1162 O.2       5 UNK        -0.5000 
     47 CA          1.9795  -14.0016  -40.0245 C.3       5 UNK         0.1400 
     48 CB          2.7161  -13.0652  -39.0549 C.3       5 UNK        -0.1800 
     49 N           1.6037  -13.2540  -41.2288 N.am      5 UNK        -0.5000 
     50 C           0.9495  -13.7698  -42.2787 C.2       4 UNK         0.5000 
     51 O           0.5370  -14.9329  -42.3159 O.2       4 UNK        -0.5000 
     52 CA          0.7470  -12.8369  -43.4896 C.3       4 UNK         0.1400 
     53 CB          2.0896  -12.4641  -44.1418 C.3       4 UNK        -0.1800 
     54 N          -0.1009  -13.4726  -44.4977 N.am      4 UNK        -0.5000 
     55 C          -1.4377  -13.4776  -44.4793 C.2       3 UNK         0.5000 
     56 O          -2.1088  -12.8139  -43.6870 O.2       3 UNK        -0.5000 
     57 CA         -2.1310  -14.3747  -45.5271 C.3       3 UNK         0.1400 
     58 CB         -3.6609  -14.2066  -45.5434 C.3       3 UNK        -0.1800 
     59 N          -1.6193  -14.1478  -46.8786 N.am      3 UNK        -0.5000 
     60 C          -0.5250  -14.7188  -47.4030 C.2       2 UNK         0.5000 
     61 O           0.2188  -15.4548  -46.7558 O.2       2 UNK        -0.5000 
     62 CA         -0.2018  -14.4145  -48.8786 C.3       2 UNK         0.1400 
     63 CB          0.1228  -15.6934  -49.6734 C.3       2 UNK        -0.1800 
     64 N          -1.2923  -13.6747  -49.5201 N.am      2 UNK        -0.5000 
     65 C          -1.1368  -12.7228  -50.4485 C.2       1 UNK         0.5000 
     66 O          -0.0639  -12.4663  -50.9955 O.2       1 UNK        -0.5000 
     67 C          -2.2148  -22.5276  -46.5055 C.2       11 UNK         0.5000 
     68 O          -2.6057  -23.3033  -47.3795 O.2       11 UNK        -0.5000 
     69 N          -2.7427  -22.4683  -45.2740 N.am      12 UNK        -0.5000 
     70 CA         -3.8124  -23.3399  -44.7890 C.3       12 UNK         0.1400 
     71 CB         -4.3043  -22.8464  -43.4203 C.3       12 UNK        -0.1800 
     72 C          -3.3896  -24.8191  -44.7257 C.2       12 UNK         0.5000 
     73 O          -4.1310  -25.6774  -45.2046 O.2       12 UNK        -0.5000 
     74 N          -2.1931  -25.0902  -44.1836 N.am      13 UNK        -0.5000 
     75 CA         -1.5957  -26.4271  -44.0984 C.3       13 UNK         0.1400 
     76 CB         -0.3130  -26.3643  -43.2560 C.3       13 UNK        -0.1800 
     77 C          -1.3096  -27.0523  -45.4772 C.2       13 UNK         0.5000 
     78 O          -1.4965  -28.2568  -45.6516 O.2       13 UNK        -0.5000 
     79 N          -0.9044  -26.2149  -46.4403 N.am      14 UNK        -0.5000 
     80 CA         -0.7040  -26.5711  -47.8450 C.3       14 UNK         0.1400 
     81 CB          0.1979  -25.5102  -48.4977 C.3       14 UNK        -0.1800 
     82 C          -2.0172  -26.7156  -48.6413 C.2       14 UNK         0.5000 
     83 O          -1.9562  -27.0634  -49.8197 O.2       14 UNK        -0.5000 
     84 N          -3.1694  -26.4145  -48.0221 N.am      15 UNK        -0.5000 
     85 CA         -4.5132  -26.4112  -48.6109 C.3       15 UNK         0.1400 
     86 CB         -4.9672  -27.8478  -48.9431 C.3       15 UNK        -0.1800 
     87 C          -4.6262  -25.4429  -49.8077 C.2       15 UNK         0.5000 
     88 O          -5.2111  -25.7870  -50.8359 O.2       15 UNK        -0.5000 
     89 N          -4.0286  -24.2539  -49.6438 N.am      16 UNK        -0.5000 
     90 CA         -3.9296  -23.1505  -50.6019 C.3       16 UNK         0.1400 
     91 CB         -5.3218  -22.6537  -51.0415 C.3       16 UNK        -0.1800 
     92 C          -2.9946  -23.4164  -51.8000 C.2       16 UNK         0.5000 
     93 O          -2.9565  -22.5948  -52.7137 O.2       16 UNK        -0.5000 
     94 N          -2.2161  -24.5099  -51.7828 N.am      17 UNK        -0.5000 
     95 CA         -1.2333  -24.8191  -52.8298 C.3       17 UNK         0.1400 
     96 CB         -0.8232  -26.2956  -52.7323 C.3       17 UNK        -0.1800 
     97 C           0.0135  -23.9115  -52.7807 C.2       17 UNK         0.5000 
     98 O           0.6915  -23.7580  -53.7967 O.2       17 UNK        -0.5000 
     99 N           0.2889  -23.3256  -51.6075 N.am      18 UNK        -0.5000 
    100 CA         1.3980  -22.4003  -51.3589 C.3       18 UNK         0.1400 
    101 CB         1.9434  -22.6639  -49.9443 C.3       18 UNK        -0.1800 
    102 C          0.9947  -20.9195  -51.5343 C.2       18 UNK         0.5000 
    103 O          1.7907  -20.0363  -51.2112 O.2       18 UNK        -0.5000 
    104 N         -0.2309  -20.6653  -52.0108 N.am      19 UNK        -0.5000 
    105 CA        -0.7974  -19.3352  -52.2207 C.3       19 UNK         0.1400 
    106 CB        -2.2841  -19.4968  -52.5520 C.3       19 UNK        -0.1800 
    107 C         -0.1110  -18.5406  -53.3466 C.2       19 UNK         0.5000 
    108 O          0.4952  -19.1207  -54.2500 O.2       19 UNK        -0.5000 
    109 N         -0.2849  -17.2143  -53.2956 N.am      20 UNK        -0.5000 
    110 CA         0.1763  -16.2705  -54.3168 C.3       20 UNK         0.1400 
    111 CB         0.3557  -14.8896  -53.6644 C.3       20 UNK        -0.1800 
    112 C         -0.7684  -16.1683  -55.5335 C.2       20 UNK         0.5000 
    113 O         -0.3875  -15.5517  -56.5296 O.2       20 UNK        -0.5000 
    114 N         -1.9761  -16.7412  -55.4343 N.am      21 UNK        -0.5000 
    115 CA        -3.0064  -16.7002  -56.4735 C.3       21 UNK         0.1400 
    116 CB        -4.0829  -15.6665  -56.0983 C.3       21 UNK        -0.1800 
    117 C         -3.6220  -18.0881  -56.7020 C.2       21 UNK         0.5000 
    118 O         -3.6676  -18.5472  -57.8442 O.2       21 UNK        -0.5000 
    119 N         -4.0913  -18.7248  -55.6209 N.am      22 UNK        -0.5000 
    120 CA        -4.7134  -20.0599  -55.6390 C.3       22 UNK         0.1400 
    121 C         -3.7275  -21.2156  -55.9856 C.2       22 UNK         0.5000 
    122 N         -4.2430  -22.3841  -56.3451 N.am      22 UNK        -0.7600 
    123 O         -2.5082  -21.0743  -55.9341 O.2       22 UNK        -0.5000 
    124 C124       -5.4875  -20.3402  -54.3240 C.3       23 UNK        -0.0398 
    125 S125       -6.8389  -19.1395  -54.0679 S.3       23 UNK        -0.2404 
    126 C126       -6.9727  -19.0799  -52.2491 C.3       23 UNK        -0.0205 
    127 H127       -3.1791  -10.8239  -46.4759 H         1 UNK         0.0600 
    128 H128       -4.5797  -11.1338  -47.5060 H         1 UNK         0.0600 
    129 H129       -3.9598   -9.4894  -47.3301 H         1 UNK         0.0600 
    130 H130       -4.0818  -11.9276  -49.5342 H         1 UNK         0.3000 
    131 H131       -2.0123  -10.9410  -51.2015 H         1 UNK         0.0600 
    132 H132       -2.6682  -12.8974  -52.7059 H         1 UNK         0.0800 
    133 H133       -3.9199  -11.7688  -52.3041 H         1 UNK         0.0800 
    134 H134       -2.4885  -15.3090  -51.6722 H         1 UNK         0.0800 
    135 H135       -3.6134  -15.3205  -53.0098 H         1 UNK         0.0800 
    136 H136       -5.6446  -16.7645  -52.9298 H         1 UNK         0.1150 
    137 H137       -5.6886  -19.8963  -49.9943 H         1 UNK         0.1150 
    138 H138       -2.8707  -16.6961  -49.6675 H         1 UNK         0.1150 
    139 H139       -3.3849  -18.1858  -47.7343 H         1 UNK         0.0800 
    140 H140       -4.3912  -19.6027  -47.9376 H         1 UNK         0.0800 
    141 H141       -2.1333  -19.7697  -46.3722 H         1 UNK         0.0800 
    142 H142       -0.5853  -19.4969  -47.1174 H         1 UNK         0.0800 
    143 H143       -0.5005  -22.0104  -47.6648 H         1 UNK         0.0600 
    144 H144        0.1491  -20.7218  -45.2556 H         1 UNK         0.3000 
    145 H145        1.7333  -23.4890  -43.6103 H         1 UNK         0.0600 
    146 H146        3.5039  -21.7405  -43.5166 H         1 UNK         0.0600 
    147 H147        3.4022  -22.4496  -45.1221 H         1 UNK         0.0600 
    148 H148        2.7241  -20.8556  -44.8251 H         1 UNK         0.0600 
    149 H149        1.2705  -20.8209  -42.7435 H         1 UNK         0.3000 
    150 H150       -1.9429  -21.3708  -41.2471 H         1 UNK         0.0600 
    151 H151       -0.2631  -22.0973  -39.5716 H         1 UNK         0.0600 
    152 H152       -0.6974  -20.4138  -39.3220 H         1 UNK         0.0600 
    153 H153        0.8397  -20.8275  -40.0799 H         1 UNK         0.0600 
    154 H154       -0.2273  -19.0765  -41.5225 H         1 UNK         0.3000 
    155 H155       -1.7523  -17.7953  -44.4877 H         1 UNK         0.0600 
    156 H156       -1.8318  -16.9585  -41.5338 H         1 UNK         0.0600 
    157 H157       -3.2324  -17.1527  -42.5821 H         1 UNK         0.0600 
    158 H158       -2.0649  -15.8816  -42.9006 H         1 UNK         0.0600 
    159 H159        0.2966  -16.6955  -42.8976 H         1 UNK         0.3000 
    160 H160        3.0969  -18.4564  -44.2936 H         1 UNK         0.0600 
    161 H161        2.1069  -15.5782  -44.5785 H         1 UNK         0.0600 
    162 H162        2.6499  -16.6209  -45.8827 H         1 UNK         0.0600 
    163 H163        3.7974  -16.0776  -44.6654 H         1 UNK         0.0600 
    164 H164        3.0115  -16.4223  -42.3295 H         1 UNK         0.3000 
    165 H165        2.3915  -18.4174  -39.4718 H         1 UNK         0.0600 
    166 H166        5.0768  -17.3008  -40.4300 H         1 UNK         0.0600 
    167 H167        4.6242  -17.5781  -38.7481 H         1 UNK         0.0600 
    168 H168        4.7616  -18.9308  -39.8607 H         1 UNK         0.0600 
    169 H169        1.6106  -16.3871  -39.2771 H         1 UNK         0.3000 
    170 H170        1.0578  -14.3376  -39.5451 H         1 UNK         0.0600 
    171 H171        3.6325  -12.6700  -39.4955 H         1 UNK         0.0600 
    172 H172        2.0894  -12.2206  -38.7677 H         1 UNK         0.0600 
    173 H173        2.9921  -13.5903  -38.1395 H         1 UNK         0.0600 
    174 H174        1.9341  -12.3017  -41.2811 H         1 UNK         0.3000 
    175 H175        0.2680  -11.9212  -43.1367 H         1 UNK         0.0600 
    176 H176        2.7281  -11.9161  -43.4481 H         1 UNK         0.0600 
    177 H177        1.9384  -11.8234  -45.0108 H         1 UNK         0.0600 
    178 H178        2.6448  -13.3425  -44.4692 H         1 UNK         0.0600 
    179 H179        0.3571  -14.0932  -45.1545 H         1 UNK         0.3000 
    180 H180       -1.9214  -15.4083  -45.2467 H         1 UNK         0.0600 
    181 H181       -4.1237  -14.8801  -46.2651 H         1 UNK         0.0600 
    182 H182       -3.9534  -13.1879  -45.7990 H         1 UNK         0.0600 
    183 H183       -4.0901  -14.4374  -44.5675 H         1 UNK         0.0600 
    184 H184       -2.1187  -13.4677  -47.4282 H         1 UNK         0.3000 
    185 H185        0.6909  -13.7858  -48.8640 H         1 UNK         0.0600 
    186 H186        0.3353  -15.4673  -50.7166 H         1 UNK         0.0600 
    187 H187        1.0046  -16.1901  -49.2669 H         1 UNK         0.0600 
    188 H188       -0.6930  -16.4126  -49.6424 H         1 UNK         0.0600 
    189 H189       -2.2229  -13.8554  -49.1731 H         1 UNK         0.3000 
    190 H190       -2.3938  -21.7728  -44.6215 H         1 UNK         0.3000 
    191 H191       -4.6444  -23.2640  -45.4923 H         1 UNK         0.0600 
    192 H192       -5.1218  -23.4674  -43.0521 H         1 UNK         0.0600 
    193 H193       -4.6748  -21.8229  -43.4812 H         1 UNK         0.0600 
    194 H194       -3.5117  -22.8696  -42.6725 H         1 UNK         0.0600 
    195 H195       -1.6573  -24.3298  -43.7718 H         1 UNK         0.3000 
    196 H196       -2.3081  -27.0755  -43.5842 H         1 UNK         0.0600 
    197 H197        0.4291  -25.7024  -43.7031 H         1 UNK         0.0600 
    198 H198       -0.5203  -26.0022  -42.2489 H         1 UNK         0.0600 
    199 H199        0.1413  -27.3512  -43.1599 H         1 UNK         0.0600 
    200 H200       -0.6979  -25.2520  -46.1894 H         1 UNK         0.3000 
    201 H201       -0.1887  -27.5324  -47.8907 H         1 UNK         0.0600 
    202 H202        0.4205  -25.7614  -49.5351 H         1 UNK         0.0600 
    203 H203       -0.2723  -24.5265  -48.4891 H         1 UNK         0.0600 
    204 H204        1.1516  -25.4290  -47.9761 H         1 UNK         0.0600 
    205 H205       -3.1251  -26.1161  -47.0552 H         1 UNK         0.3000 
    206 H206       -5.1830  -26.0237  -47.8421 H         1 UNK         0.0600 
    207 H207       -4.8869  -28.4967  -48.0710 H         1 UNK         0.0600 
    208 H208       -6.0095  -27.8633  -49.2636 H         1 UNK         0.0600 
    209 H209       -4.3724  -28.2874  -49.7443 H         1 UNK         0.0600 
    210 H210       -3.5523  -24.0796  -48.7595 H         1 UNK         0.3000 
    211 H211       -3.4626  -22.3358  -50.0487 H         1 UNK         0.0600 
    212 H212       -5.2390  -21.7247  -51.6034 H         1 UNK         0.0600 
    213 H213       -5.9618  -22.4561  -50.1818 H         1 UNK         0.0600 
    214 H214       -5.8293  -23.3732  -51.6839 H         1 UNK         0.0600 
    215 H215       -2.3102  -25.1793  -51.0290 H         1 UNK         0.3000 
    216 H216       -1.7111  -24.6684  -53.8004 H         1 UNK         0.0600 
    217 H217       -0.2726  -26.5014  -51.8144 H         1 UNK         0.0600 
    218 H218       -0.1796  -26.5761  -53.5670 H         1 UNK         0.0600 
    219 H219       -1.6935  -26.9517  -52.7577 H         1 UNK         0.0600 
    220 H220       -0.3337  -23.5009  -50.8335 H         1 UNK         0.3000 
    221 H221        2.2043  -22.5961  -52.0685 H         1 UNK         0.0600 
    222 H222        2.2606  -23.7006  -49.8313 H         1 UNK         0.0600 
    223 H223        1.1970  -22.4554  -49.1790 H         1 UNK         0.0600 
    224 H224        2.8118  -22.0388  -49.7331 H         1 UNK         0.0600 
    225 H225       -0.8100  -21.4431  -52.2940 H         1 UNK         0.3000 
    226 H226       -0.7009  -18.7741  -51.2888 H         1 UNK         0.0600 
    227 H227       -2.8209  -19.9988  -51.7480 H         1 UNK         0.0600 
    228 H228       -2.7643  -18.5346  -52.7143 H         1 UNK         0.0600 
    229 H229       -2.4178  -20.0832  -53.4594 H         1 UNK         0.0600 
    230 H230       -0.7831  -16.8172  -52.5141 H         1 UNK         0.3000 
    231 H231        1.1496  -16.5970  -54.6895 H         1 UNK         0.0600 
    232 H232       -0.5735  -14.5227  -53.2278 H         1 UNK         0.0600 
    233 H233        0.6878  -14.1493  -54.3935 H         1 UNK         0.0600 
    234 H234        1.1103  -14.9196  -52.8788 H         1 UNK         0.0600 
    235 H235       -2.1742  -17.2880  -54.6121 H         1 UNK         0.3000 
    236 H236       -2.5664  -16.3940  -57.4250 H         1 UNK         0.0600 
    237 H237       -3.6512  -14.6716  -55.9882 H         1 UNK         0.0600 
    238 H238       -4.8485  -15.6046  -56.8727 H         1 UNK         0.0600 
    239 H239       -4.5839  -15.9189  -55.1636 H         1 UNK         0.0600 
    240 H240       -4.0709  -18.2684  -54.7241 H         1 UNK         0.3000 
    241 H241       -5.4451  -20.0460  -56.4496 H         1 UNK         0.0600 
    242 H242       -3.6162  -23.1411  -56.5679 H         1 UNK         0.3800 
    243 H243       -5.2380  -22.5317  -56.4108 H         1 UNK         0.3800 
    244 H244       -4.8092  -20.3181  -53.4718 H         1 UNK         0.0800 
    245 H245       -5.9301  -21.3374  -54.3336 H         1 UNK         0.0800 
    246 H246       -7.1209  -20.0951  -51.8782 H         1 UNK         0.0800 
    247 H247       -7.8748  -18.5252  -51.9887 H         1 UNK         0.0800 
@<TRIPOS>BOND
     1    1    2 1    
     2    1  127 1    
     3    1  128 1    
     4    1  129 1    
     5    2    3 2    
     6    2    4 am   BACKBONE|DICT|INTERRES
     7    4    5 1    
     8    4  130 1    
     9    5    6 1    
    10    5   65 1    
    11    5  131 1    
    12    6    7 1    
    13    6  132 1    
    14    6  133 1    
    15    7    8 1    
    16    8    9 1    
    17    8  134 1    
    18    8  135 1    
    19    9   10 ar   
    20    9   14 ar   
    21   10   11 ar   
    22   10  136 1    
    23   11   12 ar   
    24   11  126 1    
    25   12   13 ar   
    26   12  137 1    
    27   13   14 ar   
    28   13   15 1    
    29   14  138 1    
    30   15   16 1    
    31   15  139 1    
    32   15  140 1    
    33   16   17 1    
    34   17   18 1    
    35   17  141 1    
    36   17  142 1    
    37   18   19 1    
    38   18   67 1    
    39   18  143 1    
    40   19   20 am   BACKBONE|DICT|INTERRES
    41   19  144 1    
    42   20   21 2    
    43   20   22 1    
    44   22   23 1    
    45   22   24 1    
    46   22  145 1    
    47   23  146 1    
    48   23  147 1    
    49   23  148 1    
    50   24   25 am   BACKBONE|DICT|INTERRES
    51   24  149 1    
    52   25   26 2    
    53   25   27 1    
    54   27   28 1    
    55   27   29 1    
    56   27  150 1    
    57   28  151 1    
    58   28  152 1    
    59   28  153 1    
    60   29   30 am   BACKBONE|DICT|INTERRES
    61   29  154 1    
    62   30   31 2    
    63   30   32 1    
    64   32   33 1    
    65   32   34 1    
    66   32  155 1    
    67   33  156 1    
    68   33  157 1    
    69   33  158 1    
    70   34   35 am   BACKBONE|DICT|INTERRES
    71   34  159 1    
    72   35   36 2    
    73   35   37 1    
    74   37   38 1    
    75   37   39 1    
    76   37  160 1    
    77   38  161 1    
    78   38  162 1    
    79   38  163 1    
    80   39   40 am   BACKBONE|DICT|INTERRES
    81   39  164 1    
    82   40   41 2    
    83   40   42 1    
    84   42   43 1    
    85   42   44 1    
    86   42  165 1    
    87   43  166 1    
    88   43  167 1    
    89   43  168 1    
    90   44   45 am   BACKBONE|DICT|INTERRES
    91   44  169 1    
    92   45   46 2    
    93   45   47 1    
    94   47   48 1    
    95   47   49 1    
    96   47  170 1    
    97   48  171 1    
    98   48  172 1    
    99   48  173 1    
   100   49   50 am   BACKBONE|DICT|INTERRES
   101   49  174 1    
   102   50   51 2    
   103   50   52 1    
   104   52   53 1    
   105   52   54 1    
   106   52  175 1    
   107   53  176 1    
   108   53  177 1    
   109   53  178 1    
   110   54   55 am   BACKBONE|DICT|INTERRES
   111   54  179 1    
   112   55   56 2    
   113   55   57 1    
   114   57   58 1    
   115   57   59 1    
   116   57  180 1    
   117   58  181 1    
   118   58  182 1    
   119   58  183 1    
   120   59   60 am   BACKBONE|DICT|INTERRES
   121   59  184 1    
   122   60   61 2    
   123   60   62 1    
   124   62   63 1    
   125   62   64 1    
   126   62  185 1    
   127   63  186 1    
   128   63  187 1    
   129   63  188 1    
   130   64   65 am   BACKBONE|DICT|INTERRES
   131   64  189 1    
   132   65   66 2    
   133   67   68 2    
   134   67   69 am   BACKBONE|DICT|INTERRES
   135   69   70 1    
   136   69  190 1    
   137   70   71 1    
   138   70   72 1    
   139   70  191 1    
   140   71  192 1    
   141   71  193 1    
   142   71  194 1    
   143   72   73 2    
   144   72   74 am   BACKBONE|DICT|INTERRES
   145   74   75 1    
   146   74  195 1    
   147   75   76 1    
   148   75   77 1    
   149   75  196 1    
   150   76  197 1    
   151   76  198 1    
   152   76  199 1    
   153   77   78 2    
   154   77   79 am   BACKBONE|DICT|INTERRES
   155   79   80 1    
   156   79  200 1    
   157   80   81 1    
   158   80   82 1    
   159   80  201 1    
   160   81  202 1    
   161   81  203 1    
   162   81  204 1    
   163   82   83 2    
   164   82   84 am   BACKBONE|DICT|INTERRES
   165   84   85 1    
   166   84  205 1    
   167   85   86 1    
   168   85   87 1    
   169   85  206 1    
   170   86  207 1    
   171   86  208 1    
   172   86  209 1    
   173   87   88 2    
   174   87   89 am   BACKBONE|DICT|INTERRES
   175   89   90 1    
   176   89  210 1    
   177   90   91 1    
   178   90   92 1    
   179   90  211 1    
   180   91  212 1    
   181   91  213 1    
   182   91  214 1    
   183   92   93 2    
   184   92   94 am   BACKBONE|DICT|INTERRES
   185   94   95 1    
   186   94  215 1    
   187   95   96 1    
   188   95   97 1    
   189   95  216 1    
   190   96  217 1    
   191   96  218 1    
   192   96  219 1    
   193   97   98 2    
   194   97   99 am   BACKBONE|DICT|INTERRES
   195   99  100 1    
   196   99  220 1    
   197  100  101 1    
   198  100  102 1    
   199  100  221 1    
   200  101  222 1    
   201  101  223 1    
   202  101  224 1    
   203  102  103 2    
   204  102  104 am   BACKBONE|DICT|INTERRES
   205  104  105 1    
   206  104  225 1    
   207  105  106 1    
   208  105  107 1    
   209  105  226 1    
   210  106  227 1    
   211  106  228 1    
   212  106  229 1    
   213  107  108 2    
   214  107  109 am   BACKBONE|DICT|INTERRES
   215  109  110 1    
   216  109  230 1    
   217  110  111 1    
   218  110  112 1    
   219  110  231 1    
   220  111  232 1    
   221  111  233 1    
   222  111  234 1    
   223  112  113 2    
   224  112  114 am   BACKBONE|DICT|INTERRES
   225  114  115 1    
   226  114  235 1    
   227  115  116 1    
   228  115  117 1    
   229  115  236 1    
   230  116  237 1    
   231  116  238 1    
   232  116  239 1    
   233  117  118 2    
   234  117  119 am   BACKBONE|DICT|INTERRES
   235  119  120 1    
   236  119  240 1    
   237  120  121 1    
   238  120  124 1    
   239  120  241 1    
   240  121  122 am   BACKBONE|DICT|INTERRES
   241  121  123 2    
   242  122  242 1    
   243  122  243 1    
   244  124  125 1    
   245  124  244 1    
   246  124  245 1    
   247  125  126 1    
   248  126  246 1    
   249  126  247 1    
@<TRIPOS>SUBSTRUCTURE
     1 UNK         1 GROUP             0       ****    0 ROOT    
