@<TRIPOS>MOLECULE
3R540
247   249    1
SMALL
USER_CHARGES


@<TRIPOS>ATOM
      1 CA         -0.0165  -12.4196  -48.0519 C.3       0 UNK        -0.1800 
      2 C           1.3749  -12.1217  -48.5872 C.2       0 UNK         0.5000 
      3 O           1.6593  -10.9793  -48.9479 O.2       0 UNK        -0.5000 
      4 N           2.2490  -13.1349  -48.6313 N.am      1 UNK        -0.5000 
      5 CA          3.6452  -13.0184  -49.0570 C.3       1 UNK         0.1400 
      6 C6          4.2789  -14.3839  -49.4417 C.3       23 UNK        -0.0398 
      7 S7          4.4115  -15.6648  -48.1368 S.3       23 UNK        -0.2404 
      8 C8          2.7358  -16.3666  -47.9820 C.3       23 UNK        -0.0205 
      9 C9          2.2053  -17.0029  -49.2609 C.ar      23 UNK        -0.0193 
     10 C10         1.4675  -16.2440  -50.1738 C.ar      23 UNK        -0.1150 
     11 C11         0.9565  -16.8241  -51.3352 C.ar      23 UNK        -0.0193 
     12 C12         1.1488  -18.1911  -51.5578 C.ar      23 UNK        -0.1150 
     13 C13         1.8689  -18.9756  -50.6486 C.ar      23 UNK        -0.0193 
     14 C14         2.4133  -18.3634  -49.5110 C.ar      23 UNK        -0.1150 
     15 C15         2.0677  -20.4637  -50.9581 C.3       23 UNK        -0.0205 
     16 S16         2.3234  -21.5669  -49.5199 S.3       23 UNK        -0.2404 
     17 C17         0.8840  -21.1893  -48.4703 C.3       23 UNK        -0.0398 
     18 CA          0.3523  -22.4114  -47.6716 C.3       11 UNK         0.1400 
     19 N           0.0714  -22.0620  -46.2762 N.am      11 UNK        -0.5000 
     20 C          -0.2971  -22.9132  -45.3093 C.2       10 UNK         0.5000 
     21 O          -0.3573  -24.1336  -45.4586 O.2       10 UNK        -0.5000 
     22 CA         -0.7397  -22.2813  -43.9741 C.3       10 UNK         0.1400 
     23 CB          0.4638  -21.9997  -43.0627 C.3       10 UNK        -0.1800 
     24 N          -1.5119  -21.0510  -44.1790 N.am      10 UNK        -0.5000 
     25 C          -2.7284  -21.0220  -44.7435 C.2       9 UNK         0.5000 
     26 O          -3.3513  -22.0374  -45.0512 O.2       9 UNK        -0.5000 
     27 CA         -3.3267  -19.6409  -45.0718 C.3       9 UNK         0.1400 
     28 CB         -4.0445  -19.0456  -43.8524 C.3       9 UNK        -0.1800 
     29 N          -2.3176  -18.7001  -45.5572 N.am      9 UNK        -0.5000 
     30 C          -1.7023  -18.7887  -46.7437 C.2       8 UNK         0.5000 
     31 O          -1.9988  -19.6140  -47.6081 O.2       8 UNK        -0.5000 
     32 CA         -0.5400  -17.8137  -47.0031 C.3       8 UNK         0.1400 
     33 CB         -1.0528  -16.5279  -47.6552 C.3       8 UNK        -0.1800 
     34 N           0.2250  -17.4922  -45.7965 N.am      8 UNK        -0.5000 
     35 C           0.9580  -18.3838  -45.1141 C.2       7 UNK         0.5000 
     36 O           1.0907  -19.5554  -45.4560 O.2       7 UNK        -0.5000 
     37 CA          1.6039  -17.9113  -43.8033 C.3       7 UNK         0.1400 
     38 CB          2.9623  -17.2471  -44.0681 C.3       7 UNK        -0.1800 
     39 N           0.7227  -17.0022  -43.0719 N.am      7 UNK        -0.5000 
     40 C          -0.4057  -17.3935  -42.4609 C.2       6 UNK         0.5000 
     41 O          -0.7722  -18.5674  -42.3963 O.2       6 UNK        -0.5000 
     42 CA         -1.2957  -16.2833  -41.8705 C.3       6 UNK         0.1400 
     43 CB         -0.8299  -15.9111  -40.4553 C.3       6 UNK        -0.1800 
     44 N          -1.3198  -15.0806  -42.7059 N.am      6 UNK        -0.5000 
     45 C          -1.8513  -15.0212  -43.9361 C.2       5 UNK         0.5000 
     46 O          -2.4386  -15.9636  -44.4652 O.2       5 UNK        -0.5000 
     47 CA         -1.6396  -13.7125  -44.7247 C.3       5 UNK         0.1400 
     48 CB         -2.8074  -12.7432  -44.4966 C.3       5 UNK        -0.1800 
     49 N          -0.3788  -13.0401  -44.3934 N.am      5 UNK        -0.5000 
     50 C           0.8369  -13.5541  -44.6160 C.2       4 UNK         0.5000 
     51 O           1.0167  -14.6309  -45.1886 O.2       4 UNK        -0.5000 
     52 CA          2.0304  -12.7246  -44.1046 C.3       4 UNK         0.1400 
     53 CB          3.3129  -13.5617  -43.9671 C.3       4 UNK        -0.1800 
     54 N           2.2837  -11.5766  -44.9752 N.am      4 UNK        -0.5000 
     55 C           1.6037  -10.4209  -44.9203 C.2       3 UNK         0.5000 
     56 O           0.6935  -10.2254  -44.1122 O.2       3 UNK        -0.5000 
     57 CA          1.9456   -9.3120  -45.9407 C.3       3 UNK         0.1400 
     58 CB          1.9909   -7.9110  -45.2957 C.3       3 UNK        -0.1800 
     59 N           3.1394   -9.5730  -46.7524 N.am      3 UNK        -0.5000 
     60 C           4.4282   -9.5678  -46.3749 C.2       2 UNK         0.5000 
     61 O           4.8126   -9.2722  -45.2427 O.2       2 UNK        -0.5000 
     62 CA          5.4492  -10.0024  -47.4566 C.3       2 UNK         0.1400 
     63 CB          6.8040  -10.4442  -46.8641 C.3       2 UNK        -0.1800 
     64 N           4.9137  -11.0323  -48.3613 N.am      2 UNK        -0.5000 
     65 C           4.4291  -12.2272  -47.9911 C.2       1 UNK         0.5000 
     66 O           4.4780  -12.6484  -46.8362 O.2       1 UNK        -0.5000 
     67 C          -0.8796  -23.0498  -48.3494 C.2       11 UNK         0.5000 
     68 O          -0.7430  -24.0669  -49.0277 O.2       11 UNK        -0.5000 
     69 N          -2.0680  -22.4761  -48.1039 N.am      12 UNK        -0.5000 
     70 CA         -3.3520  -22.9969  -48.5723 C.3       12 UNK         0.1400 
     71 CB         -4.4729  -21.9826  -48.3124 C.3       12 UNK        -0.1800 
     72 C          -3.7052  -24.3499  -47.9444 C.2       12 UNK         0.5000 
     73 O          -4.1646  -25.2361  -48.6605 O.2       12 UNK        -0.5000 
     74 N          -3.4577  -24.5052  -46.6368 N.am      13 UNK        -0.5000 
     75 CA         -3.6426  -25.7623  -45.9100 C.3       13 UNK         0.1400 
     76 CB         -3.4208  -25.5367  -44.4071 C.3       13 UNK        -0.1800 
     77 C          -2.7383  -26.8874  -46.4476 C.2       13 UNK         0.5000 
     78 O          -3.2175  -28.0034  -46.6505 O.2       13 UNK        -0.5000 
     79 N          -1.4702  -26.5582  -46.7343 N.am      14 UNK        -0.5000 
     80 CA         -0.5032  -27.4495  -47.3807 C.3       14 UNK         0.1400 
     81 CB          0.8897  -26.8027  -47.3459 C.3       14 UNK        -0.1800 
     82 C          -0.9000  -27.8267  -48.8233 C.2       14 UNK         0.5000 
     83 O          -0.6888  -28.9684  -49.2328 O.2       14 UNK        -0.5000 
     84 N          -1.5021  -26.8766  -49.5511 N.am      15 UNK        -0.5000 
     85 CA         -2.0502  -27.0554  -50.8981 C.3       15 UNK         0.1400 
     86 CB         -2.1141  -25.6842  -51.5945 C.3       15 UNK        -0.1800 
     87 C          -3.4364  -27.7354  -50.9232 C.2       15 UNK         0.5000 
     88 O          -3.9866  -27.9149  -52.0093 O.2       15 UNK        -0.5000 
     89 N          -4.0010  -28.0667  -49.7512 N.am      16 UNK        -0.5000 
     90 CA         -5.3343  -28.6460  -49.5415 C.3       16 UNK         0.1400 
     91 CB         -5.3909  -30.0905  -50.0805 C.3       16 UNK        -0.1800 
     92 C          -6.4739  -27.7521  -50.0826 C.2       16 UNK         0.5000 
     93 O          -7.4594  -28.2572  -50.6227 O.2       16 UNK        -0.5000 
     94 N          -6.2957  -26.4314  -49.9359 N.am      17 UNK        -0.5000 
     95 CA         -7.1662  -25.3332  -50.3672 C.3       17 UNK         0.1400 
     96 CB         -8.5388  -25.4062  -49.6670 C.3       17 UNK        -0.1800 
     97 C          -7.2885  -25.1729  -51.8982 C.2       17 UNK         0.5000 
     98 O          -8.1594  -24.4324  -52.3578 O.2       17 UNK        -0.5000 
     99 N          -6.4124  -25.8330  -52.6697 N.am      18 UNK        -0.5000 
    100 CA        -6.3842  -25.7586  -54.1330 C.3       18 UNK         0.1400 
    101 CB        -5.7051  -27.0218  -54.6843 C.3       18 UNK        -0.1800 
    102 C         -5.6786  -24.4960  -54.6683 C.2       18 UNK         0.5000 
    103 O         -5.7990  -24.2021  -55.8587 O.2       18 UNK        -0.5000 
    104 N         -4.9465  -23.7831  -53.8046 N.am      19 UNK        -0.5000 
    105 CA        -4.1630  -22.5959  -54.1284 C.3       19 UNK         0.1400 
    106 CB        -2.8174  -23.0262  -54.7478 C.3       19 UNK        -0.1800 
    107 C         -3.9534  -21.7528  -52.8599 C.2       19 UNK         0.5000 
    108 O         -4.3596  -22.1683  -51.7718 O.2       19 UNK        -0.5000 
    109 N         -3.2931  -20.6007  -53.0358 N.am      20 UNK        -0.5000 
    110 CA        -2.8807  -19.6405  -52.0092 C.3       20 UNK         0.1400 
    111 CB        -1.8469  -20.2673  -51.0534 C.3       20 UNK        -0.1800 
    112 C         -4.0708  -18.9554  -51.3044 C.2       20 UNK         0.5000 
    113 O         -5.0141  -18.5551  -51.9892 O.2       20 UNK        -0.5000 
    114 N         -3.9746  -18.7705  -49.9761 N.am      21 UNK        -0.5000 
    115 CA        -4.8697  -17.9753  -49.1196 C.3       21 UNK         0.1400 
    116 CB        -6.3005  -18.5526  -49.0976 C.3       21 UNK        -0.1800 
    117 C         -4.8193  -16.4702  -49.4664 C.2       21 UNK         0.5000 
    118 O         -5.8197  -15.7604  -49.3510 O.2       21 UNK        -0.5000 
    119 N         -3.6358  -16.0379  -49.9130 N.am      22 UNK        -0.5000 
    120 CA        -3.2751  -14.6906  -50.3644 C.3       22 UNK         0.1400 
    121 C         -3.4505  -13.5983  -49.2729 C.2       22 UNK         0.5000 
    122 N         -3.8145  -12.3832  -49.6591 N.am      22 UNK        -0.7600 
    123 O         -3.2123  -13.8260  -48.0899 O.2       22 UNK        -0.5000 
    124 C124       -1.8259  -14.6780  -50.9223 C.3       23 UNK        -0.0398 
    125 S125       -1.5561  -15.9611  -52.1984 S.3       23 UNK        -0.2404 
    126 C126        0.2540  -15.9623  -52.3771 C.3       23 UNK        -0.0205 
    127 H127       -0.7624  -12.2125  -48.8184 H         1 UNK         0.0600 
    128 H128       -0.2325  -11.7904  -47.1888 H         1 UNK         0.0600 
    129 H129       -0.1206  -13.4595  -47.7465 H         1 UNK         0.0600 
    130 H130        1.9952  -14.0275  -48.2383 H         1 UNK         0.3000 
    131 H131        3.6450  -12.4228  -49.9729 H         1 UNK         0.0600 
    132 H132        3.7520  -14.8047  -50.2969 H         1 UNK         0.0800 
    133 H133        5.2912  -14.2077  -49.8089 H         1 UNK         0.0800 
    134 H134        2.0483  -15.6099  -47.6097 H         1 UNK         0.0800 
    135 H135        2.7718  -17.1251  -47.1998 H         1 UNK         0.0800 
    136 H136        1.3058  -15.1924  -49.9976 H         1 UNK         0.1150 
    137 H137        0.7500  -18.6421  -52.4558 H         1 UNK         0.1150 
    138 H138        2.9917  -18.9439  -48.8070 H         1 UNK         0.1150 
    139 H139        1.2185  -20.8434  -51.5253 H         1 UNK         0.0800 
    140 H140        2.9333  -20.5582  -51.6147 H         1 UNK         0.0800 
    141 H141        0.1022  -20.7163  -49.0636 H         1 UNK         0.0800 
    142 H142        1.2300  -20.4139  -47.7915 H         1 UNK         0.0800 
    143 H143        1.1307  -23.1764  -47.6351 H         1 UNK         0.0600 
    144 H144        0.1862  -21.0837  -46.0251 H         1 UNK         0.3000 
    145 H145       -1.3838  -23.0006  -43.4642 H         1 UNK         0.0600 
    146 H146        0.1462  -21.5713  -42.1118 H         1 UNK         0.0600 
    147 H147        1.0051  -22.9202  -42.8413 H         1 UNK         0.0600 
    148 H148        1.1708  -21.3088  -43.5204 H         1 UNK         0.0600 
    149 H149       -1.0732  -20.1788  -43.9105 H         1 UNK         0.3000 
    150 H150       -4.0665  -19.7794  -45.8631 H         1 UNK         0.0600 
    151 H151       -4.8344  -19.7113  -43.5025 H         1 UNK         0.0600 
    152 H152       -4.5080  -18.0896  -44.0969 H         1 UNK         0.0600 
    153 H153       -3.3610  -18.8816  -43.0197 H         1 UNK         0.0600 
    154 H154       -2.0816  -17.9246  -44.9476 H         1 UNK         0.3000 
    155 H155        0.1412  -18.2942  -47.7057 H         1 UNK         0.0600 
    156 H156       -1.3844  -16.7395  -48.6694 H         1 UNK         0.0600 
    157 H157       -0.2736  -15.7725  -47.7228 H         1 UNK         0.0600 
    158 H158       -1.8924  -16.0955  -47.1107 H         1 UNK         0.0600 
    159 H159        0.2030  -16.5315  -45.4734 H         1 UNK         0.3000 
    160 H160        1.7788  -18.7910  -43.1801 H         1 UNK         0.0600 
    161 H161        2.8757  -16.3953  -44.7411 H         1 UNK         0.0600 
    162 H162        3.6526  -17.9530  -44.5314 H         1 UNK         0.0600 
    163 H163        3.4230  -16.9029  -43.1423 H         1 UNK         0.0600 
    164 H164        0.9329  -16.0174  -43.1325 H         1 UNK         0.3000 
    165 H165       -2.3140  -16.6727  -41.8052 H         1 UNK         0.0600 
    166 H166       -1.4972  -15.1787  -40.0006 H         1 UNK         0.0600 
    167 H167       -0.8199  -16.7873  -39.8055 H         1 UNK         0.0600 
    168 H168        0.1773  -15.4926  -40.4578 H         1 UNK         0.0600 
    169 H169       -0.8653  -14.2581  -42.3382 H         1 UNK         0.3000 
    170 H170       -1.6141  -13.9702  -45.7851 H         1 UNK         0.0600 
    171 H171       -3.7568  -13.2095  -44.7636 H         1 UNK         0.0600 
    172 H172       -2.8743  -12.4285  -43.4545 H         1 UNK         0.0600 
    173 H173       -2.7021  -11.8504  -45.1133 H         1 UNK         0.0600 
    174 H174       -0.4404  -12.1197  -43.9746 H         1 UNK         0.3000 
    175 H175        1.7802  -12.3624  -43.1052 H         1 UNK         0.0600 
    176 H176        3.5829  -14.0554  -44.9005 H         1 UNK         0.0600 
    177 H177        4.1574  -12.9449  -43.6594 H         1 UNK         0.0600 
    178 H178        3.1867  -14.3384  -43.2127 H         1 UNK         0.0600 
    179 H179        3.0147  -11.6977  -45.6674 H         1 UNK         0.3000 
    180 H180        1.1155   -9.3086  -46.6484 H         1 UNK         0.0600 
    181 H181        2.7300   -7.8532  -44.4965 H         1 UNK         0.0600 
    182 H182        1.0253   -7.6506  -44.8606 H         1 UNK         0.0600 
    183 H183        2.2294   -7.1439  -46.0323 H         1 UNK         0.0600 
    184 H184        2.9320   -9.8737  -47.6992 H         1 UNK         0.3000 
    185 H185        5.6316   -9.1190  -48.0701 H         1 UNK         0.0600 
    186 H186        7.2711   -9.6308  -46.3077 H         1 UNK         0.0600 
    187 H187        6.6935  -11.2857  -46.1795 H         1 UNK         0.0600 
    188 H188        7.4998  -10.7399  -47.6491 H         1 UNK         0.0600 
    189 H189        4.7975  -10.7434  -49.3232 H         1 UNK         0.3000 
    190 H190       -2.0916  -21.6058  -47.5840 H         1 UNK         0.3000 
    191 H191       -3.2680  -23.1445  -49.6491 H         1 UNK         0.0600 
    192 H192       -4.6950  -21.8721  -47.2522 H         1 UNK         0.0600 
    193 H193       -5.3937  -22.2901  -48.8093 H         1 UNK         0.0600 
    194 H194       -4.2091  -21.0039  -48.6990 H         1 UNK         0.0600 
    195 H195       -3.1406  -23.7027  -46.1017 H         1 UNK         0.3000 
    196 H196       -4.6792  -26.0741  -46.0537 H         1 UNK         0.0600 
    197 H197       -3.6235  -26.4483  -43.8439 H         1 UNK         0.0600 
    198 H198       -4.0841  -24.7615  -44.0228 H         1 UNK         0.0600 
    199 H199       -2.3963  -25.2387  -44.1873 H         1 UNK         0.0600 
    200 H200       -1.1453  -25.6252  -46.4968 H         1 UNK         0.3000 
    201 H201       -0.4622  -28.3723  -46.7984 H         1 UNK         0.0600 
    202 H202        1.2012  -26.5933  -46.3224 H         1 UNK         0.0600 
    203 H203        0.9135  -25.8642  -47.8998 H         1 UNK         0.0600 
    204 H204        1.6379  -27.4630  -47.7861 H         1 UNK         0.0600 
    205 H205       -1.5749  -25.9433  -49.1598 H         1 UNK         0.3000 
    206 H206       -1.3704  -27.6912  -51.4685 H         1 UNK         0.0600 
    207 H207       -1.1362  -25.2027  -51.6117 H         1 UNK         0.0600 
    208 H208       -2.4436  -25.7821  -52.6297 H         1 UNK         0.0600 
    209 H209       -2.8095  -25.0107  -51.0939 H         1 UNK         0.0600 
    210 H210       -3.4913  -27.8418  -48.9063 H         1 UNK         0.3000 
    211 H211       -5.4760  -28.6924  -48.4609 H         1 UNK         0.0600 
    212 H212       -5.3143  -30.1213  -51.1677 H         1 UNK         0.0600 
    213 H213       -6.3289  -30.5740  -49.8053 H         1 UNK         0.0600 
    214 H214       -4.5827  -30.6955  -49.6697 H         1 UNK         0.0600 
    215 H215       -5.4360  -26.1236  -49.4792 H         1 UNK         0.3000 
    216 H216       -6.6749  -24.4232  -50.0196 H         1 UNK         0.0600 
    217 H217       -9.1215  -24.5031  -49.8515 H         1 UNK         0.0600 
    218 H218       -8.4256  -25.5011  -48.5871 H         1 UNK         0.0600 
    219 H219       -9.1299  -26.2517  -50.0194 H         1 UNK         0.0600 
    220 H220       -5.7300  -26.4409  -52.2336 H         1 UNK         0.3000 
    221 H221       -7.4115  -25.7428  -54.5031 H         1 UNK         0.0600 
    222 H222       -4.6455  -27.0522  -54.4286 H         1 UNK         0.0600 
    223 H223       -6.1719  -27.9267  -54.2945 H         1 UNK         0.0600 
    224 H224       -5.7780  -27.0603  -55.7718 H         1 UNK         0.0600 
    225 H225       -4.9475  -24.0308  -52.8239 H         1 UNK         0.3000 
    226 H226       -4.7170  -21.9844  -54.8437 H         1 UNK         0.0600 
    227 H227       -2.9661  -23.6358  -55.6392 H         1 UNK         0.0600 
    228 H228       -2.2213  -22.1645  -55.0491 H         1 UNK         0.0600 
    229 H229       -2.2217  -23.6073  -54.0428 H         1 UNK         0.0600 
    230 H230       -3.0458  -20.3404  -53.9797 H         1 UNK         0.3000 
    231 H231       -2.3671  -18.8457  -52.5509 H         1 UNK         0.0600 
    232 H232       -1.0599  -20.7708  -51.6118 H         1 UNK         0.0600 
    233 H233       -2.3008  -21.0040  -50.3945 H         1 UNK         0.0600 
    234 H234       -1.3704  -19.5057  -50.4354 H         1 UNK         0.0600 
    235 H235       -3.1743  -19.1681  -49.4984 H         1 UNK         0.3000 
    236 H236       -4.4723  -18.0616  -48.1073 H         1 UNK         0.0600 
    237 H237       -6.9080  -18.0553  -48.3409 H         1 UNK         0.0600 
    238 H238       -6.8068  -18.4253  -50.0545 H         1 UNK         0.0600 
    239 H239       -6.2955  -19.6159  -48.8598 H         1 UNK         0.0600 
    240 H240       -2.8998  -16.7201  -49.9998 H         1 UNK         0.3000 
    241 H241       -3.9554  -14.4505  -51.1836 H         1 UNK         0.0600 
    242 H242       -3.9192  -11.6638  -48.9612 H         1 UNK         0.3800 
    243 H243       -4.0110  -12.1667  -50.6241 H         1 UNK         0.3800 
    244 H244       -1.5977  -13.7065  -51.3640 H         1 UNK         0.0800 
    245 H245       -1.1063  -14.8234  -50.1163 H         1 UNK         0.0800 
    246 H246        0.6272  -14.9376  -52.3422 H         1 UNK         0.0800 
    247 H247        0.5005  -16.3342  -53.3727 H         1 UNK         0.0800 
@<TRIPOS>BOND
     1    1    2 1    
     2    1  127 1    
     3    1  128 1    
     4    1  129 1    
     5    2    3 2    
     6    2    4 am   BACKBONE|DICT|INTERRES
     7    4    5 1    
     8    4  130 1    
     9    5    6 1    
    10    5   65 1    
    11    5  131 1    
    12    6    7 1    
    13    6  132 1    
    14    6  133 1    
    15    7    8 1    
    16    8    9 1    
    17    8  134 1    
    18    8  135 1    
    19    9   10 ar   
    20    9   14 ar   
    21   10   11 ar   
    22   10  136 1    
    23   11   12 ar   
    24   11  126 1    
    25   12   13 ar   
    26   12  137 1    
    27   13   14 ar   
    28   13   15 1    
    29   14  138 1    
    30   15   16 1    
    31   15  139 1    
    32   15  140 1    
    33   16   17 1    
    34   17   18 1    
    35   17  141 1    
    36   17  142 1    
    37   18   19 1    
    38   18   67 1    
    39   18  143 1    
    40   19   20 am   BACKBONE|DICT|INTERRES
    41   19  144 1    
    42   20   21 2    
    43   20   22 1    
    44   22   23 1    
    45   22   24 1    
    46   22  145 1    
    47   23  146 1    
    48   23  147 1    
    49   23  148 1    
    50   24   25 am   BACKBONE|DICT|INTERRES
    51   24  149 1    
    52   25   26 2    
    53   25   27 1    
    54   27   28 1    
    55   27   29 1    
    56   27  150 1    
    57   28  151 1    
    58   28  152 1    
    59   28  153 1    
    60   29   30 am   BACKBONE|DICT|INTERRES
    61   29  154 1    
    62   30   31 2    
    63   30   32 1    
    64   32   33 1    
    65   32   34 1    
    66   32  155 1    
    67   33  156 1    
    68   33  157 1    
    69   33  158 1    
    70   34   35 am   BACKBONE|DICT|INTERRES
    71   34  159 1    
    72   35   36 2    
    73   35   37 1    
    74   37   38 1    
    75   37   39 1    
    76   37  160 1    
    77   38  161 1    
    78   38  162 1    
    79   38  163 1    
    80   39   40 am   BACKBONE|DICT|INTERRES
    81   39  164 1    
    82   40   41 2    
    83   40   42 1    
    84   42   43 1    
    85   42   44 1    
    86   42  165 1    
    87   43  166 1    
    88   43  167 1    
    89   43  168 1    
    90   44   45 am   BACKBONE|DICT|INTERRES
    91   44  169 1    
    92   45   46 2    
    93   45   47 1    
    94   47   48 1    
    95   47   49 1    
    96   47  170 1    
    97   48  171 1    
    98   48  172 1    
    99   48  173 1    
   100   49   50 am   BACKBONE|DICT|INTERRES
   101   49  174 1    
   102   50   51 2    
   103   50   52 1    
   104   52   53 1    
   105   52   54 1    
   106   52  175 1    
   107   53  176 1    
   108   53  177 1    
   109   53  178 1    
   110   54   55 am   BACKBONE|DICT|INTERRES
   111   54  179 1    
   112   55   56 2    
   113   55   57 1    
   114   57   58 1    
   115   57   59 1    
   116   57  180 1    
   117   58  181 1    
   118   58  182 1    
   119   58  183 1    
   120   59   60 am   BACKBONE|DICT|INTERRES
   121   59  184 1    
   122   60   61 2    
   123   60   62 1    
   124   62   63 1    
   125   62   64 1    
   126   62  185 1    
   127   63  186 1    
   128   63  187 1    
   129   63  188 1    
   130   64   65 am   BACKBONE|DICT|INTERRES
   131   64  189 1    
   132   65   66 2    
   133   67   68 2    
   134   67   69 am   BACKBONE|DICT|INTERRES
   135   69   70 1    
   136   69  190 1    
   137   70   71 1    
   138   70   72 1    
   139   70  191 1    
   140   71  192 1    
   141   71  193 1    
   142   71  194 1    
   143   72   73 2    
   144   72   74 am   BACKBONE|DICT|INTERRES
   145   74   75 1    
   146   74  195 1    
   147   75   76 1    
   148   75   77 1    
   149   75  196 1    
   150   76  197 1    
   151   76  198 1    
   152   76  199 1    
   153   77   78 2    
   154   77   79 am   BACKBONE|DICT|INTERRES
   155   79   80 1    
   156   79  200 1    
   157   80   81 1    
   158   80   82 1    
   159   80  201 1    
   160   81  202 1    
   161   81  203 1    
   162   81  204 1    
   163   82   83 2    
   164   82   84 am   BACKBONE|DICT|INTERRES
   165   84   85 1    
   166   84  205 1    
   167   85   86 1    
   168   85   87 1    
   169   85  206 1    
   170   86  207 1    
   171   86  208 1    
   172   86  209 1    
   173   87   88 2    
   174   87   89 am   BACKBONE|DICT|INTERRES
   175   89   90 1    
   176   89  210 1    
   177   90   91 1    
   178   90   92 1    
   179   90  211 1    
   180   91  212 1    
   181   91  213 1    
   182   91  214 1    
   183   92   93 2    
   184   92   94 am   BACKBONE|DICT|INTERRES
   185   94   95 1    
   186   94  215 1    
   187   95   96 1    
   188   95   97 1    
   189   95  216 1    
   190   96  217 1    
   191   96  218 1    
   192   96  219 1    
   193   97   98 2    
   194   97   99 am   BACKBONE|DICT|INTERRES
   195   99  100 1    
   196   99  220 1    
   197  100  101 1    
   198  100  102 1    
   199  100  221 1    
   200  101  222 1    
   201  101  223 1    
   202  101  224 1    
   203  102  103 2    
   204  102  104 am   BACKBONE|DICT|INTERRES
   205  104  105 1    
   206  104  225 1    
   207  105  106 1    
   208  105  107 1    
   209  105  226 1    
   210  106  227 1    
   211  106  228 1    
   212  106  229 1    
   213  107  108 2    
   214  107  109 am   BACKBONE|DICT|INTERRES
   215  109  110 1    
   216  109  230 1    
   217  110  111 1    
   218  110  112 1    
   219  110  231 1    
   220  111  232 1    
   221  111  233 1    
   222  111  234 1    
   223  112  113 2    
   224  112  114 am   BACKBONE|DICT|INTERRES
   225  114  115 1    
   226  114  235 1    
   227  115  116 1    
   228  115  117 1    
   229  115  236 1    
   230  116  237 1    
   231  116  238 1    
   232  116  239 1    
   233  117  118 2    
   234  117  119 am   BACKBONE|DICT|INTERRES
   235  119  120 1    
   236  119  240 1    
   237  120  121 1    
   238  120  124 1    
   239  120  241 1    
   240  121  122 am   BACKBONE|DICT|INTERRES
   241  121  123 2    
   242  122  242 1    
   243  122  243 1    
   244  124  125 1    
   245  124  244 1    
   246  124  245 1    
   247  125  126 1    
   248  126  246 1    
   249  126  247 1    
@<TRIPOS>SUBSTRUCTURE
     1 UNK         1 GROUP             0       ****    0 ROOT    
