@<TRIPOS>MOLECULE
3R540
247   249    1
SMALL
USER_CHARGES


@<TRIPOS>ATOM
      1 CA          2.5937  -12.2260  -51.9011 C.3       0 UNK        -0.1800 
      2 C           2.8364  -11.8239  -50.4537 C.2       0 UNK         0.5000 
      3 O           3.3366  -10.7290  -50.1935 O.2       0 UNK        -0.5000 
      4 N           2.4744  -12.6979  -49.5076 N.am      1 UNK        -0.5000 
      5 CA          2.6078  -12.5171  -48.0572 C.3       1 UNK         0.1400 
      6 C6          2.7783  -13.8692  -47.3097 C.3       23 UNK        -0.0398 
      7 S7          1.6447  -15.2068  -47.8317 S.3       23 UNK        -0.2404 
      8 C8          2.7858  -16.1942  -48.8535 C.3       23 UNK        -0.0205 
      9 C9          2.1728  -17.4930  -49.3574 C.ar      23 UNK        -0.0193 
     10 C10         1.0256  -17.4791  -50.1579 C.ar      23 UNK        -0.1150 
     11 C11         0.4963  -18.6705  -50.6649 C.ar      23 UNK        -0.0193 
     12 C12         1.1351  -19.8803  -50.3758 C.ar      23 UNK        -0.1150 
     13 C13         2.2940  -19.9063  -49.5950 C.ar      23 UNK        -0.0193 
     14 C14         2.7978  -18.7116  -49.0757 C.ar      23 UNK        -0.1150 
     15 C15         3.0302  -21.2162  -49.3514 C.3       23 UNK        -0.0205 
     16 S16         2.5302  -22.0095  -47.7947 S.3       23 UNK        -0.2404 
     17 C17         0.8127  -22.4611  -48.1927 C.3       23 UNK        -0.0398 
     18 CA          0.2108  -23.4629  -47.1883 C.3       11 UNK         0.1400 
     19 N           0.1158  -22.9129  -45.8305 N.am      11 UNK        -0.5000 
     20 C          -0.2242  -23.6158  -44.7410 C.2       10 UNK         0.5000 
     21 O          -0.5097  -24.8136  -44.7662 O.2       10 UNK        -0.5000 
     22 CA         -0.3219  -22.8408  -43.4162 C.3       10 UNK         0.1400 
     23 CB          1.0702  -22.5338  -42.8442 C.3       10 UNK        -0.1800 
     24 N          -1.0853  -21.6039  -43.5778 N.am      10 UNK        -0.5000 
     25 C          -2.4096  -21.5670  -43.7841 C.2       9 UNK         0.5000 
     26 O          -3.1296  -22.5647  -43.7493 O.2       9 UNK        -0.5000 
     27 CA         -3.0370  -20.1987  -44.1139 C.3       9 UNK         0.1400 
     28 CB         -3.4289  -19.4598  -42.8267 C.3       9 UNK        -0.1800 
     29 N          -2.1700  -19.3427  -44.9255 N.am      9 UNK        -0.5000 
     30 C          -1.7683  -19.6251  -46.1730 C.2       8 UNK         0.5000 
     31 O          -2.1118  -20.6327  -46.7868 O.2       8 UNK        -0.5000 
     32 CA         -0.7769  -18.6452  -46.8259 C.3       8 UNK         0.1400 
     33 CB         -1.5218  -17.4527  -47.4444 C.3       8 UNK        -0.1800 
     34 N           0.2443  -18.1697  -45.8902 N.am      8 UNK        -0.5000 
     35 C           1.1344  -18.9641  -45.2781 C.2       7 UNK         0.5000 
     36 O           1.1880  -20.1820  -45.4409 O.2       7 UNK        -0.5000 
     37 CA          2.0676  -18.2965  -44.2531 C.3       7 UNK         0.1400 
     38 CB          3.1295  -17.4291  -44.9455 C.3       7 UNK        -0.1800 
     39 N           1.3207  -17.4909  -43.2870 N.am      7 UNK        -0.5000 
     40 C           0.4563  -17.9976  -42.3924 C.2       6 UNK         0.5000 
     41 O           0.2704  -19.2035  -42.2313 O.2       6 UNK        -0.5000 
     42 CA         -0.3783  -16.9934  -41.5702 C.3       6 UNK         0.1400 
     43 CB          0.3371  -16.6486  -40.2559 C.3       6 UNK        -0.1800 
     44 N          -0.6701  -15.7567  -42.2956 N.am      6 UNK        -0.5000 
     45 C          -1.3126  -15.6807  -43.4692 C.2       5 UNK         0.5000 
     46 O          -1.8593  -16.6449  -44.0032 O.2       5 UNK        -0.5000 
     47 CA         -1.3079  -14.3229  -44.1985 C.3       5 UNK         0.1400 
     48 CB         -2.7165  -13.7106  -44.2075 C.3       5 UNK        -0.1800 
     49 N          -0.3653  -13.3299  -43.6719 N.am      5 UNK        -0.5000 
     50 C           0.9712  -13.4416  -43.6169 C.2       4 UNK         0.5000 
     51 O           1.5814  -14.4756  -43.8959 O.2       4 UNK        -0.5000 
     52 CA          1.7305  -12.1788  -43.1689 C.3       4 UNK         0.1400 
     53 CB          3.2064  -12.1610  -43.6077 C.3       4 UNK        -0.1800 
     54 N           1.0517  -10.9890  -43.6809 N.am      4 UNK        -0.5000 
     55 C           0.8796   -9.8350  -43.0234 C.2       3 UNK         0.5000 
     56 O           1.3008   -9.6395  -41.8822 O.2       3 UNK        -0.5000 
     57 CA          0.0730   -8.7259  -43.7414 C.3       3 UNK         0.1400 
     58 CB          0.5883   -7.3085  -43.4131 C.3       3 UNK        -0.1800 
     59 N          -0.0571   -8.9243  -45.1927 N.am      3 UNK        -0.5000 
     60 C           0.9270   -8.9069  -46.1022 C.2       2 UNK         0.5000 
     61 O           2.1037   -8.6361  -45.8520 O.2       2 UNK        -0.5000 
     62 CA          0.5328   -9.3129  -47.5343 C.3       2 UNK         0.1400 
     63 CB          0.6203   -8.1155  -48.4925 C.3       2 UNK        -0.1800 
     64 N           1.3975  -10.3856  -48.0226 N.am      2 UNK        -0.5000 
     65 C           1.4964  -11.6077  -47.4828 C.2       1 UNK         0.5000 
     66 O           0.7642  -12.0000  -46.5724 O.2       1 UNK        -0.5000 
     67 C          -1.1326  -24.0066  -47.7179 C.2       11 UNK         0.5000 
     68 O          -1.1260  -24.9669  -48.4878 O.2       11 UNK        -0.5000 
     69 N          -2.2584  -23.4341  -47.2727 N.am      12 UNK        -0.5000 
     70 CA         -3.6134  -23.9093  -47.5576 C.3       12 UNK         0.1400 
     71 CB         -4.6359  -22.9118  -46.9949 C.3       12 UNK        -0.1800 
     72 C          -3.8973  -25.3283  -47.0301 C.2       12 UNK         0.5000 
     73 O          -4.7374  -26.0197  -47.6049 O.2       12 UNK        -0.5000 
     74 N          -3.1860  -25.7429  -45.9740 N.am      13 UNK        -0.5000 
     75 CA         -3.2287  -27.0963  -45.4296 C.3       13 UNK         0.1400 
     76 CB         -3.1946  -27.0259  -43.8944 C.3       13 UNK        -0.1800 
     77 C          -2.0591  -27.9400  -45.9632 C.2       13 UNK         0.5000 
     78 O          -2.2774  -29.0693  -46.4020 O.2       13 UNK        -0.5000 
     79 N          -0.8395  -27.3872  -45.9038 N.am      14 UNK        -0.5000 
     80 CA          0.4074  -28.1022  -46.1812 C.3       14 UNK         0.1400 
     81 CB          1.5836  -27.3032  -45.5986 C.3       14 UNK        -0.1800 
     82 C           0.6510  -28.4025  -47.6709 C.2       14 UNK         0.5000 
     83 O           1.1916  -29.4633  -47.9866 O.2       14 UNK        -0.5000 
     84 N           0.2721  -27.4682  -48.5509 N.am      15 UNK        -0.5000 
     85 CA          0.5110  -27.5318  -49.9962 C.3       15 UNK         0.1400 
     86 CB          1.4189  -26.3516  -50.3880 C.3       15 UNK        -0.1800 
     87 C          -0.7962  -27.5023  -50.8101 C.2       15 UNK         0.5000 
     88 O          -0.7365  -27.5702  -52.0383 O.2       15 UNK        -0.5000 
     89 N          -1.9428  -27.3746  -50.1240 N.am      16 UNK        -0.5000 
     90 CA         -3.2927  -27.1787  -50.6673 C.3       16 UNK         0.1400 
     91 CB         -3.7471  -28.4036  -51.4882 C.3       16 UNK        -0.1800 
     92 C          -3.4588  -25.8475  -51.4363 C.2       16 UNK         0.5000 
     93 O          -4.3615  -25.7255  -52.2664 O.2       16 UNK        -0.5000 
     94 N          -2.6058  -24.8570  -51.1389 N.am      17 UNK        -0.5000 
     95 CA         -2.5684  -23.5427  -51.7846 C.3       17 UNK         0.1400 
     96 CB         -1.1285  -23.0097  -51.7244 C.3       17 UNK        -0.1800 
     97 C          -3.5856  -22.5773  -51.1432 C.2       17 UNK         0.5000 
     98 O          -3.2109  -21.5215  -50.6321 O.2       17 UNK        -0.5000 
     99 N          -4.8548  -22.9962  -51.1313 N.am      18 UNK        -0.5000 
    100 CA        -5.9655  -22.3040  -50.4865 C.3       18 UNK         0.1400 
    101 CB        -7.1276  -23.2966  -50.3286 C.3       18 UNK        -0.1800 
    102 C         -6.4223  -21.0442  -51.2433 C.2       18 UNK         0.5000 
    103 O         -6.2405  -20.9477  -52.4614 O.2       18 UNK        -0.5000 
    104 N         -7.0589  -20.1373  -50.4867 N.am      19 UNK        -0.5000 
    105 CA        -7.6612  -18.8650  -50.9009 C.3       19 UNK         0.1400 
    106 CB        -8.7836  -19.1133  -51.9330 C.3       19 UNK        -0.1800 
    107 C         -6.6400  -17.8250  -51.4067 C.2       19 UNK         0.5000 
    108 O         -5.4419  -18.1012  -51.4990 O.2       19 UNK        -0.5000 
    109 N         -7.1446  -16.6335  -51.7581 N.am      20 UNK        -0.5000 
    110 CA        -6.3768  -15.5458  -52.3777 C.3       20 UNK         0.1400 
    111 CB        -7.2581  -14.2895  -52.4504 C.3       20 UNK        -0.1800 
    112 C         -5.8298  -15.9059  -53.7755 C.2       20 UNK         0.5000 
    113 O         -4.8578  -15.2993  -54.2261 O.2       20 UNK        -0.5000 
    114 N         -6.4471  -16.9084  -54.4169 N.am      21 UNK        -0.5000 
    115 CA        -5.9916  -17.5382  -55.6538 C.3       21 UNK         0.1400 
    116 CB        -7.1138  -18.4439  -56.1846 C.3       21 UNK        -0.1800 
    117 C         -4.6864  -18.3446  -55.4897 C.2       21 UNK         0.5000 
    118 O         -4.0029  -18.5665  -56.4900 O.2       21 UNK        -0.5000 
    119 N         -4.3574  -18.7568  -54.2541 N.am      22 UNK        -0.5000 
    120 CA        -3.1651  -19.5442  -53.9041 C.3       22 UNK         0.1400 
    121 C         -3.1834  -20.9681  -54.5400 C.2       22 UNK         0.5000 
    122 N         -4.2986  -21.6824  -54.4446 N.am      22 UNK        -0.7600 
    123 O         -2.2104  -21.4316  -55.1282 O.2       22 UNK        -0.5000 
    124 C124       -1.8607  -18.7307  -54.1447 C.3       23 UNK        -0.0398 
    125 S125       -0.4136  -19.3116  -53.1998 S.3       23 UNK        -0.2404 
    126 C126       -0.7528  -18.6504  -51.5362 C.3       23 UNK        -0.0205 
    127 H127        1.9180  -11.5169  -52.3791 H         1 UNK         0.0600 
    128 H128        2.1533  -13.2206  -51.9771 H         1 UNK         0.0600 
    129 H129        3.5340  -12.2277  -52.4524 H         1 UNK         0.0600 
    130 H130        2.0253  -13.5610  -49.7792 H         1 UNK         0.3000 
    131 H131        3.5337  -11.9651  -47.8801 H         1 UNK         0.0600 
    132 H132        3.8049  -14.2110  -47.4443 H         1 UNK         0.0800 
    133 H133        2.6759  -13.7412  -46.2328 H         1 UNK         0.0800 
    134 H134        3.6819  -16.4079  -48.2687 H         1 UNK         0.0800 
    135 H135        3.1110  -15.6037  -49.7107 H         1 UNK         0.0800 
    136 H136        0.5492  -16.5365  -50.3877 H         1 UNK         0.1150 
    137 H137        0.7405  -20.8001  -50.7829 H         1 UNK         0.1150 
    138 H138        3.6957  -18.7317  -48.4742 H         1 UNK         0.1150 
    139 H139        2.8692  -21.9044  -50.1827 H         1 UNK         0.0800 
    140 H140        4.1048  -21.0311  -49.3192 H         1 UNK         0.0800 
    141 H141        0.8240  -22.8946  -49.1929 H         1 UNK         0.0800 
    142 H142        0.2051  -21.5561  -48.2418 H         1 UNK         0.0800 
    143 H143        0.8852  -24.3195  -47.1357 H         1 UNK         0.0600 
    144 H144        0.3710  -21.9341  -45.7230 H         1 UNK         0.3000 
    145 H145       -0.8447  -23.4749  -42.6970 H         1 UNK         0.0600 
    146 H146        0.9960  -22.0279  -41.8815 H         1 UNK         0.0600 
    147 H147        1.6368  -23.4524  -42.6873 H         1 UNK         0.0600 
    148 H148        1.6550  -21.8986  -43.5090 H         1 UNK         0.0600 
    149 H149       -0.5596  -20.7378  -43.5823 H         1 UNK         0.3000 
    150 H150       -3.9463  -20.3833  -44.6898 H         1 UNK         0.0600 
    151 H151       -4.1438  -20.0434  -42.2454 H         1 UNK         0.0600 
    152 H152       -3.8939  -18.4985  -43.0463 H         1 UNK         0.0600 
    153 H153       -2.5627  -19.2781  -42.1916 H         1 UNK         0.0600 
    154 H154       -1.8873  -18.4556  -44.5162 H         1 UNK         0.3000 
    155 H155       -0.2638  -19.1770  -47.6298 H         1 UNK         0.0600 
    156 H156       -2.0348  -16.8569  -46.6894 H         1 UNK         0.0600 
    157 H157       -0.8403  -16.7965  -47.9831 H         1 UNK         0.0600 
    158 H158       -2.2712  -17.7934  -48.1600 H         1 UNK         0.0600 
    159 H159        0.2450  -17.1834  -45.6790 H         1 UNK         0.3000 
    160 H160        2.5834  -19.0901  -43.7081 H         1 UNK         0.0600 
    161 H161        2.6854  -16.5646  -45.4376 H         1 UNK         0.0600 
    162 H162        3.6689  -17.9989  -45.7034 H         1 UNK         0.0600 
    163 H163        3.8634  -17.0605  -44.2288 H         1 UNK         0.0600 
    164 H164        1.4043  -16.4832  -43.3745 H         1 UNK         0.3000 
    165 H165       -1.3303  -17.4679  -41.3276 H         1 UNK         0.0600 
    166 H166       -0.2769  -16.0008  -39.6299 H         1 UNK         0.0600 
    167 H167        0.5491  -17.5500  -39.6792 H         1 UNK         0.0600 
    168 H168        1.2866  -16.1425  -40.4355 H         1 UNK         0.0600 
    169 H169       -0.2494  -14.9128  -41.9373 H         1 UNK         0.3000 
    170 H170       -1.0179  -14.5240  -45.2321 H         1 UNK         0.0600 
    171 H171       -3.4440  -14.4056  -44.6294 H         1 UNK         0.0600 
    172 H172       -3.0503  -13.4566  -43.2007 H         1 UNK         0.0600 
    173 H173       -2.7489  -12.8044  -44.8128 H         1 UNK         0.0600 
    174 H174       -0.7681  -12.4466  -43.3962 H         1 UNK         0.3000 
    175 H175        1.6986  -12.1831  -42.0776 H         1 UNK         0.0600 
    176 H176        3.3018  -12.1024  -44.6914 H         1 UNK         0.0600 
    177 H177        3.7277  -11.3023  -43.1845 H         1 UNK         0.0600 
    178 H178        3.7330  -13.0554  -43.2728 H         1 UNK         0.0600 
    179 H179        0.6902  -11.0785  -44.6249 H         1 UNK         0.3000 
    180 H180       -0.9399   -8.7991  -43.3431 H         1 UNK         0.0600 
    181 H181        1.6344   -7.1801  -43.6916 H         1 UNK         0.0600 
    182 H182        0.5104   -7.1021  -42.3450 H         1 UNK         0.0600 
    183 H183        0.0061   -6.5467  -43.9314 H         1 UNK         0.0600 
    184 H184       -0.9867   -9.1684  -45.5065 H         1 UNK         0.3000 
    185 H185       -0.4948   -9.6822  -47.5364 H         1 UNK         0.0600 
    186 H186       -0.0277   -7.3030  -48.1615 H         1 UNK         0.0600 
    187 H187        1.6360   -7.7223  -48.5538 H         1 UNK         0.0600 
    188 H188        0.3071   -8.3923  -49.4994 H         1 UNK         0.0600 
    189 H189        2.0496  -10.1485  -48.7630 H         1 UNK         0.3000 
    190 H190       -2.1827  -22.5729  -46.7389 H         1 UNK         0.3000 
    191 H191       -3.7303  -23.9423  -48.6397 H         1 UNK         0.0600 
    192 H192       -4.5883  -22.8571  -45.9080 H         1 UNK         0.0600 
    193 H193       -5.6525  -23.2034  -47.2616 H         1 UNK         0.0600 
    194 H194       -4.4686  -21.9090  -47.3878 H         1 UNK         0.0600 
    195 H195       -2.5015  -25.1147  -45.5710 H         1 UNK         0.3000 
    196 H196       -4.1586  -27.5915  -45.7174 H         1 UNK         0.0600 
    197 H197       -3.2247  -28.0247  -43.4571 H         1 UNK         0.0600 
    198 H198       -4.0533  -26.4760  -43.5089 H         1 UNK         0.0600 
    199 H199       -2.2933  -26.5334  -43.5278 H         1 UNK         0.0600 
    200 H200       -0.7425  -26.4544  -45.5077 H         1 UNK         0.3000 
    201 H201        0.3659  -29.0603  -45.6586 H         1 UNK         0.0600 
    202 H202        1.4632  -27.1498  -44.5260 H         1 UNK         0.0600 
    203 H203        1.6775  -26.3234  -46.0669 H         1 UNK         0.0600 
    204 H204        2.5270  -27.8301  -45.7477 H         1 UNK         0.0600 
    205 H205       -0.1793  -26.6214  -48.2195 H         1 UNK         0.3000 
    206 H206        1.0232  -28.4577  -50.2643 H         1 UNK         0.0600 
    207 H207        2.3562  -26.3746  -49.8320 H         1 UNK         0.0600 
    208 H208        1.6713  -26.3847  -51.4485 H         1 UNK         0.0600 
    209 H209        0.9398  -25.3912  -50.1960 H         1 UNK         0.0600 
    210 H210       -1.8688  -27.3190  -49.1186 H         1 UNK         0.3000 
    211 H211       -3.9556  -27.1104  -49.8062 H         1 UNK         0.0600 
    212 H212       -3.1949  -28.4954  -52.4237 H         1 UNK         0.0600 
    213 H213       -4.8053  -28.3322  -51.7422 H         1 UNK         0.0600 
    214 H214       -3.6123  -29.3274  -50.9256 H         1 UNK         0.0600 
    215 H215       -1.9404  -25.0100  -50.3892 H         1 UNK         0.3000 
    216 H216       -2.8357  -23.6540  -52.8372 H         1 UNK         0.0600 
    217 H217       -1.0372  -22.0790  -52.2837 H         1 UNK         0.0600 
    218 H218       -0.4215  -23.7192  -52.1547 H         1 UNK         0.0600 
    219 H219       -0.8262  -22.8082  -50.6989 H         1 UNK         0.0600 
    220 H220       -5.0672  -23.8706  -51.5976 H         1 UNK         0.3000 
    221 H221       -5.6366  -21.9959  -49.4936 H         1 UNK         0.0600 
    222 H222       -7.4844  -23.6525  -51.2960 H         1 UNK         0.0600 
    223 H223       -6.8267  -24.1649  -49.7414 H         1 UNK         0.0600 
    224 H224       -7.9734  -22.8371  -49.8155 H         1 UNK         0.0600 
    225 H225       -7.1263  -20.3244  -49.4965 H         1 UNK         0.3000 
    226 H226       -8.1160  -18.4432  -50.0034 H         1 UNK         0.0600 
    227 H227       -9.4710  -19.8855  -51.5872 H         1 UNK         0.0600 
    228 H228       -9.3772  -18.2148  -52.1034 H         1 UNK         0.0600 
    229 H229       -8.3877  -19.4298  -52.8986 H         1 UNK         0.0600 
    230 H230       -8.1334  -16.4664  -51.6378 H         1 UNK         0.3000 
    231 H231       -5.5196  -15.3292  -51.7369 H         1 UNK         0.0600 
    232 H232       -6.7088  -13.4512  -52.8811 H         1 UNK         0.0600 
    233 H233       -7.5906  -13.9822  -51.4586 H         1 UNK         0.0600 
    234 H234       -8.1429  -14.4534  -53.0669 H         1 UNK         0.0600 
    235 H235       -7.2470  -17.3296  -53.9697 H         1 UNK         0.3000 
    236 H236       -5.8050  -16.7516  -56.3879 H         1 UNK         0.0600 
    237 H237       -8.0270  -17.8773  -56.3673 H         1 UNK         0.0600 
    238 H238       -6.8269  -18.9089  -57.1287 H         1 UNK         0.0600 
    239 H239       -7.3484  -19.2456  -55.4827 H         1 UNK         0.0600 
    240 H240       -4.9714  -18.5402  -53.4771 H         1 UNK         0.3000 
    241 H241       -3.2469  -19.7116  -52.8297 H         1 UNK         0.0600 
    242 H242       -5.0869  -21.3378  -53.8999 H         1 UNK         0.3800 
    243 H243       -4.3476  -22.5900  -54.8776 H         1 UNK         0.3800 
    244 H244       -2.0214  -17.6830  -53.8865 H         1 UNK         0.0800 
    245 H245       -1.6003  -18.7330  -55.2042 H         1 UNK         0.0800 
    246 H246       -1.5326  -19.2468  -51.0598 H         1 UNK         0.0800 
    247 H247       -1.1427  -17.6349  -51.6198 H         1 UNK         0.0800 
@<TRIPOS>BOND
     1    1    2 1    
     2    1  127 1    
     3    1  128 1    
     4    1  129 1    
     5    2    3 2    
     6    2    4 am   BACKBONE|DICT|INTERRES
     7    4    5 1    
     8    4  130 1    
     9    5    6 1    
    10    5   65 1    
    11    5  131 1    
    12    6    7 1    
    13    6  132 1    
    14    6  133 1    
    15    7    8 1    
    16    8    9 1    
    17    8  134 1    
    18    8  135 1    
    19    9   10 ar   
    20    9   14 ar   
    21   10   11 ar   
    22   10  136 1    
    23   11   12 ar   
    24   11  126 1    
    25   12   13 ar   
    26   12  137 1    
    27   13   14 ar   
    28   13   15 1    
    29   14  138 1    
    30   15   16 1    
    31   15  139 1    
    32   15  140 1    
    33   16   17 1    
    34   17   18 1    
    35   17  141 1    
    36   17  142 1    
    37   18   19 1    
    38   18   67 1    
    39   18  143 1    
    40   19   20 am   BACKBONE|DICT|INTERRES
    41   19  144 1    
    42   20   21 2    
    43   20   22 1    
    44   22   23 1    
    45   22   24 1    
    46   22  145 1    
    47   23  146 1    
    48   23  147 1    
    49   23  148 1    
    50   24   25 am   BACKBONE|DICT|INTERRES
    51   24  149 1    
    52   25   26 2    
    53   25   27 1    
    54   27   28 1    
    55   27   29 1    
    56   27  150 1    
    57   28  151 1    
    58   28  152 1    
    59   28  153 1    
    60   29   30 am   BACKBONE|DICT|INTERRES
    61   29  154 1    
    62   30   31 2    
    63   30   32 1    
    64   32   33 1    
    65   32   34 1    
    66   32  155 1    
    67   33  156 1    
    68   33  157 1    
    69   33  158 1    
    70   34   35 am   BACKBONE|DICT|INTERRES
    71   34  159 1    
    72   35   36 2    
    73   35   37 1    
    74   37   38 1    
    75   37   39 1    
    76   37  160 1    
    77   38  161 1    
    78   38  162 1    
    79   38  163 1    
    80   39   40 am   BACKBONE|DICT|INTERRES
    81   39  164 1    
    82   40   41 2    
    83   40   42 1    
    84   42   43 1    
    85   42   44 1    
    86   42  165 1    
    87   43  166 1    
    88   43  167 1    
    89   43  168 1    
    90   44   45 am   BACKBONE|DICT|INTERRES
    91   44  169 1    
    92   45   46 2    
    93   45   47 1    
    94   47   48 1    
    95   47   49 1    
    96   47  170 1    
    97   48  171 1    
    98   48  172 1    
    99   48  173 1    
   100   49   50 am   BACKBONE|DICT|INTERRES
   101   49  174 1    
   102   50   51 2    
   103   50   52 1    
   104   52   53 1    
   105   52   54 1    
   106   52  175 1    
   107   53  176 1    
   108   53  177 1    
   109   53  178 1    
   110   54   55 am   BACKBONE|DICT|INTERRES
   111   54  179 1    
   112   55   56 2    
   113   55   57 1    
   114   57   58 1    
   115   57   59 1    
   116   57  180 1    
   117   58  181 1    
   118   58  182 1    
   119   58  183 1    
   120   59   60 am   BACKBONE|DICT|INTERRES
   121   59  184 1    
   122   60   61 2    
   123   60   62 1    
   124   62   63 1    
   125   62   64 1    
   126   62  185 1    
   127   63  186 1    
   128   63  187 1    
   129   63  188 1    
   130   64   65 am   BACKBONE|DICT|INTERRES
   131   64  189 1    
   132   65   66 2    
   133   67   68 2    
   134   67   69 am   BACKBONE|DICT|INTERRES
   135   69   70 1    
   136   69  190 1    
   137   70   71 1    
   138   70   72 1    
   139   70  191 1    
   140   71  192 1    
   141   71  193 1    
   142   71  194 1    
   143   72   73 2    
   144   72   74 am   BACKBONE|DICT|INTERRES
   145   74   75 1    
   146   74  195 1    
   147   75   76 1    
   148   75   77 1    
   149   75  196 1    
   150   76  197 1    
   151   76  198 1    
   152   76  199 1    
   153   77   78 2    
   154   77   79 am   BACKBONE|DICT|INTERRES
   155   79   80 1    
   156   79  200 1    
   157   80   81 1    
   158   80   82 1    
   159   80  201 1    
   160   81  202 1    
   161   81  203 1    
   162   81  204 1    
   163   82   83 2    
   164   82   84 am   BACKBONE|DICT|INTERRES
   165   84   85 1    
   166   84  205 1    
   167   85   86 1    
   168   85   87 1    
   169   85  206 1    
   170   86  207 1    
   171   86  208 1    
   172   86  209 1    
   173   87   88 2    
   174   87   89 am   BACKBONE|DICT|INTERRES
   175   89   90 1    
   176   89  210 1    
   177   90   91 1    
   178   90   92 1    
   179   90  211 1    
   180   91  212 1    
   181   91  213 1    
   182   91  214 1    
   183   92   93 2    
   184   92   94 am   BACKBONE|DICT|INTERRES
   185   94   95 1    
   186   94  215 1    
   187   95   96 1    
   188   95   97 1    
   189   95  216 1    
   190   96  217 1    
   191   96  218 1    
   192   96  219 1    
   193   97   98 2    
   194   97   99 am   BACKBONE|DICT|INTERRES
   195   99  100 1    
   196   99  220 1    
   197  100  101 1    
   198  100  102 1    
   199  100  221 1    
   200  101  222 1    
   201  101  223 1    
   202  101  224 1    
   203  102  103 2    
   204  102  104 am   BACKBONE|DICT|INTERRES
   205  104  105 1    
   206  104  225 1    
   207  105  106 1    
   208  105  107 1    
   209  105  226 1    
   210  106  227 1    
   211  106  228 1    
   212  106  229 1    
   213  107  108 2    
   214  107  109 am   BACKBONE|DICT|INTERRES
   215  109  110 1    
   216  109  230 1    
   217  110  111 1    
   218  110  112 1    
   219  110  231 1    
   220  111  232 1    
   221  111  233 1    
   222  111  234 1    
   223  112  113 2    
   224  112  114 am   BACKBONE|DICT|INTERRES
   225  114  115 1    
   226  114  235 1    
   227  115  116 1    
   228  115  117 1    
   229  115  236 1    
   230  116  237 1    
   231  116  238 1    
   232  116  239 1    
   233  117  118 2    
   234  117  119 am   BACKBONE|DICT|INTERRES
   235  119  120 1    
   236  119  240 1    
   237  120  121 1    
   238  120  124 1    
   239  120  241 1    
   240  121  122 am   BACKBONE|DICT|INTERRES
   241  121  123 2    
   242  122  242 1    
   243  122  243 1    
   244  124  125 1    
   245  124  244 1    
   246  124  245 1    
   247  125  126 1    
   248  126  246 1    
   249  126  247 1    
@<TRIPOS>SUBSTRUCTURE
     1 UNK         1 GROUP             0       ****    0 ROOT    
