@<TRIPOS>MOLECULE
3R540
247   249    1
SMALL
USER_CHARGES


@<TRIPOS>ATOM
      1 CA          5.1936  -11.6303  -52.1112 C.3       0 UNK        -0.1800 
      2 C           4.8750  -12.7861  -51.1728 C.2       0 UNK         0.5000 
      3 O           5.7046  -13.6798  -50.9995 O.2       0 UNK        -0.5000 
      4 N           3.6763  -12.7747  -50.5763 N.am      1 UNK        -0.5000 
      5 CA          3.2199  -13.7601  -49.5904 C.3       1 UNK         0.1400 
      6 C6          1.6701  -13.8542  -49.5639 C.3       23 UNK        -0.0398 
      7 S7          1.0893  -15.5457  -49.1999 S.3       23 UNK        -0.2404 
      8 C8          1.1106  -16.2443  -50.8787 C.3       23 UNK        -0.0205 
      9 C9          0.7799  -17.7272  -50.8825 C.ar      23 UNK        -0.0193 
     10 C10        -0.4471  -18.1749  -51.3789 C.ar      23 UNK        -0.1150 
     11 C11        -0.7262  -19.5420  -51.4513 C.ar      23 UNK        -0.0193 
     12 C12         0.2183  -20.4629  -50.9869 C.ar      23 UNK        -0.1150 
     13 C13         1.4457  -20.0281  -50.4745 C.ar      23 UNK        -0.0193 
     14 C14         1.7233  -18.6576  -50.4370 C.ar      23 UNK        -0.1150 
     15 C15         2.4821  -21.0503  -50.0173 C.3       23 UNK        -0.0205 
     16 S16         3.2418  -20.6941  -48.3922 S.3       23 UNK        -0.2404 
     17 C17         1.8072  -20.4657  -47.2872 C.3       23 UNK        -0.0398 
     18 CA          1.2830  -21.7832  -46.6620 C.3       11 UNK         0.1400 
     19 N           0.6039  -21.5495  -45.3835 N.am      11 UNK        -0.5000 
     20 C           0.1173  -22.5047  -44.5774 C.2       10 UNK         0.5000 
     21 O           0.2655  -23.7111  -44.7763 O.2       10 UNK        -0.5000 
     22 CA         -0.7249  -22.0330  -43.3768 C.3       10 UNK         0.1400 
     23 CB          0.1737  -21.6176  -42.2029 C.3       10 UNK        -0.1800 
     24 N          -1.6334  -20.9367  -43.7246 N.am      10 UNK        -0.5000 
     25 C          -2.6589  -21.0531  -44.5810 C.2       9 UNK         0.5000 
     26 O          -2.9791  -22.1141  -45.1124 O.2       9 UNK        -0.5000 
     27 CA         -3.4343  -19.7735  -44.9440 C.3       9 UNK         0.1400 
     28 CB         -4.5069  -19.4645  -43.8901 C.3       9 UNK        -0.1800 
     29 N          -2.5640  -18.6123  -45.1275 N.am      9 UNK        -0.5000 
     30 C          -1.6328  -18.5053  -46.0868 C.2       8 UNK         0.5000 
     31 O          -1.4409  -19.3629  -46.9478 O.2       8 UNK        -0.5000 
     32 CA         -0.7190  -17.2660  -46.0341 C.3       8 UNK         0.1400 
     33 CB         -1.4272  -16.0339  -46.6153 C.3       8 UNK        -0.1800 
     34 N          -0.2584  -16.9749  -44.6751 N.am      8 UNK        -0.5000 
     35 C           0.4936  -17.8031  -43.9357 C.2       7 UNK         0.5000 
     36 O           0.9479  -18.8672  -44.3535 O.2       7 UNK        -0.5000 
     37 CA          0.7247  -17.4114  -42.4666 C.3       7 UNK         0.1400 
     38 CB          1.8857  -16.4189  -42.3264 C.3       7 UNK        -0.1800 
     39 N          -0.4820  -16.8529  -41.8590 N.am      7 UNK        -0.5000 
     40 C          -1.5633  -17.5776  -41.5394 C.2       6 UNK         0.5000 
     41 O          -1.6380  -18.7956  -41.6954 O.2       6 UNK        -0.5000 
     42 CA         -2.7763  -16.8065  -40.9880 C.3       6 UNK         0.1400 
     43 CB         -2.6345  -16.5858  -39.4748 C.3       6 UNK        -0.1800 
     44 N          -2.9684  -15.5159  -41.6503 N.am      6 UNK        -0.5000 
     45 C          -3.3148  -15.3693  -42.9371 C.2       5 UNK         0.5000 
     46 O          -3.5526  -16.3109  -43.6913 O.2       5 UNK        -0.5000 
     47 CA         -3.3477  -13.9307  -43.4843 C.3       5 UNK         0.1400 
     48 CB         -4.7205  -13.2886  -43.2364 C.3       5 UNK        -0.1800 
     49 N          -2.3000  -13.0803  -42.9123 N.am      5 UNK        -0.5000 
     50 C          -0.9870  -13.2818  -43.0817 C.2       4 UNK         0.5000 
     51 O          -0.5162  -14.2157  -43.7357 O.2       4 UNK        -0.5000 
     52 CA         -0.0482  -12.3211  -42.3372 C.3       4 UNK         0.1400 
     53 CB          0.3994  -12.9364  -41.0026 C.3       4 UNK        -0.1800 
     54 N           1.1318  -12.0158  -43.1391 N.am      4 UNK        -0.5000 
     55 C           1.1668  -11.1323  -44.1408 C.2       3 UNK         0.5000 
     56 O           0.1970  -10.4558  -44.4866 O.2       3 UNK        -0.5000 
     57 CA          2.5113  -10.9532  -44.8707 C.3       3 UNK         0.1400 
     58 CB          3.5586  -10.2797  -43.9624 C.3       3 UNK        -0.1800 
     59 N           3.0462  -12.1725  -45.4876 N.am      3 UNK        -0.5000 
     60 C           3.4742  -13.3083  -44.9207 C.2       2 UNK         0.5000 
     61 O           3.4465  -13.5100  -43.7053 O.2       2 UNK        -0.5000 
     62 CA          4.0492  -14.3974  -45.8628 C.3       2 UNK         0.1400 
     63 CB          3.8435  -15.8151  -45.3018 C.3       2 UNK        -0.1800 
     64 N           3.5387  -14.3794  -47.2393 N.am      2 UNK        -0.5000 
     65 C           3.8187  -13.4822  -48.1921 C.2       1 UNK         0.5000 
     66 O           4.4878  -12.4668  -47.9853 O.2       1 UNK        -0.5000 
     67 C           0.3669  -22.5392  -47.6436 C.2       11 UNK         0.5000 
     68 O           0.7695  -23.5630  -48.1955 O.2       11 UNK        -0.5000 
     69 N          -0.8667  -22.0436  -47.8031 N.am      12 UNK        -0.5000 
     70 CA         -1.9029  -22.6451  -48.6341 C.3       12 UNK         0.1400 
     71 CB         -3.1209  -21.7231  -48.6725 C.3       12 UNK        -0.1800 
     72 C          -2.2986  -24.0594  -48.1823 C.2       12 UNK         0.5000 
     73 O          -2.4263  -24.9396  -49.0294 O.2       12 UNK        -0.5000 
     74 N          -2.4360  -24.2737  -46.8672 N.am      13 UNK        -0.5000 
     75 CA         -2.7131  -25.5793  -46.2668 C.3       13 UNK         0.1400 
     76 CB         -2.9634  -25.4180  -44.7601 C.3       13 UNK        -0.1800 
     77 C          -1.5971  -26.6065  -46.5315 C.2       13 UNK         0.5000 
     78 O          -1.9004  -27.7558  -46.8526 O.2       13 UNK        -0.5000 
     79 N          -0.3334  -26.1675  -46.4392 N.am      14 UNK        -0.5000 
     80 CA          0.8463  -26.9700  -46.7694 C.3       14 UNK         0.1400 
     81 CB          2.1104  -26.2513  -46.2737 C.3       14 UNK        -0.1800 
     82 C           0.9474  -27.2896  -48.2743 C.2       14 UNK         0.5000 
     83 O           1.3230  -28.4055  -48.6353 O.2       14 UNK        -0.5000 
     84 N           0.5877  -26.3162  -49.1216 N.am      15 UNK        -0.5000 
     85 CA          0.5452  -26.4402  -50.5809 C.3       15 UNK         0.1400 
     86 CB          0.5350  -25.0295  -51.1932 C.3       15 UNK        -0.1800 
     87 C          -0.6551  -27.2571  -51.1059 C.2       15 UNK         0.5000 
     88 O          -0.6417  -27.6499  -52.2731 O.2       15 UNK        -0.5000 
     89 N          -1.6685  -27.4735  -50.2535 N.am      16 UNK        -0.5000 
     90 CA         -2.9848  -28.0519  -50.5477 C.3       16 UNK         0.1400 
     91 CB         -2.8659  -29.5283  -50.9801 C.3       16 UNK        -0.1800 
     92 C          -3.7882  -27.1794  -51.5380 C.2       16 UNK         0.5000 
     93 O          -4.3888  -27.6921  -52.4847 O.2       16 UNK        -0.5000 
     94 N          -3.7591  -25.8651  -51.2976 N.am      17 UNK        -0.5000 
     95 CA         -4.3830  -24.8147  -52.0942 C.3       17 UNK         0.1400 
     96 CB         -3.2611  -23.8971  -52.6101 C.3       17 UNK        -0.1800 
     97 C          -5.3867  -24.0155  -51.2423 C.2       17 UNK         0.5000 
     98 O          -5.4755  -24.2143  -50.0280 O.2       17 UNK        -0.5000 
     99 N          -6.1224  -23.1078  -51.8968 N.am      18 UNK        -0.5000 
    100 CA        -6.9965  -22.1271  -51.2497 C.3       18 UNK         0.1400 
    101 CB        -7.9438  -21.5330  -52.3040 C.3       18 UNK        -0.1800 
    102 C         -6.1750  -21.0068  -50.5846 C.2       18 UNK         0.5000 
    103 O         -5.1228  -20.6373  -51.1056 O.2       18 UNK        -0.5000 
    104 N         -6.6837  -20.4636  -49.4704 N.am      19 UNK        -0.5000 
    105 CA        -6.0331  -19.4166  -48.6687 C.3       19 UNK         0.1400 
    106 CB        -6.6814  -19.3875  -47.2747 C.3       19 UNK        -0.1800 
    107 C         -6.0372  -18.0117  -49.3103 C.2       19 UNK         0.5000 
    108 O         -5.4075  -17.1006  -48.7708 O.2       19 UNK        -0.5000 
    109 N         -6.7488  -17.8547  -50.4331 N.am      20 UNK        -0.5000 
    110 CA        -6.7619  -16.6593  -51.2748 C.3       20 UNK         0.1400 
    111 CB        -8.0768  -16.6578  -52.0790 C.3       20 UNK        -0.1800 
    112 C         -5.5133  -16.5914  -52.1859 C.2       20 UNK         0.5000 
    113 O         -4.5104  -17.2622  -51.9320 O.2       20 UNK        -0.5000 
    114 N         -5.5902  -15.7864  -53.2529 N.am      21 UNK        -0.5000 
    115 CA        -4.5827  -15.6996  -54.3106 C.3       21 UNK         0.1400 
    116 CB        -4.7892  -14.3860  -55.0857 C.3       21 UNK        -0.1800 
    117 C         -4.6515  -16.9417  -55.2235 C.2       21 UNK         0.5000 
    118 O         -5.2531  -16.8872  -56.2984 O.2       21 UNK        -0.5000 
    119 N         -4.0871  -18.0538  -54.7401 N.am      22 UNK        -0.5000 
    120 CA        -4.0335  -19.3567  -55.4170 C.3       22 UNK         0.1400 
    121 C         -3.2678  -19.3484  -56.7749 C.2       22 UNK         0.5000 
    122 N         -3.5715  -20.2835  -57.6658 N.am      22 UNK        -0.7600 
    123 O         -2.3877  -18.5261  -57.0225 O.2       22 UNK        -0.5000 
    124 C124       -3.5245  -20.4701  -54.4615 C.3       23 UNK        -0.0398 
    125 S125       -1.8075  -20.2423  -53.8742 S.3       23 UNK        -0.2404 
    126 C126       -2.0260  -20.0163  -52.0815 C.3       23 UNK        -0.0205 
    127 H127        6.0676  -11.0865  -51.7526 H         1 UNK         0.0600 
    128 H128        4.3634  -10.9276  -52.1863 H         1 UNK         0.0600 
    129 H129        5.4113  -12.0069  -53.1106 H         1 UNK         0.0600 
    130 H130        3.0587  -11.9913  -50.7332 H         1 UNK         0.3000 
    131 H131        3.6160  -14.7277  -49.9064 H         1 UNK         0.0600 
    132 H132        1.2344  -13.1616  -48.8411 H         1 UNK         0.0800 
    133 H133        1.2506  -13.5634  -50.5284 H         1 UNK         0.0800 
    134 H134        2.0959  -16.0993  -51.3241 H         1 UNK         0.0800 
    135 H135        0.4061  -15.6945  -51.5049 H         1 UNK         0.0800 
    136 H136       -1.1743  -17.4625  -51.7432 H         1 UNK         0.1150 
    137 H137        0.0078  -21.5207  -51.0534 H         1 UNK         0.1150 
    138 H138        2.6777  -18.3127  -50.0647 H         1 UNK         0.1150 
    139 H139        2.0510  -22.0512  -49.9929 H         1 UNK         0.0800 
    140 H140        3.2756  -21.0879  -50.7644 H         1 UNK         0.0800 
    141 H141        1.0187  -19.9063  -47.7919 H         1 UNK         0.0800 
    142 H142        2.1591  -19.8049  -46.4947 H         1 UNK         0.0800 
    143 H143        2.1370  -22.4276  -46.4428 H         1 UNK         0.0600 
    144 H144        0.4821  -20.5788  -45.1080 H         1 UNK         0.3000 
    145 H145       -1.3346  -22.8774  -43.0488 H         1 UNK         0.0600 
    146 H146        0.8289  -22.4373  -41.9056 H         1 UNK         0.0600 
    147 H147        0.8072  -20.7686  -42.4579 H         1 UNK         0.0600 
    148 H148       -0.4195  -21.3426  -41.3306 H         1 UNK         0.0600 
    149 H149       -1.4710  -20.0448  -43.2691 H         1 UNK         0.3000 
    150 H150       -3.9418  -19.9545  -45.8932 H         1 UNK         0.0600 
    151 H151       -5.1825  -20.3110  -43.7615 H         1 UNK         0.0600 
    152 H152       -5.1129  -18.6074  -44.1844 H         1 UNK         0.0600 
    153 H153       -4.0659  -19.2446  -42.9180 H         1 UNK         0.0600 
    154 H154       -2.7052  -17.8337  -44.4899 H         1 UNK         0.3000 
    155 H155        0.1609  -17.4727  -46.6472 H         1 UNK         0.0600 
    156 H156       -2.3294  -15.7839  -46.0580 H         1 UNK         0.0600 
    157 H157       -0.7738  -15.1612  -46.6036 H         1 UNK         0.0600 
    158 H158       -1.7201  -16.2087  -47.6515 H         1 UNK         0.0600 
    159 H159       -0.5422  -16.0850  -44.2753 H         1 UNK         0.3000 
    160 H160        0.9938  -18.3165  -41.9180 H         1 UNK         0.0600 
    161 H161        1.7105  -15.5053  -42.8945 H         1 UNK         0.0600 
    162 H162        2.8136  -16.8610  -42.6888 H         1 UNK         0.0600 
    163 H163        2.0474  -16.1429  -41.2845 H         1 UNK         0.0600 
    164 H164       -0.5172  -15.8507  -41.7524 H         1 UNK         0.3000 
    165 H165       -3.6662  -17.4148  -41.1631 H         1 UNK         0.0600 
    166 H166       -3.5222  -16.1067  -39.0614 H         1 UNK         0.0600 
    167 H167       -2.5062  -17.5352  -38.9529 H         1 UNK         0.0600 
    168 H168       -1.7730  -15.9608  -39.2361 H         1 UNK         0.0600 
    169 H169       -2.7970  -14.6879  -41.0995 H         1 UNK         0.3000 
    170 H170       -3.1855  -13.9829  -44.5628 H         1 UNK         0.0600 
    171 H171       -5.5178  -13.8939  -43.6702 H         1 UNK         0.0600 
    172 H172       -4.9311  -13.1827  -42.1714 H         1 UNK         0.0600 
    173 H173       -4.7814  -12.2998  -43.6913 H         1 UNK         0.0600 
    174 H174       -2.6101  -12.2966  -42.3558 H         1 UNK         0.3000 
    175 H175       -0.5824  -11.3921  -42.1263 H         1 UNK         0.0600 
    176 H176        0.9710  -13.8524  -41.1513 H         1 UNK         0.0600 
    177 H177        1.0256  -12.2422  -40.4419 H         1 UNK         0.0600 
    178 H178       -0.4575  -13.1801  -40.3735 H         1 UNK         0.0600 
    179 H179        1.9530  -12.5997  -43.0040 H         1 UNK         0.3000 
    180 H180        2.3229  -10.2700  -45.7005 H         1 UNK         0.0600 
    181 H181        3.8228  -10.9020  -43.1071 H         1 UNK         0.0600 
    182 H182        3.1829   -9.3332  -43.5717 H         1 UNK         0.0600 
    183 H183        4.4741  -10.0628  -44.5129 H         1 UNK         0.0600 
    184 H184        3.1844  -12.1117  -46.4895 H         1 UNK         0.3000 
    185 H185        5.1248  -14.2166  -45.9102 H         1 UNK         0.0600 
    186 H186        4.3042  -15.9210  -44.3192 H         1 UNK         0.0600 
    187 H187        2.7842  -16.0544  -45.2034 H         1 UNK         0.0600 
    188 H188        4.2975  -16.5669  -45.9476 H         1 UNK         0.0600 
    189 H189        2.9315  -15.1493  -47.4862 H         1 UNK         0.3000 
    190 H190       -1.1081  -21.1691  -47.3422 H         1 UNK         0.3000 
    191 H191       -1.5089  -22.7229  -49.6481 H         1 UNK         0.0600 
    192 H192       -3.5403  -21.5616  -47.6805 H         1 UNK         0.0600 
    193 H193       -3.9033  -22.1588  -49.2894 H         1 UNK         0.0600 
    194 H194       -2.8674  -20.7515  -49.0973 H         1 UNK         0.0600 
    195 H195       -2.3844  -23.4806  -46.2323 H         1 UNK         0.3000 
    196 H196       -3.6288  -25.9618  -46.7224 H         1 UNK         0.0600 
    197 H197       -3.1938  -26.3783  -44.2974 H         1 UNK         0.0600 
    198 H198       -3.8073  -24.7547  -44.5700 H         1 UNK         0.0600 
    199 H199       -2.0932  -25.0070  -44.2485 H         1 UNK         0.0600 
    200 H200       -0.1671  -25.2131  -46.1362 H         1 UNK         0.3000 
    201 H201        0.7670  -27.9187  -46.2345 H         1 UNK         0.0600 
    202 H202        2.0708  -26.0831  -45.1974 H         1 UNK         0.0600 
    203 H203        2.2416  -25.2830  -46.7569 H         1 UNK         0.0600 
    204 H204        3.0025  -26.8444  -46.4788 H         1 UNK         0.0600 
    205 H205        0.3632  -25.4018  -48.7392 H         1 UNK         0.3000 
    206 H206        1.4547  -26.9473  -50.9093 H         1 UNK         0.0600 
    207 H207        1.4051  -24.4544  -50.8762 H         1 UNK         0.0600 
    208 H208        0.5537  -25.0735  -52.2828 H         1 UNK         0.0600 
    209 H209       -0.3573  -24.4742  -50.9040 H         1 UNK         0.0600 
    210 H210       -1.5851  -27.0477  -49.3393 H         1 UNK         0.3000 
    211 H211       -3.5380  -28.0306  -49.6076 H         1 UNK         0.0600 
    212 H212       -2.3779  -29.6329  -51.9493 H         1 UNK         0.0600 
    213 H213       -3.8508  -29.9895  -51.0608 H         1 UNK         0.0600 
    214 H214       -2.2958  -30.1062  -50.2526 H         1 UNK         0.0600 
    215 H215       -3.2903  -25.5404  -50.4516 H         1 UNK         0.3000 
    216 H216       -4.9204  -25.2411  -52.9433 H         1 UNK         0.0600 
    217 H217       -3.6566  -23.1080  -53.2473 H         1 UNK         0.0600 
    218 H218       -2.5347  -24.4559  -53.2006 H         1 UNK         0.0600 
    219 H219       -2.7248  -23.4195  -51.7893 H         1 UNK         0.0600 
    220 H220       -5.9772  -22.9852  -52.8875 H         1 UNK         0.3000 
    221 H221       -7.5918  -22.6346  -50.4875 H         1 UNK         0.0600 
    222 H222       -7.3962  -21.0067  -53.0873 H         1 UNK         0.0600 
    223 H223       -8.5434  -22.3104  -52.7780 H         1 UNK         0.0600 
    224 H224       -8.6360  -20.8212  -51.8526 H         1 UNK         0.0600 
    225 H225       -7.5654  -20.8076  -49.1177 H         1 UNK         0.3000 
    226 H226       -4.9849  -19.6869  -48.5406 H         1 UNK         0.0600 
    227 H227       -6.5870  -20.3522  -46.7756 H         1 UNK         0.0600 
    228 H228       -6.2021  -18.6463  -46.6334 H         1 UNK         0.0600 
    229 H229       -7.7413  -19.1371  -47.3299 H         1 UNK         0.0600 
    230 H230       -7.1987  -18.6731  -50.8126 H         1 UNK         0.3000 
    231 H231       -6.7494  -15.7755  -50.6340 H         1 UNK         0.0600 
    232 H232       -8.2209  -15.7185  -52.6135 H         1 UNK         0.0600 
    233 H233       -8.9386  -16.7794  -51.4223 H         1 UNK         0.0600 
    234 H234       -8.1010  -17.4655  -52.8121 H         1 UNK         0.0600 
    235 H235       -6.4484  -15.2806  -53.4161 H         1 UNK         0.3000 
    236 H236       -3.5889  -15.6657  -53.8585 H         1 UNK         0.0600 
    237 H237       -4.6657  -13.5212  -54.4335 H         1 UNK         0.0600 
    238 H238       -4.0602  -14.2912  -55.8915 H         1 UNK         0.0600 
    239 H239       -5.7826  -14.3290  -55.5323 H         1 UNK         0.0600 
    240 H240       -3.6751  -18.0157  -53.8163 H         1 UNK         0.3000 
    241 H241       -5.0701  -19.5994  -55.6587 H         1 UNK         0.0600 
    242 H242       -4.2877  -20.9719  -57.4931 H         1 UNK         0.3800 
    243 H243       -3.0776  -20.2977  -58.5449 H         1 UNK         0.3800 
    244 H244       -4.1917  -20.5437  -53.6021 H         1 UNK         0.0800 
    245 H245       -3.5826  -21.4396  -54.9577 H         1 UNK         0.0800 
    246 H246       -2.8183  -19.2920  -51.8904 H         1 UNK         0.0800 
    247 H247       -2.3505  -20.9545  -51.6302 H         1 UNK         0.0800 
@<TRIPOS>BOND
     1    1    2 1    
     2    1  127 1    
     3    1  128 1    
     4    1  129 1    
     5    2    3 2    
     6    2    4 am   BACKBONE|DICT|INTERRES
     7    4    5 1    
     8    4  130 1    
     9    5    6 1    
    10    5   65 1    
    11    5  131 1    
    12    6    7 1    
    13    6  132 1    
    14    6  133 1    
    15    7    8 1    
    16    8    9 1    
    17    8  134 1    
    18    8  135 1    
    19    9   10 ar   
    20    9   14 ar   
    21   10   11 ar   
    22   10  136 1    
    23   11   12 ar   
    24   11  126 1    
    25   12   13 ar   
    26   12  137 1    
    27   13   14 ar   
    28   13   15 1    
    29   14  138 1    
    30   15   16 1    
    31   15  139 1    
    32   15  140 1    
    33   16   17 1    
    34   17   18 1    
    35   17  141 1    
    36   17  142 1    
    37   18   19 1    
    38   18   67 1    
    39   18  143 1    
    40   19   20 am   BACKBONE|DICT|INTERRES
    41   19  144 1    
    42   20   21 2    
    43   20   22 1    
    44   22   23 1    
    45   22   24 1    
    46   22  145 1    
    47   23  146 1    
    48   23  147 1    
    49   23  148 1    
    50   24   25 am   BACKBONE|DICT|INTERRES
    51   24  149 1    
    52   25   26 2    
    53   25   27 1    
    54   27   28 1    
    55   27   29 1    
    56   27  150 1    
    57   28  151 1    
    58   28  152 1    
    59   28  153 1    
    60   29   30 am   BACKBONE|DICT|INTERRES
    61   29  154 1    
    62   30   31 2    
    63   30   32 1    
    64   32   33 1    
    65   32   34 1    
    66   32  155 1    
    67   33  156 1    
    68   33  157 1    
    69   33  158 1    
    70   34   35 am   BACKBONE|DICT|INTERRES
    71   34  159 1    
    72   35   36 2    
    73   35   37 1    
    74   37   38 1    
    75   37   39 1    
    76   37  160 1    
    77   38  161 1    
    78   38  162 1    
    79   38  163 1    
    80   39   40 am   BACKBONE|DICT|INTERRES
    81   39  164 1    
    82   40   41 2    
    83   40   42 1    
    84   42   43 1    
    85   42   44 1    
    86   42  165 1    
    87   43  166 1    
    88   43  167 1    
    89   43  168 1    
    90   44   45 am   BACKBONE|DICT|INTERRES
    91   44  169 1    
    92   45   46 2    
    93   45   47 1    
    94   47   48 1    
    95   47   49 1    
    96   47  170 1    
    97   48  171 1    
    98   48  172 1    
    99   48  173 1    
   100   49   50 am   BACKBONE|DICT|INTERRES
   101   49  174 1    
   102   50   51 2    
   103   50   52 1    
   104   52   53 1    
   105   52   54 1    
   106   52  175 1    
   107   53  176 1    
   108   53  177 1    
   109   53  178 1    
   110   54   55 am   BACKBONE|DICT|INTERRES
   111   54  179 1    
   112   55   56 2    
   113   55   57 1    
   114   57   58 1    
   115   57   59 1    
   116   57  180 1    
   117   58  181 1    
   118   58  182 1    
   119   58  183 1    
   120   59   60 am   BACKBONE|DICT|INTERRES
   121   59  184 1    
   122   60   61 2    
   123   60   62 1    
   124   62   63 1    
   125   62   64 1    
   126   62  185 1    
   127   63  186 1    
   128   63  187 1    
   129   63  188 1    
   130   64   65 am   BACKBONE|DICT|INTERRES
   131   64  189 1    
   132   65   66 2    
   133   67   68 2    
   134   67   69 am   BACKBONE|DICT|INTERRES
   135   69   70 1    
   136   69  190 1    
   137   70   71 1    
   138   70   72 1    
   139   70  191 1    
   140   71  192 1    
   141   71  193 1    
   142   71  194 1    
   143   72   73 2    
   144   72   74 am   BACKBONE|DICT|INTERRES
   145   74   75 1    
   146   74  195 1    
   147   75   76 1    
   148   75   77 1    
   149   75  196 1    
   150   76  197 1    
   151   76  198 1    
   152   76  199 1    
   153   77   78 2    
   154   77   79 am   BACKBONE|DICT|INTERRES
   155   79   80 1    
   156   79  200 1    
   157   80   81 1    
   158   80   82 1    
   159   80  201 1    
   160   81  202 1    
   161   81  203 1    
   162   81  204 1    
   163   82   83 2    
   164   82   84 am   BACKBONE|DICT|INTERRES
   165   84   85 1    
   166   84  205 1    
   167   85   86 1    
   168   85   87 1    
   169   85  206 1    
   170   86  207 1    
   171   86  208 1    
   172   86  209 1    
   173   87   88 2    
   174   87   89 am   BACKBONE|DICT|INTERRES
   175   89   90 1    
   176   89  210 1    
   177   90   91 1    
   178   90   92 1    
   179   90  211 1    
   180   91  212 1    
   181   91  213 1    
   182   91  214 1    
   183   92   93 2    
   184   92   94 am   BACKBONE|DICT|INTERRES
   185   94   95 1    
   186   94  215 1    
   187   95   96 1    
   188   95   97 1    
   189   95  216 1    
   190   96  217 1    
   191   96  218 1    
   192   96  219 1    
   193   97   98 2    
   194   97   99 am   BACKBONE|DICT|INTERRES
   195   99  100 1    
   196   99  220 1    
   197  100  101 1    
   198  100  102 1    
   199  100  221 1    
   200  101  222 1    
   201  101  223 1    
   202  101  224 1    
   203  102  103 2    
   204  102  104 am   BACKBONE|DICT|INTERRES
   205  104  105 1    
   206  104  225 1    
   207  105  106 1    
   208  105  107 1    
   209  105  226 1    
   210  106  227 1    
   211  106  228 1    
   212  106  229 1    
   213  107  108 2    
   214  107  109 am   BACKBONE|DICT|INTERRES
   215  109  110 1    
   216  109  230 1    
   217  110  111 1    
   218  110  112 1    
   219  110  231 1    
   220  111  232 1    
   221  111  233 1    
   222  111  234 1    
   223  112  113 2    
   224  112  114 am   BACKBONE|DICT|INTERRES
   225  114  115 1    
   226  114  235 1    
   227  115  116 1    
   228  115  117 1    
   229  115  236 1    
   230  116  237 1    
   231  116  238 1    
   232  116  239 1    
   233  117  118 2    
   234  117  119 am   BACKBONE|DICT|INTERRES
   235  119  120 1    
   236  119  240 1    
   237  120  121 1    
   238  120  124 1    
   239  120  241 1    
   240  121  122 am   BACKBONE|DICT|INTERRES
   241  121  123 2    
   242  122  242 1    
   243  122  243 1    
   244  124  125 1    
   245  124  244 1    
   246  124  245 1    
   247  125  126 1    
   248  126  246 1    
   249  126  247 1    
@<TRIPOS>SUBSTRUCTURE
     1 UNK         1 GROUP             0       ****    0 ROOT    
