@<TRIPOS>MOLECULE
3R540
247   249    1
SMALL
USER_CHARGES


@<TRIPOS>ATOM
      1 CA         -4.3389  -17.9928  -44.5569 C.3       0 UNK        -0.1800 
      2 C          -4.3596  -16.8986  -45.6146 C.2       0 UNK         0.5000 
      3 O          -5.4206  -16.3316  -45.8788 O.2       0 UNK        -0.5000 
      4 N          -3.1972  -16.5800  -46.2008 N.am      1 UNK        -0.5000 
      5 CA         -3.0030  -15.3799  -47.0252 C.3       1 UNK         0.1400 
      6 C6         -1.7422  -15.4701  -47.9171 C.3       23 UNK        -0.0398 
      7 S7         -1.8029  -16.8152  -49.1502 S.3       23 UNK        -0.2404 
      8 C8         -0.1515  -17.5212  -48.8958 C.3       23 UNK        -0.0205 
      9 C9          0.2501  -18.5121  -49.9732 C.ar      23 UNK        -0.0193 
     10 C10         0.8762  -18.0721  -51.1423 C.ar      23 UNK        -0.1150 
     11 C11         1.3445  -18.9913  -52.0864 C.ar      23 UNK        -0.0193 
     12 C12         1.1883  -20.3600  -51.8486 C.ar      23 UNK        -0.1150 
     13 C13         0.5554  -20.8092  -50.6874 C.ar      23 UNK        -0.0193 
     14 C14         0.0708  -19.8796  -49.7642 C.ar      23 UNK        -0.1150 
     15 C15         0.3853  -22.2973  -50.4340 C.3       23 UNK        -0.0205 
     16 S16         1.8238  -23.0514  -49.5956 S.3       23 UNK        -0.2404 
     17 C17         1.8253  -22.2821  -47.9336 C.3       23 UNK        -0.0398 
     18 CA          1.0294  -23.0721  -46.8644 C.3       11 UNK         0.1400 
     19 N           1.3276  -22.6149  -45.5034 N.am      11 UNK        -0.5000 
     20 C           0.9768  -23.2898  -44.3984 C.2       10 UNK         0.5000 
     21 O           0.4094  -24.3824  -44.4208 O.2       10 UNK        -0.5000 
     22 CA          1.2807  -22.6336  -43.0402 C.3       10 UNK         0.1400 
     23 CB          2.7401  -22.8812  -42.6326 C.3       10 UNK        -0.1800 
     24 N           0.9922  -21.1988  -42.9823 N.am      10 UNK        -0.5000 
     25 C          -0.2254  -20.6549  -43.1264 C.2       9 UNK         0.5000 
     26 O          -1.2228  -21.2911  -43.4623 O.2       9 UNK        -0.5000 
     27 CA         -0.3469  -19.1463  -42.8596 C.3       9 UNK         0.1400 
     28 CB         -0.2159  -18.8358  -41.3604 C.3       9 UNK        -0.1800 
     29 N           0.6735  -18.4184  -43.6045 N.am      9 UNK        -0.5000 
     30 C           0.4867  -17.8907  -44.8209 C.2       8 UNK         0.5000 
     31 O          -0.6130  -17.8063  -45.3701 O.2       8 UNK        -0.5000 
     32 CA          1.7396  -17.3873  -45.5654 C.3       8 UNK         0.1400 
     33 CB          1.8198  -15.8554  -45.5325 C.3       8 UNK        -0.1800 
     34 N           2.9897  -17.9518  -45.0554 N.am      8 UNK        -0.5000 
     35 C           3.3635  -19.2302  -45.2124 C.2       7 UNK         0.5000 
     36 O           2.6846  -20.0744  -45.7970 O.2       7 UNK        -0.5000 
     37 CA          4.6936  -19.6534  -44.5618 C.3       7 UNK         0.1400 
     38 CB          5.8549  -19.4655  -45.5484 C.3       7 UNK        -0.1800 
     39 N           4.9959  -18.9406  -43.3180 N.am      7 UNK        -0.5000 
     40 C           4.2271  -18.9351  -42.2202 C.2       6 UNK         0.5000 
     41 O           3.1592  -19.5468  -42.1392 O.2       6 UNK        -0.5000 
     42 CA          4.7027  -18.0875  -41.0200 C.3       6 UNK         0.1400 
     43 CB          5.9428  -17.2133  -41.3153 C.3       6 UNK        -0.1800 
     44 N           3.6266  -17.2581  -40.4665 N.am      6 UNK        -0.5000 
     45 C           2.8781  -16.3652  -41.1291 C.2       5 UNK         0.5000 
     46 O           2.9805  -16.1306  -42.3354 O.2       5 UNK        -0.5000 
     47 CA          1.8634  -15.5834  -40.2877 C.3       5 UNK         0.1400 
     48 CB          2.5449  -14.4036  -39.5704 C.3       5 UNK        -0.1800 
     49 N           0.7906  -15.0880  -41.1453 N.am      5 UNK        -0.5000 
     50 C          -0.4369  -14.7685  -40.7206 C.2       4 UNK         0.5000 
     51 O          -0.7886  -14.8760  -39.5438 O.2       4 UNK        -0.5000 
     52 CA         -1.4459  -14.2654  -41.7774 C.3       4 UNK         0.1400 
     53 CB         -2.6169  -13.4799  -41.1522 C.3       4 UNK        -0.1800 
     54 N          -0.8729  -13.4895  -42.8832 N.am      4 UNK        -0.5000 
     55 C          -0.1151  -12.3830  -42.8149 C.2       3 UNK         0.5000 
     56 O           0.3410  -11.9190  -41.7696 O.2       3 UNK        -0.5000 
     57 CA          0.1550  -11.6450  -44.1444 C.3       3 UNK         0.1400 
     58 CB          1.4830  -12.1013  -44.7649 C.3       3 UNK        -0.1800 
     59 N          -0.9216  -11.8074  -45.1279 N.am      3 UNK        -0.5000 
     60 C          -2.1410  -11.2624  -45.0052 C.2       2 UNK         0.5000 
     61 O          -2.4511  -10.4953  -44.0926 O.2       2 UNK        -0.5000 
     62 CA         -3.2053  -11.6320  -46.0623 C.3       2 UNK         0.1400 
     63 CB         -3.2818  -10.5391  -47.1399 C.3       2 UNK        -0.1800 
     64 N          -3.0577  -12.9367  -46.7246 N.am      2 UNK        -0.5000 
     65 C          -2.9404  -14.1270  -46.1182 C.2       1 UNK         0.5000 
     66 O          -2.7708  -14.2534  -44.9033 O.2       1 UNK        -0.5000 
     67 C          -0.4850  -23.0125  -47.1303 C.2       11 UNK         0.5000 
     68 O          -1.0559  -23.9767  -47.6362 O.2       11 UNK        -0.5000 
     69 N          -1.1126  -21.8882  -46.7637 N.am      12 UNK        -0.5000 
     70 CA         -2.5293  -21.6129  -47.0029 C.3       12 UNK         0.1400 
     71 CB         -2.7819  -20.1237  -46.7469 C.3       12 UNK        -0.1800 
     72 C          -3.4898  -22.4890  -46.1746 C.2       12 UNK         0.5000 
     73 O          -4.6479  -22.6474  -46.5581 O.2       12 UNK        -0.5000 
     74 N          -2.9988  -23.0495  -45.0629 N.am      13 UNK        -0.5000 
     75 CA         -3.7040  -24.0427  -44.2565 C.3       13 UNK         0.1400 
     76 CB         -3.0653  -24.0908  -42.8598 C.3       13 UNK        -0.1800 
     77 C          -3.6984  -25.4456  -44.8975 C.2       13 UNK         0.5000 
     78 O          -4.5952  -26.2385  -44.6066 O.2       13 UNK        -0.5000 
     79 N          -2.6899  -25.7380  -45.7302 N.am      14 UNK        -0.5000 
     80 CA         -2.4771  -27.0429  -46.3545 C.3       14 UNK         0.1400 
     81 CB         -0.9771  -27.3780  -46.3042 C.3       14 UNK        -0.1800 
     82 C          -2.9905  -27.0812  -47.8033 C.2       14 UNK         0.5000 
     83 O          -3.6888  -28.0255  -48.1753 O.2       14 UNK        -0.5000 
     84 N          -2.6197  -26.0698  -48.5948 N.am      15 UNK        -0.5000 
     85 CA         -2.9318  -25.9354  -50.0154 C.3       15 UNK         0.1400 
     86 CB         -1.6283  -25.5884  -50.7556 C.3       15 UNK        -0.1800 
     87 C          -4.0125  -24.8630  -50.2464 C.2       15 UNK         0.5000 
     88 O          -4.5002  -24.2486  -49.2973 O.2       15 UNK        -0.5000 
     89 N          -4.3743  -24.6598  -51.5200 N.am      16 UNK        -0.5000 
     90 CA         -5.4429  -23.7581  -51.9650 C.3       16 UNK         0.1400 
     91 CB         -5.8467  -24.1600  -53.3907 C.3       16 UNK        -0.1800 
     92 C          -5.1119  -22.2494  -51.8708 C.2       16 UNK         0.5000 
     93 O          -6.0178  -21.4311  -52.0365 O.2       16 UNK        -0.5000 
     94 N          -3.8457  -21.9148  -51.5773 N.am      17 UNK        -0.5000 
     95 CA         -3.3122  -20.5764  -51.2924 C.3       17 UNK         0.1400 
     96 CB         -4.0736  -19.9325  -50.1122 C.3       17 UNK        -0.1800 
     97 C          -3.2584  -19.6390  -52.5172 C.2       17 UNK         0.5000 
     98 O          -3.5765  -20.0415  -53.6397 O.2       17 UNK        -0.5000 
     99 N          -2.8481  -18.3831  -52.2805 N.am      18 UNK        -0.5000 
    100 CA        -2.7356  -17.3198  -53.2876 C.3       18 UNK         0.1400 
    101 CB        -2.1192  -16.0689  -52.6468 C.3       18 UNK        -0.1800 
    102 C         -4.0686  -16.9633  -53.9748 C.2       18 UNK         0.5000 
    103 O         -4.0558  -16.4934  -55.1125 O.2       18 UNK        -0.5000 
    104 N         -5.1934  -17.2454  -53.3013 N.am      19 UNK        -0.5000 
    105 CA        -6.5546  -17.1436  -53.8338 C.3       19 UNK         0.1400 
    106 CB        -7.5506  -17.4354  -52.7014 C.3       19 UNK        -0.1800 
    107 C         -6.8184  -18.0768  -55.0349 C.2       19 UNK         0.5000 
    108 O         -7.6676  -17.7614  -55.8687 O.2       19 UNK        -0.5000 
    109 N         -6.0676  -19.1829  -55.1172 N.am      20 UNK        -0.5000 
    110 CA        -6.0606  -20.1333  -56.2274 C.3       20 UNK         0.1400 
    111 CB        -6.2858  -21.5412  -55.6600 C.3       20 UNK        -0.1800 
    112 C         -4.7385  -20.0381  -57.0151 C.2       20 UNK         0.5000 
    113 O         -4.2749  -21.0412  -57.5614 O.2       20 UNK        -0.5000 
    114 N         -4.1329  -18.8400  -57.0346 N.am      21 UNK        -0.5000 
    115 CA        -2.8811  -18.4865  -57.7132 C.3       21 UNK         0.1400 
    116 CB        -3.0742  -18.5096  -59.2439 C.3       21 UNK        -0.1800 
    117 C         -1.6698  -19.3229  -57.2472 C.2       21 UNK         0.5000 
    118 O         -0.7748  -19.6026  -58.0464 O.2       21 UNK        -0.5000 
    119 N         -1.6762  -19.7117  -55.9641 N.am      22 UNK        -0.5000 
    120 CA        -0.6755  -20.5642  -55.2990 C.3       22 UNK         0.1400 
    121 C         -0.7636  -22.0704  -55.6928 C.2       22 UNK         0.5000 
    122 N         -1.7954  -22.5209  -56.3991 N.am      22 UNK        -0.7600 
    123 O          0.1029  -22.8578  -55.3231 O.2       22 UNK        -0.5000 
    124 C124        0.7762  -20.0072  -55.3748 C.3       23 UNK        -0.0398 
    125 S125        0.9243  -18.2969  -54.7426 S.3       23 UNK        -0.2404 
    126 C126        2.0605  -18.5020  -53.3358 C.3       23 UNK        -0.0205 
    127 H127       -4.8538  -17.6526  -43.6585 H         1 UNK         0.0600 
    128 H128       -3.3210  -18.2561  -44.2746 H         1 UNK         0.0600 
    129 H129       -4.8453  -18.8864  -44.9205 H         1 UNK         0.0600 
    130 H130       -2.3468  -17.0643  -45.9263 H         1 UNK         0.3000 
    131 H131       -3.8696  -15.2665  -47.6801 H         1 UNK         0.0600 
    132 H132       -0.8613  -15.5908  -47.2890 H         1 UNK         0.0800 
    133 H133       -1.5908  -14.5436  -48.4733 H         1 UNK         0.0800 
    134 H134        0.5894  -16.7215  -48.8479 H         1 UNK         0.0800 
    135 H135       -0.1433  -18.0165  -47.9268 H         1 UNK         0.0800 
    136 H136        1.0221  -17.0134  -51.3048 H         1 UNK         0.1150 
    137 H137        1.5684  -21.0798  -52.5590 H         1 UNK         0.1150 
    138 H138       -0.4171  -20.2210  -48.8640 H         1 UNK         0.1150 
    139 H139       -0.5249  -22.4729  -49.8629 H         1 UNK         0.0800 
    140 H140        0.2385  -22.8088  -51.3866 H         1 UNK         0.0800 
    141 H141        1.5044  -21.2433  -47.9847 H         1 UNK         0.0800 
    142 H142        2.8710  -22.2352  -47.6264 H         1 UNK         0.0800 
    143 H143        1.3330  -24.1195  -46.9299 H         1 UNK         0.0600 
    144 H144        1.7901  -21.7131  -45.4186 H         1 UNK         0.3000 
    145 H145        0.6419  -23.1178  -42.2985 H         1 UNK         0.0600 
    146 H146        2.9477  -22.4785  -41.6410 H         1 UNK         0.0600 
    147 H147        2.9615  -23.9489  -42.6033 H         1 UNK         0.0600 
    148 H148        3.4361  -22.4219  -43.3332 H         1 UNK         0.0600 
    149 H149        1.7633  -20.5998  -42.6965 H         1 UNK         0.3000 
    150 H150       -1.3420  -18.8296  -43.1752 H         1 UNK         0.0600 
    151 H151       -0.9520  -19.3945  -40.7812 H         1 UNK         0.0600 
    152 H152       -0.3872  -17.7782  -41.1649 H         1 UNK         0.0600 
    153 H153        0.7702  -19.0914  -40.9719 H         1 UNK         0.0600 
    154 H154        1.6159  -18.4573  -43.2369 H         1 UNK         0.3000 
    155 H155        1.6502  -17.6957  -46.6068 H         1 UNK         0.0600 
    156 H156        1.8922  -15.4749  -44.5153 H         1 UNK         0.0600 
    157 H157        2.6826  -15.4914  -46.0904 H         1 UNK         0.0600 
    158 H158        0.9344  -15.4057  -45.9775 H         1 UNK         0.0600 
    159 H159        3.5718  -17.3359  -44.5039 H         1 UNK         0.3000 
    160 H160        4.6209  -20.7154  -44.3256 H         1 UNK         0.0600 
    161 H161        6.0028  -18.4148  -45.8014 H         1 UNK         0.0600 
    162 H162        5.6681  -20.0041  -46.4786 H         1 UNK         0.0600 
    163 H163        6.7892  -19.8472  -45.1362 H         1 UNK         0.0600 
    164 H164        5.8485  -18.4001  -43.3062 H         1 UNK         0.3000 
    165 H165        4.9765  -18.7995  -40.2403 H         1 UNK         0.0600 
    166 H166        6.2371  -16.6473  -40.4313 H         1 UNK         0.0600 
    167 H167        6.8020  -17.8220  -41.5995 H         1 UNK         0.0600 
    168 H168        5.7573  -16.4960  -42.1159 H         1 UNK         0.0600 
    169 H169        3.4441  -17.3964  -39.4825 H         1 UNK         0.3000 
    170 H170        1.4436  -16.2675  -39.5470 H         1 UNK         0.0600 
    171 H171        3.3657  -14.7457  -38.9390 H         1 UNK         0.0600 
    172 H172        2.9538  -13.6864  -40.2835 H         1 UNK         0.0600 
    173 H173        1.8439  -13.8708  -38.9278 H         1 UNK         0.0600 
    174 H174        1.0282  -15.0117  -42.1255 H         1 UNK         0.3000 
    175 H175       -1.8646  -15.1637  -42.2336 H         1 UNK         0.0600 
    176 H176       -3.1567  -14.0855  -40.4233 H         1 UNK         0.0600 
    177 H177       -2.2697  -12.5805  -40.6427 H         1 UNK         0.0600 
    178 H178       -3.3360  -13.1768  -41.9138 H         1 UNK         0.0600 
    179 H179       -1.2489  -13.7418  -43.7922 H         1 UNK         0.3000 
    180 H180        0.2437  -10.5817  -43.9116 H         1 UNK         0.0600 
    181 H181        1.4393  -13.1405  -45.0846 H         1 UNK         0.0600 
    182 H182        2.3024  -12.0104  -44.0504 H         1 UNK         0.0600 
    183 H183        1.7407  -11.4947  -45.6331 H         1 UNK         0.0600 
    184 H184       -0.7429  -12.4166  -45.9117 H         1 UNK         0.3000 
    185 H185       -4.1639  -11.6552  -45.5402 H         1 UNK         0.0600 
    186 H186       -3.4237   -9.5545  -46.6921 H         1 UNK         0.0600 
    187 H187       -2.3693  -10.4998  -47.7361 H         1 UNK         0.0600 
    188 H188       -4.1197  -10.7078  -47.8167 H         1 UNK         0.0600 
    189 H189       -3.1735  -12.9218  -47.7277 H         1 UNK         0.3000 
    190 H190       -0.5873  -21.1701  -46.2869 H         1 UNK         0.3000 
    191 H191       -2.7338  -21.8236  -48.0543 H         1 UNK         0.0600 
    192 H192       -2.1928  -19.4953  -47.4137 H         1 UNK         0.0600 
    193 H193       -3.8300  -19.8694  -46.9069 H         1 UNK         0.0600 
    194 H194       -2.5213  -19.8581  -45.7233 H         1 UNK         0.0600 
    195 H195       -2.0754  -22.7760  -44.7480 H         1 UNK         0.3000 
    196 H196       -4.7445  -23.7310  -44.1441 H         1 UNK         0.0600 
    197 H197       -3.5747  -24.8126  -42.2202 H         1 UNK         0.0600 
    198 H198       -3.1245  -23.1205  -42.3663 H         1 UNK         0.0600 
    199 H199       -2.0140  -24.3773  -42.9084 H         1 UNK         0.0600 
    200 H200       -2.0200  -25.0145  -45.9573 H         1 UNK         0.3000 
    201 H201       -3.0054  -27.8169  -45.7937 H         1 UNK         0.0600 
    202 H202       -0.6200  -27.4232  -45.2752 H         1 UNK         0.0600 
    203 H203       -0.3767  -26.6347  -46.8305 H         1 UNK         0.0600 
    204 H204       -0.7770  -28.3476  -46.7619 H         1 UNK         0.0600 
    205 H205       -2.0837  -25.3020  -48.1932 H         1 UNK         0.3000 
    206 H206       -3.3127  -26.8788  -50.4114 H         1 UNK         0.0600 
    207 H207       -0.8678  -26.3508  -50.5856 H         1 UNK         0.0600 
    208 H208       -1.7772  -25.5208  -51.8335 H         1 UNK         0.0600 
    209 H209       -1.2214  -24.6379  -50.4159 H         1 UNK         0.0600 
    210 H210       -3.9253  -25.2012  -52.2445 H         1 UNK         0.3000 
    211 H211       -6.3070  -23.9254  -51.3184 H         1 UNK         0.0600 
    212 H212       -5.0338  -24.0003  -54.0999 H         1 UNK         0.0600 
    213 H213       -6.7077  -23.5829  -53.7276 H         1 UNK         0.0600 
    214 H214       -6.1321  -25.2110  -53.4390 H         1 UNK         0.0600 
    215 H215       -3.1838  -22.6723  -51.5073 H         1 UNK         0.3000 
    216 H216       -2.2825  -20.7384  -50.9796 H         1 UNK         0.0600 
    217 H217       -3.4941  -19.1333  -49.6533 H         1 UNK         0.0600 
    218 H218       -4.2899  -20.6604  -49.3314 H         1 UNK         0.0600 
    219 H219       -5.0262  -19.5057  -50.4284 H         1 UNK         0.0600 
    220 H220       -2.5808  -18.1259  -51.3399 H         1 UNK         0.3000 
    221 H221       -2.0528  -17.6702  -54.0626 H         1 UNK         0.0600 
    222 H222       -2.7488  -15.6731  -51.8492 H         1 UNK         0.0600 
    223 H223       -1.1369  -16.2830  -52.2277 H         1 UNK         0.0600 
    224 H224       -1.9874  -15.2766  -53.3847 H         1 UNK         0.0600 
    225 H225       -5.1031  -17.6298  -52.3728 H         1 UNK         0.3000 
    226 H226       -6.7060  -16.1170  -54.1735 H         1 UNK         0.0600 
    227 H227       -7.4274  -16.7342  -51.8757 H         1 UNK         0.0600 
    228 H228       -8.5794  -17.3450  -53.0524 H         1 UNK         0.0600 
    229 H229       -7.4253  -18.4453  -52.3075 H         1 UNK         0.0600 
    230 H230       -5.3772  -19.3624  -54.3952 H         1 UNK         0.3000 
    231 H231       -6.8678  -19.9148  -56.9289 H         1 UNK         0.0600 
    232 H232       -7.2056  -21.5878  -55.0770 H         1 UNK         0.0600 
    233 H233       -5.4592  -21.8316  -55.0115 H         1 UNK         0.0600 
    234 H234       -6.3641  -22.2844  -56.4541 H         1 UNK         0.0600 
    235 H235       -4.5586  -18.0853  -56.5097 H         1 UNK         0.3000 
    236 H236       -2.6606  -17.4575  -57.4258 H         1 UNK         0.0600 
    237 H237       -2.1967  -18.1136  -59.7563 H         1 UNK         0.0600 
    238 H238       -3.2411  -19.5212  -59.6153 H         1 UNK         0.0600 
    239 H239       -3.9252  -17.8977  -59.5430 H         1 UNK         0.0600 
    240 H240       -2.4909  -19.5050  -55.4000 H         1 UNK         0.3000 
    241 H241       -0.9517  -20.5529  -54.2450 H         1 UNK         0.0600 
    242 H242       -1.8393  -23.4991  -56.6355 H         1 UNK         0.3800 
    243 H243       -2.5262  -21.8972  -56.7204 H         1 UNK         0.3800 
    244 H244        1.4577  -20.6516  -54.8201 H         1 UNK         0.0800 
    245 H245        1.1439  -20.0241  -56.4008 H         1 UNK         0.0800 
    246 H246        2.8721  -19.1807  -53.6023 H         1 UNK         0.0800 
    247 H247        2.5334  -17.5399  -53.1330 H         1 UNK         0.0800 
@<TRIPOS>BOND
     1    1    2 1    
     2    1  127 1    
     3    1  128 1    
     4    1  129 1    
     5    2    3 2    
     6    2    4 am   BACKBONE|DICT|INTERRES
     7    4    5 1    
     8    4  130 1    
     9    5    6 1    
    10    5   65 1    
    11    5  131 1    
    12    6    7 1    
    13    6  132 1    
    14    6  133 1    
    15    7    8 1    
    16    8    9 1    
    17    8  134 1    
    18    8  135 1    
    19    9   10 ar   
    20    9   14 ar   
    21   10   11 ar   
    22   10  136 1    
    23   11   12 ar   
    24   11  126 1    
    25   12   13 ar   
    26   12  137 1    
    27   13   14 ar   
    28   13   15 1    
    29   14  138 1    
    30   15   16 1    
    31   15  139 1    
    32   15  140 1    
    33   16   17 1    
    34   17   18 1    
    35   17  141 1    
    36   17  142 1    
    37   18   19 1    
    38   18   67 1    
    39   18  143 1    
    40   19   20 am   BACKBONE|DICT|INTERRES
    41   19  144 1    
    42   20   21 2    
    43   20   22 1    
    44   22   23 1    
    45   22   24 1    
    46   22  145 1    
    47   23  146 1    
    48   23  147 1    
    49   23  148 1    
    50   24   25 am   BACKBONE|DICT|INTERRES
    51   24  149 1    
    52   25   26 2    
    53   25   27 1    
    54   27   28 1    
    55   27   29 1    
    56   27  150 1    
    57   28  151 1    
    58   28  152 1    
    59   28  153 1    
    60   29   30 am   BACKBONE|DICT|INTERRES
    61   29  154 1    
    62   30   31 2    
    63   30   32 1    
    64   32   33 1    
    65   32   34 1    
    66   32  155 1    
    67   33  156 1    
    68   33  157 1    
    69   33  158 1    
    70   34   35 am   BACKBONE|DICT|INTERRES
    71   34  159 1    
    72   35   36 2    
    73   35   37 1    
    74   37   38 1    
    75   37   39 1    
    76   37  160 1    
    77   38  161 1    
    78   38  162 1    
    79   38  163 1    
    80   39   40 am   BACKBONE|DICT|INTERRES
    81   39  164 1    
    82   40   41 2    
    83   40   42 1    
    84   42   43 1    
    85   42   44 1    
    86   42  165 1    
    87   43  166 1    
    88   43  167 1    
    89   43  168 1    
    90   44   45 am   BACKBONE|DICT|INTERRES
    91   44  169 1    
    92   45   46 2    
    93   45   47 1    
    94   47   48 1    
    95   47   49 1    
    96   47  170 1    
    97   48  171 1    
    98   48  172 1    
    99   48  173 1    
   100   49   50 am   BACKBONE|DICT|INTERRES
   101   49  174 1    
   102   50   51 2    
   103   50   52 1    
   104   52   53 1    
   105   52   54 1    
   106   52  175 1    
   107   53  176 1    
   108   53  177 1    
   109   53  178 1    
   110   54   55 am   BACKBONE|DICT|INTERRES
   111   54  179 1    
   112   55   56 2    
   113   55   57 1    
   114   57   58 1    
   115   57   59 1    
   116   57  180 1    
   117   58  181 1    
   118   58  182 1    
   119   58  183 1    
   120   59   60 am   BACKBONE|DICT|INTERRES
   121   59  184 1    
   122   60   61 2    
   123   60   62 1    
   124   62   63 1    
   125   62   64 1    
   126   62  185 1    
   127   63  186 1    
   128   63  187 1    
   129   63  188 1    
   130   64   65 am   BACKBONE|DICT|INTERRES
   131   64  189 1    
   132   65   66 2    
   133   67   68 2    
   134   67   69 am   BACKBONE|DICT|INTERRES
   135   69   70 1    
   136   69  190 1    
   137   70   71 1    
   138   70   72 1    
   139   70  191 1    
   140   71  192 1    
   141   71  193 1    
   142   71  194 1    
   143   72   73 2    
   144   72   74 am   BACKBONE|DICT|INTERRES
   145   74   75 1    
   146   74  195 1    
   147   75   76 1    
   148   75   77 1    
   149   75  196 1    
   150   76  197 1    
   151   76  198 1    
   152   76  199 1    
   153   77   78 2    
   154   77   79 am   BACKBONE|DICT|INTERRES
   155   79   80 1    
   156   79  200 1    
   157   80   81 1    
   158   80   82 1    
   159   80  201 1    
   160   81  202 1    
   161   81  203 1    
   162   81  204 1    
   163   82   83 2    
   164   82   84 am   BACKBONE|DICT|INTERRES
   165   84   85 1    
   166   84  205 1    
   167   85   86 1    
   168   85   87 1    
   169   85  206 1    
   170   86  207 1    
   171   86  208 1    
   172   86  209 1    
   173   87   88 2    
   174   87   89 am   BACKBONE|DICT|INTERRES
   175   89   90 1    
   176   89  210 1    
   177   90   91 1    
   178   90   92 1    
   179   90  211 1    
   180   91  212 1    
   181   91  213 1    
   182   91  214 1    
   183   92   93 2    
   184   92   94 am   BACKBONE|DICT|INTERRES
   185   94   95 1    
   186   94  215 1    
   187   95   96 1    
   188   95   97 1    
   189   95  216 1    
   190   96  217 1    
   191   96  218 1    
   192   96  219 1    
   193   97   98 2    
   194   97   99 am   BACKBONE|DICT|INTERRES
   195   99  100 1    
   196   99  220 1    
   197  100  101 1    
   198  100  102 1    
   199  100  221 1    
   200  101  222 1    
   201  101  223 1    
   202  101  224 1    
   203  102  103 2    
   204  102  104 am   BACKBONE|DICT|INTERRES
   205  104  105 1    
   206  104  225 1    
   207  105  106 1    
   208  105  107 1    
   209  105  226 1    
   210  106  227 1    
   211  106  228 1    
   212  106  229 1    
   213  107  108 2    
   214  107  109 am   BACKBONE|DICT|INTERRES
   215  109  110 1    
   216  109  230 1    
   217  110  111 1    
   218  110  112 1    
   219  110  231 1    
   220  111  232 1    
   221  111  233 1    
   222  111  234 1    
   223  112  113 2    
   224  112  114 am   BACKBONE|DICT|INTERRES
   225  114  115 1    
   226  114  235 1    
   227  115  116 1    
   228  115  117 1    
   229  115  236 1    
   230  116  237 1    
   231  116  238 1    
   232  116  239 1    
   233  117  118 2    
   234  117  119 am   BACKBONE|DICT|INTERRES
   235  119  120 1    
   236  119  240 1    
   237  120  121 1    
   238  120  124 1    
   239  120  241 1    
   240  121  122 am   BACKBONE|DICT|INTERRES
   241  121  123 2    
   242  122  242 1    
   243  122  243 1    
   244  124  125 1    
   245  124  244 1    
   246  124  245 1    
   247  125  126 1    
   248  126  246 1    
   249  126  247 1    
@<TRIPOS>SUBSTRUCTURE
     1 UNK         1 GROUP             0       ****    0 ROOT    
