@<TRIPOS>MOLECULE
3R540
247   249    1
SMALL
USER_CHARGES


@<TRIPOS>ATOM
      1 CA          3.6793  -12.8176  -48.5663 C.3       0 UNK        -0.1800 
      2 C           2.6189  -13.4588  -47.6850 C.2       0 UNK         0.5000 
      3 O           2.0263  -12.7784  -46.8496 O.2       0 UNK        -0.5000 
      4 N           2.3609  -14.7577  -47.8813 N.am      1 UNK        -0.5000 
      5 CA          1.4222  -15.5997  -47.1212 C.3       1 UNK         0.1400 
      6 C6          1.5090  -17.0859  -47.5557 C.3       23 UNK        -0.0398 
      7 S7          1.4356  -17.3530  -49.3646 S.3       23 UNK        -0.2404 
      8 C8          0.0370  -18.4985  -49.5490 C.3       23 UNK        -0.0205 
      9 C9         -1.3008  -17.7803  -49.4989 C.ar      23 UNK        -0.0193 
     10 C10        -1.8446  -17.2276  -50.6612 C.ar      23 UNK        -0.1150 
     11 C11        -3.0988  -16.6089  -50.6457 C.ar      23 UNK        -0.0193 
     12 C12        -3.7962  -16.5298  -49.4334 C.ar      23 UNK        -0.1150 
     13 C13        -3.2672  -17.0833  -48.2653 C.ar      23 UNK        -0.0193 
     14 C14        -2.0140  -17.6984  -48.3029 C.ar      23 UNK        -0.1150 
     15 C15        -4.0577  -17.0146  -46.9685 C.3       23 UNK        -0.0205 
     16 S16        -4.8240  -18.6201  -46.5657 S.3       23 UNK        -0.2404 
     17 C17        -3.4737  -19.4533  -45.6666 C.3       23 UNK        -0.0398 
     18 CA         -2.7988  -20.5979  -46.4648 C.3       11 UNK         0.1400 
     19 N          -1.3915  -20.7670  -46.0761 N.am      11 UNK        -0.5000 
     20 C          -0.5285  -21.5801  -46.7034 C.2       10 UNK         0.5000 
     21 O          -0.8330  -22.2121  -47.7126 O.2       10 UNK        -0.5000 
     22 CA          0.8887  -21.7510  -46.1207 C.3       10 UNK         0.1400 
     23 CB          1.9224  -21.0472  -47.0108 C.3       10 UNK        -0.1800 
     24 N           1.0257  -21.2685  -44.7468 N.am      10 UNK        -0.5000 
     25 C           0.4883  -21.8609  -43.6679 C.2       9 UNK         0.5000 
     26 O          -0.1468  -22.9145  -43.7175 O.2       9 UNK        -0.5000 
     27 CA          0.6236  -21.1158  -42.3204 C.3       9 UNK         0.1400 
     28 CB          1.8754  -21.5878  -41.5669 C.3       9 UNK        -0.1800 
     29 N           0.6788  -19.6587  -42.4736 N.am      9 UNK        -0.5000 
     30 C          -0.2646  -18.9212  -43.0748 C.2       8 UNK         0.5000 
     31 O          -1.3558  -19.3805  -43.4076 O.2       8 UNK        -0.5000 
     32 CA          0.0757  -17.4656  -43.4497 C.3       8 UNK         0.1400 
     33 CB         -0.7821  -16.4817  -42.6420 C.3       8 UNK        -0.1800 
     34 N           1.4897  -17.0933  -43.3317 N.am      8 UNK        -0.5000 
     35 C           2.5210  -17.6477  -43.9859 C.2       7 UNK         0.5000 
     36 O           2.4002  -18.6064  -44.7486 O.2       7 UNK        -0.5000 
     37 CA          3.9197  -17.0541  -43.7356 C.3       7 UNK         0.1400 
     38 CB          4.3439  -16.1339  -44.8899 C.3       7 UNK        -0.1800 
     39 N           3.9844  -16.2975  -42.4849 N.am      7 UNK        -0.5000 
     40 C           4.3378  -16.8127  -41.2998 C.2       6 UNK         0.5000 
     41 O           4.6635  -17.9887  -41.1347 O.2       6 UNK        -0.5000 
     42 CA          4.3201  -15.8537  -40.0932 C.3       6 UNK         0.1400 
     43 CB          5.6837  -15.1638  -39.9361 C.3       6 UNK        -0.1800 
     44 N           3.2759  -14.8322  -40.1919 N.am      6 UNK        -0.5000 
     45 C           1.9642  -15.0771  -40.0690 C.2       5 UNK         0.5000 
     46 O           1.4999  -16.1863  -39.8062 O.2       5 UNK        -0.5000 
     47 CA          1.0061  -13.8924  -40.3048 C.3       5 UNK         0.1400 
     48 CB          0.6614  -13.2105  -38.9724 C.3       5 UNK        -0.1800 
     49 N           1.5010  -12.8810  -41.2457 N.am      5 UNK        -0.5000 
     50 C           1.8217  -13.1024  -42.5272 C.2       4 UNK         0.5000 
     51 O           1.8296  -14.2178  -43.0498 O.2       4 UNK        -0.5000 
     52 CA          2.2264  -11.8768  -43.3586 C.3       4 UNK         0.1400 
     53 CB          3.6334  -12.0538  -43.9519 C.3       4 UNK        -0.1800 
     54 N           1.2693  -11.6479  -44.4389 N.am      4 UNK        -0.5000 
     55 C           0.0702  -11.0742  -44.2767 C.2       3 UNK         0.5000 
     56 O          -0.3572  -10.7027  -43.1825 O.2       3 UNK        -0.5000 
     57 CA         -0.7911  -10.8430  -45.5297 C.3       3 UNK         0.1400 
     58 CB         -0.3329   -9.5792  -46.2762 C.3       3 UNK        -0.1800 
     59 N          -0.7873  -11.9778  -46.4564 N.am      3 UNK        -0.5000 
     60 C          -1.8860  -12.4584  -47.0610 C.2       2 UNK         0.5000 
     61 O          -3.0204  -12.0291  -46.8445 O.2       2 UNK        -0.5000 
     62 CA         -1.7179  -13.5875  -48.1017 C.3       2 UNK         0.1400 
     63 CB         -1.9350  -13.0519  -49.5254 C.3       2 UNK        -0.1800 
     64 N          -0.4187  -14.2517  -48.0497 N.am      2 UNK        -0.5000 
     65 C          -0.0362  -15.0951  -47.0844 C.2       1 UNK         0.5000 
     66 O          -0.7732  -15.4527  -46.1659 O.2       1 UNK        -0.5000 
     67 C          -3.5824  -21.9223  -46.3356 C.2       11 UNK         0.5000 
     68 O          -4.3736  -22.2608  -47.2177 O.2       11 UNK        -0.5000 
     69 N          -3.2852  -22.6632  -45.2588 N.am      12 UNK        -0.5000 
     70 CA         -3.8816  -23.9508  -44.9125 C.3       12 UNK         0.1400 
     71 CB         -3.8478  -24.0967  -43.3824 C.3       12 UNK        -0.1800 
     72 C          -3.1936  -25.1551  -45.5863 C.2       12 UNK         0.5000 
     73 O          -3.6637  -26.2804  -45.4075 O.2       12 UNK        -0.5000 
     74 N          -2.1040  -24.9315  -46.3376 N.am      13 UNK        -0.5000 
     75 CA         -1.3927  -25.9619  -47.0973 C.3       13 UNK         0.1400 
     76 CB          0.0301  -25.4759  -47.4231 C.3       13 UNK        -0.1800 
     77 C          -2.1940  -26.3189  -48.3612 C.2       13 UNK         0.5000 
     78 O          -1.9320  -25.7708  -49.4334 O.2       13 UNK        -0.5000 
     79 N          -3.2121  -27.1712  -48.1776 N.am      14 UNK        -0.5000 
     80 CA         -4.2768  -27.5505  -49.1130 C.3       14 UNK         0.1400 
     81 CB         -3.7206  -28.2382  -50.3766 C.3       14 UNK        -0.1800 
     82 C          -5.1984  -26.3614  -49.4428 C.2       14 UNK         0.5000 
     83 O          -6.3622  -26.3608  -49.0408 O.2       14 UNK        -0.5000 
     84 N          -4.6362  -25.3592  -50.1204 N.am      15 UNK        -0.5000 
     85 CA         -5.2152  -24.0609  -50.4225 C.3       15 UNK         0.1400 
     86 CB         -6.3889  -24.1833  -51.4160 C.3       15 UNK        -0.1800 
     87 C          -4.0929  -23.2015  -51.0112 C.2       15 UNK         0.5000 
     88 O          -3.6372  -23.4999  -52.1174 O.2       15 UNK        -0.5000 
     89 N          -3.6751  -22.1616  -50.2751 N.am      16 UNK        -0.5000 
     90 CA         -2.7819  -21.0825  -50.7181 C.3       16 UNK         0.1400 
     91 CB         -3.5479  -20.1662  -51.6925 C.3       16 UNK        -0.1800 
     92 C          -1.4534  -21.5880  -51.3182 C.2       16 UNK         0.5000 
     93 O          -1.2430  -21.4833  -52.5281 O.2       16 UNK        -0.5000 
     94 N          -0.6070  -22.1795  -50.4633 N.am      17 UNK        -0.5000 
     95 CA          0.6907  -22.7926  -50.7827 C.3       17 UNK         0.1400 
     96 CB          1.7103  -21.7130  -51.2020 C.3       17 UNK        -0.1800 
     97 C           0.5811  -23.9445  -51.8067 C.2       17 UNK         0.5000 
     98 O           1.4971  -24.1604  -52.6016 O.2       17 UNK        -0.5000 
     99 N          -0.5671  -24.6353  -51.7796 N.am      18 UNK        -0.5000 
    100 CA        -1.0325  -25.6823  -52.6923 C.3       18 UNK         0.1400 
    101 CB        -0.1502  -26.9412  -52.5751 C.3       18 UNK        -0.1800 
    102 C         -1.2256  -25.2207  -54.1543 C.2       18 UNK         0.5000 
    103 O         -1.3907  -26.0672  -55.0346 O.2       18 UNK        -0.5000 
    104 N         -1.2219  -23.9030  -54.3988 N.am      19 UNK        -0.5000 
    105 CA        -1.4032  -23.3056  -55.7206 C.3       19 UNK         0.1400 
    106 CB        -0.5335  -22.0417  -55.8189 C.3       19 UNK        -0.1800 
    107 C         -2.8744  -22.9628  -56.0107 C.2       19 UNK         0.5000 
    108 O         -3.2138  -22.7498  -57.1753 O.2       19 UNK        -0.5000 
    109 N         -3.7108  -22.8880  -54.9615 N.am      20 UNK        -0.5000 
    110 CA        -5.1229  -22.4857  -54.9815 C.3       20 UNK         0.1400 
    111 CB        -5.9841  -23.5390  -55.7075 C.3       20 UNK        -0.1800 
    112 C         -5.3385  -21.0505  -55.5125 C.2       20 UNK         0.5000 
    113 O         -6.3739  -20.7585  -56.1132 O.2       20 UNK        -0.5000 
    114 N         -4.3482  -20.1767  -55.2756 N.am      21 UNK        -0.5000 
    115 CA        -4.3394  -18.7689  -55.6824 C.3       21 UNK         0.1400 
    116 CB        -2.9228  -18.2087  -55.4800 C.3       21 UNK        -0.1800 
    117 C         -5.3795  -17.9087  -54.9368 C.2       21 UNK         0.5000 
    118 O         -5.8322  -16.8984  -55.4759 O.2       21 UNK        -0.5000 
    119 N         -5.7427  -18.3414  -53.7265 N.am      22 UNK        -0.5000 
    120 CA        -6.8258  -17.8078  -52.8974 C.3       22 UNK         0.1400 
    121 C         -7.7702  -18.9724  -52.4991 C.2       22 UNK         0.5000 
    122 N         -9.0601  -18.7081  -52.3460 N.am      22 UNK        -0.7600 
    123 O         -7.3403  -20.1072  -52.2968 O.2       22 UNK        -0.5000 
    124 C124       -6.2849  -17.1015  -51.6294 C.3       23 UNK        -0.0398 
    125 S125       -5.4025  -15.5397  -51.9771 S.3       23 UNK        -0.2404 
    126 C126       -3.6472  -16.0558  -51.9636 C.3       23 UNK        -0.0205 
    127 H127        4.1110  -13.5324  -49.2673 H         1 UNK         0.0600 
    128 H128        4.4834  -12.4164  -47.9495 H         1 UNK         0.0600 
    129 H129        3.2451  -11.9977  -49.1382 H         1 UNK         0.0600 
    130 H130        2.8546  -15.2448  -48.6164 H         1 UNK         0.3000 
    131 H131        1.7468  -15.5508  -46.0817 H         1 UNK         0.0600 
    132 H132        0.7547  -17.6875  -47.0465 H         1 UNK         0.0800 
    133 H133        2.4644  -17.4931  -47.2250 H         1 UNK         0.0800 
    134 H134        0.0864  -19.2810  -48.7912 H         1 UNK         0.0800 
    135 H135        0.1353  -19.0063  -50.5095 H         1 UNK         0.0800 
    136 H136       -1.2932  -17.2949  -51.5887 H         1 UNK         0.1150 
    137 H137       -4.7610  -16.0477  -49.3875 H         1 UNK         0.1150 
    138 H138       -1.5944  -18.1162  -47.4006 H         1 UNK         0.1150 
    139 H139       -3.4163  -16.6697  -46.1560 H         1 UNK         0.0800 
    140 H140       -4.8505  -16.2700  -47.0532 H         1 UNK         0.0800 
    141 H141       -3.8523  -19.8038  -44.7045 H         1 UNK         0.0800 
    142 H142       -2.7350  -18.6933  -45.4162 H         1 UNK         0.0800 
    143 H143       -2.7992  -20.3269  -47.5211 H         1 UNK         0.0600 
    144 H144       -1.1060  -20.3067  -45.2193 H         1 UNK         0.3000 
    145 H145        1.1121  -22.8194  -46.1269 H         1 UNK         0.0600 
    146 H146        2.9358  -21.2124  -46.6448 H         1 UNK         0.0600 
    147 H147        1.8817  -21.4241  -48.0331 H         1 UNK         0.0600 
    148 H148        1.7540  -19.9718  -47.0495 H         1 UNK         0.0600 
    149 H149        1.5263  -20.3921  -44.6287 H         1 UNK         0.3000 
    150 H150       -0.2554  -21.3566  -41.7191 H         1 UNK         0.0600 
    151 H151        1.8575  -22.6682  -41.4177 H         1 UNK         0.0600 
    152 H152        1.9408  -21.1254  -40.5818 H         1 UNK         0.0600 
    153 H153        2.7884  -21.3457  -42.1127 H         1 UNK         0.0600 
    154 H154        1.5494  -19.2081  -42.2330 H         1 UNK         0.3000 
    155 H155       -0.1913  -17.3582  -44.5014 H         1 UNK         0.0600 
    156 H156       -0.5601  -16.5388  -41.5767 H         1 UNK         0.0600 
    157 H157       -1.8445  -16.6945  -42.7676 H         1 UNK         0.0600 
    158 H158       -0.6209  -15.4552  -42.9718 H         1 UNK         0.0600 
    159 H159        1.6773  -16.2542  -42.7962 H         1 UNK         0.3000 
    160 H160        4.6233  -17.8885  -43.6998 H         1 UNK         0.0600 
    161 H161        3.7118  -15.2490  -44.9529 H         1 UNK         0.0600 
    162 H162        4.2922  -16.6511  -45.8483 H         1 UNK         0.0600 
    163 H163        5.3722  -15.7958  -44.7617 H         1 UNK         0.0600 
    164 H164        3.6714  -15.3364  -42.5262 H         1 UNK         0.3000 
    165 H165        4.1345  -16.4502  -39.1973 H         1 UNK         0.0600 
    166 H166        5.7082  -14.5369  -39.0446 H         1 UNK         0.0600 
    167 H167        6.4837  -15.8987  -39.8371 H         1 UNK         0.0600 
    168 H168        5.9196  -14.5356  -40.7960 H         1 UNK         0.0600 
    169 H169        3.5726  -13.8894  -40.3965 H         1 UNK         0.3000 
    170 H170        0.0840  -14.2995  -40.7232 H         1 UNK         0.0600 
    171 H171        0.2629  -13.9302  -38.2558 H         1 UNK         0.0600 
    172 H172        1.5384  -12.7469  -38.5190 H         1 UNK         0.0600 
    173 H173       -0.0957  -12.4379  -39.1082 H         1 UNK         0.0600 
    174 H174        1.5189  -11.9310  -40.9035 H         1 UNK         0.3000 
    175 H175        2.2471  -10.9960  -42.7132 H         1 UNK         0.0600 
    176 H176        3.6814  -12.9004  -44.6363 H         1 UNK         0.0600 
    177 H177        3.9415  -11.1651  -44.5028 H         1 UNK         0.0600 
    178 H178        4.3713  -12.2233  -43.1669 H         1 UNK         0.0600 
    179 H179        1.5521  -11.9812  -45.3587 H         1 UNK         0.3000 
    180 H180       -1.8049  -10.6638  -45.1655 H         1 UNK         0.0600 
    181 H181        0.6684   -9.7001  -46.6917 H         1 UNK         0.0600 
    182 H182       -0.3124   -8.7154  -45.6105 H         1 UNK         0.0600 
    183 H183       -1.0093   -9.3406  -47.0972 H         1 UNK         0.0600 
    184 H184        0.1154  -12.3915  -46.6680 H         1 UNK         0.3000 
    185 H185       -2.4912  -14.3300  -47.8979 H         1 UNK         0.0600 
    186 H186       -2.9215  -12.5977  -49.6266 H         1 UNK         0.0600 
    187 H187       -1.1947  -12.2952  -49.7877 H         1 UNK         0.0600 
    188 H188       -1.8728  -13.8539  -50.2611 H         1 UNK         0.0600 
    189 H189        0.2494  -14.0085  -48.7658 H         1 UNK         0.3000 
    190 H190       -2.5752  -22.3241  -44.6242 H         1 UNK         0.3000 
    191 H191       -4.9256  -23.9552  -45.2328 H         1 UNK         0.0600 
    192 H192       -2.8249  -24.1079  -43.0031 H         1 UNK         0.0600 
    193 H193       -4.3267  -25.0235  -43.0636 H         1 UNK         0.0600 
    194 H194       -4.3772  -23.2772  -42.8960 H         1 UNK         0.0600 
    195 H195       -1.8055  -23.9780  -46.4863 H         1 UNK         0.3000 
    196 H196       -1.3002  -26.8596  -46.4823 H         1 UNK         0.0600 
    197 H197        0.5931  -26.2527  -47.9416 H         1 UNK         0.0600 
    198 H198        0.5792  -25.2269  -46.5151 H         1 UNK         0.0600 
    199 H199        0.0259  -24.5982  -48.0673 H         1 UNK         0.0600 
    200 H200       -3.3788  -27.4580  -47.2198 H         1 UNK         0.3000 
    201 H201       -4.8881  -28.2863  -48.5881 H         1 UNK         0.0600 
    202 H202       -3.1424  -29.1245  -50.1160 H         1 UNK         0.0600 
    203 H203       -3.0759  -27.5832  -50.9606 H         1 UNK         0.0600 
    204 H204       -4.5322  -28.5603  -51.0300 H         1 UNK         0.0600 
    205 H205       -3.6434  -25.4414  -50.3205 H         1 UNK         0.3000 
    206 H206       -5.5735  -23.6085  -49.4956 H         1 UNK         0.0600 
    207 H207       -6.7551  -23.1976  -51.7065 H         1 UNK         0.0600 
    208 H208       -6.0929  -24.7052  -52.3270 H         1 UNK         0.0600 
    209 H209       -7.2302  -24.7217  -50.9809 H         1 UNK         0.0600 
    210 H210       -4.0549  -22.0602  -49.3401 H         1 UNK         0.3000 
    211 H211       -2.5248  -20.4912  -49.8394 H         1 UNK         0.0600 
    212 H212       -3.9214  -20.7195  -52.5526 H         1 UNK         0.0600 
    213 H213       -2.9131  -19.3657  -52.0707 H         1 UNK         0.0600 
    214 H214       -4.4003  -19.7053  -51.1965 H         1 UNK         0.0600 
    215 H215       -0.8692  -22.2378  -49.4794 H         1 UNK         0.3000 
    216 H216        1.0508  -23.2437  -49.8575 H         1 UNK         0.0600 
    217 H217        2.7081  -22.1387  -51.3132 H         1 UNK         0.0600 
    218 H218        1.7799  -20.9226  -50.4554 H         1 UNK         0.0600 
    219 H219        1.4436  -21.2525  -52.1537 H         1 UNK         0.0600 
    220 H220       -1.2280  -24.3984  -51.0504 H         1 UNK         0.3000 
    221 H221       -2.0300  -25.9480  -52.3422 H         1 UNK         0.0600 
    222 H222        0.8545  -26.7694  -52.9617 H         1 UNK         0.0600 
    223 H223       -0.0624  -27.2615  -51.5367 H         1 UNK         0.0600 
    224 H224       -0.5780  -27.7744  -53.1337 H         1 UNK         0.0600 
    225 H225       -1.1147  -23.2573  -53.6231 H         1 UNK         0.3000 
    226 H226       -1.0668  -24.0028  -56.4908 H         1 UNK         0.0600 
    227 H227        0.5118  -22.2637  -55.6030 H         1 UNK         0.0600 
    228 H228       -0.5757  -21.6172  -56.8227 H         1 UNK         0.0600 
    229 H229       -0.8617  -21.2675  -55.1251 H         1 UNK         0.0600 
    230 H230       -3.3474  -23.1071  -54.0374 H         1 UNK         0.3000 
    231 H231       -5.4463  -22.4652  -53.9402 H         1 UNK         0.0600 
    232 H232       -5.8176  -24.5339  -55.2944 H         1 UNK         0.0600 
    233 H233       -5.7657  -23.5766  -56.7749 H         1 UNK         0.0600 
    234 H234       -7.0464  -23.3180  -55.5983 H         1 UNK         0.0600 
    235 H235       -3.5247  -20.5141  -54.7990 H         1 UNK         0.3000 
    236 H236       -4.5784  -18.7225  -56.7468 H         1 UNK         0.0600 
    237 H237       -2.8747  -17.1540  -55.7544 H         1 UNK         0.0600 
    238 H238       -2.5986  -18.2946  -54.4425 H         1 UNK         0.0600 
    239 H239       -2.1990  -18.7382  -56.1000 H         1 UNK         0.0600 
    240 H240       -5.3671  -19.2212  -53.4044 H         1 UNK         0.3000 
    241 H241       -7.4131  -17.0913  -53.4752 H         1 UNK         0.0600 
    242 H242       -9.6813  -19.4550  -52.0762 H         1 UNK         0.3800 
    243 H243       -9.4365  -17.7850  -52.4995 H         1 UNK         0.3800 
    244 H244       -5.6460  -17.7756  -51.0604 H         1 UNK         0.0800 
    245 H245       -7.1100  -16.8460  -50.9622 H         1 UNK         0.0800 
    246 H246       -3.5066  -16.8004  -52.7464 H         1 UNK         0.0800 
    247 H247       -3.0416  -15.1948  -52.2490 H         1 UNK         0.0800 
@<TRIPOS>BOND
     1    1    2 1    
     2    1  127 1    
     3    1  128 1    
     4    1  129 1    
     5    2    3 2    
     6    2    4 am   BACKBONE|DICT|INTERRES
     7    4    5 1    
     8    4  130 1    
     9    5    6 1    
    10    5   65 1    
    11    5  131 1    
    12    6    7 1    
    13    6  132 1    
    14    6  133 1    
    15    7    8 1    
    16    8    9 1    
    17    8  134 1    
    18    8  135 1    
    19    9   10 ar   
    20    9   14 ar   
    21   10   11 ar   
    22   10  136 1    
    23   11   12 ar   
    24   11  126 1    
    25   12   13 ar   
    26   12  137 1    
    27   13   14 ar   
    28   13   15 1    
    29   14  138 1    
    30   15   16 1    
    31   15  139 1    
    32   15  140 1    
    33   16   17 1    
    34   17   18 1    
    35   17  141 1    
    36   17  142 1    
    37   18   19 1    
    38   18   67 1    
    39   18  143 1    
    40   19   20 am   BACKBONE|DICT|INTERRES
    41   19  144 1    
    42   20   21 2    
    43   20   22 1    
    44   22   23 1    
    45   22   24 1    
    46   22  145 1    
    47   23  146 1    
    48   23  147 1    
    49   23  148 1    
    50   24   25 am   BACKBONE|DICT|INTERRES
    51   24  149 1    
    52   25   26 2    
    53   25   27 1    
    54   27   28 1    
    55   27   29 1    
    56   27  150 1    
    57   28  151 1    
    58   28  152 1    
    59   28  153 1    
    60   29   30 am   BACKBONE|DICT|INTERRES
    61   29  154 1    
    62   30   31 2    
    63   30   32 1    
    64   32   33 1    
    65   32   34 1    
    66   32  155 1    
    67   33  156 1    
    68   33  157 1    
    69   33  158 1    
    70   34   35 am   BACKBONE|DICT|INTERRES
    71   34  159 1    
    72   35   36 2    
    73   35   37 1    
    74   37   38 1    
    75   37   39 1    
    76   37  160 1    
    77   38  161 1    
    78   38  162 1    
    79   38  163 1    
    80   39   40 am   BACKBONE|DICT|INTERRES
    81   39  164 1    
    82   40   41 2    
    83   40   42 1    
    84   42   43 1    
    85   42   44 1    
    86   42  165 1    
    87   43  166 1    
    88   43  167 1    
    89   43  168 1    
    90   44   45 am   BACKBONE|DICT|INTERRES
    91   44  169 1    
    92   45   46 2    
    93   45   47 1    
    94   47   48 1    
    95   47   49 1    
    96   47  170 1    
    97   48  171 1    
    98   48  172 1    
    99   48  173 1    
   100   49   50 am   BACKBONE|DICT|INTERRES
   101   49  174 1    
   102   50   51 2    
   103   50   52 1    
   104   52   53 1    
   105   52   54 1    
   106   52  175 1    
   107   53  176 1    
   108   53  177 1    
   109   53  178 1    
   110   54   55 am   BACKBONE|DICT|INTERRES
   111   54  179 1    
   112   55   56 2    
   113   55   57 1    
   114   57   58 1    
   115   57   59 1    
   116   57  180 1    
   117   58  181 1    
   118   58  182 1    
   119   58  183 1    
   120   59   60 am   BACKBONE|DICT|INTERRES
   121   59  184 1    
   122   60   61 2    
   123   60   62 1    
   124   62   63 1    
   125   62   64 1    
   126   62  185 1    
   127   63  186 1    
   128   63  187 1    
   129   63  188 1    
   130   64   65 am   BACKBONE|DICT|INTERRES
   131   64  189 1    
   132   65   66 2    
   133   67   68 2    
   134   67   69 am   BACKBONE|DICT|INTERRES
   135   69   70 1    
   136   69  190 1    
   137   70   71 1    
   138   70   72 1    
   139   70  191 1    
   140   71  192 1    
   141   71  193 1    
   142   71  194 1    
   143   72   73 2    
   144   72   74 am   BACKBONE|DICT|INTERRES
   145   74   75 1    
   146   74  195 1    
   147   75   76 1    
   148   75   77 1    
   149   75  196 1    
   150   76  197 1    
   151   76  198 1    
   152   76  199 1    
   153   77   78 2    
   154   77   79 am   BACKBONE|DICT|INTERRES
   155   79   80 1    
   156   79  200 1    
   157   80   81 1    
   158   80   82 1    
   159   80  201 1    
   160   81  202 1    
   161   81  203 1    
   162   81  204 1    
   163   82   83 2    
   164   82   84 am   BACKBONE|DICT|INTERRES
   165   84   85 1    
   166   84  205 1    
   167   85   86 1    
   168   85   87 1    
   169   85  206 1    
   170   86  207 1    
   171   86  208 1    
   172   86  209 1    
   173   87   88 2    
   174   87   89 am   BACKBONE|DICT|INTERRES
   175   89   90 1    
   176   89  210 1    
   177   90   91 1    
   178   90   92 1    
   179   90  211 1    
   180   91  212 1    
   181   91  213 1    
   182   91  214 1    
   183   92   93 2    
   184   92   94 am   BACKBONE|DICT|INTERRES
   185   94   95 1    
   186   94  215 1    
   187   95   96 1    
   188   95   97 1    
   189   95  216 1    
   190   96  217 1    
   191   96  218 1    
   192   96  219 1    
   193   97   98 2    
   194   97   99 am   BACKBONE|DICT|INTERRES
   195   99  100 1    
   196   99  220 1    
   197  100  101 1    
   198  100  102 1    
   199  100  221 1    
   200  101  222 1    
   201  101  223 1    
   202  101  224 1    
   203  102  103 2    
   204  102  104 am   BACKBONE|DICT|INTERRES
   205  104  105 1    
   206  104  225 1    
   207  105  106 1    
   208  105  107 1    
   209  105  226 1    
   210  106  227 1    
   211  106  228 1    
   212  106  229 1    
   213  107  108 2    
   214  107  109 am   BACKBONE|DICT|INTERRES
   215  109  110 1    
   216  109  230 1    
   217  110  111 1    
   218  110  112 1    
   219  110  231 1    
   220  111  232 1    
   221  111  233 1    
   222  111  234 1    
   223  112  113 2    
   224  112  114 am   BACKBONE|DICT|INTERRES
   225  114  115 1    
   226  114  235 1    
   227  115  116 1    
   228  115  117 1    
   229  115  236 1    
   230  116  237 1    
   231  116  238 1    
   232  116  239 1    
   233  117  118 2    
   234  117  119 am   BACKBONE|DICT|INTERRES
   235  119  120 1    
   236  119  240 1    
   237  120  121 1    
   238  120  124 1    
   239  120  241 1    
   240  121  122 am   BACKBONE|DICT|INTERRES
   241  121  123 2    
   242  122  242 1    
   243  122  243 1    
   244  124  125 1    
   245  124  244 1    
   246  124  245 1    
   247  125  126 1    
   248  126  246 1    
   249  126  247 1    
@<TRIPOS>SUBSTRUCTURE
     1 UNK         1 GROUP             0       ****    0 ROOT    
