@<TRIPOS>MOLECULE
3R540
247   249    1
SMALL
USER_CHARGES


@<TRIPOS>ATOM
      1 CA         -2.6952   -9.8869  -48.9659 C.3       0 UNK        -0.1800 
      2 C          -1.9225  -11.0395  -48.3416 C.2       0 UNK         0.5000 
      3 O          -0.6923  -11.0142  -48.3276 O.2       0 UNK        -0.5000 
      4 N          -2.6395  -12.0400  -47.8111 N.am      1 UNK        -0.5000 
      5 CA         -2.0993  -13.2683  -47.2050 C.3       1 UNK         0.1400 
      6 C6         -3.2215  -14.2344  -46.7541 C.3       23 UNK        -0.0398 
      7 S7         -4.3777  -14.6620  -48.0999 S.3       23 UNK        -0.2404 
      8 C8         -4.0252  -16.4283  -48.3501 C.3       23 UNK        -0.0205 
      9 C9         -2.7048  -16.6583  -49.0690 C.ar      23 UNK        -0.0193 
     10 C10        -2.6236  -16.4807  -50.4521 C.ar      23 UNK        -0.1150 
     11 C11        -1.4400  -16.7661  -51.1380 C.ar      23 UNK        -0.0193 
     12 C12        -0.3274  -17.2302  -50.4280 C.ar      23 UNK        -0.1150 
     13 C13        -0.3912  -17.3971  -49.0405 C.ar      23 UNK        -0.0193 
     14 C14        -1.5794  -17.0954  -48.3659 C.ar      23 UNK        -0.1150 
     15 C15         0.8173  -17.9108  -48.2664 C.3       23 UNK        -0.0205 
     16 S16         0.9210  -19.7313  -48.2437 S.3       23 UNK        -0.2404 
     17 C17        -0.7123  -20.1671  -47.5687 C.3       23 UNK        -0.0398 
     18 CA         -0.8191  -21.6182  -47.0522 C.3       11 UNK         0.1400 
     19 N          -0.0091  -21.8474  -45.8515 N.am      11 UNK        -0.5000 
     20 C           0.1404  -23.0316  -45.2409 C.2       10 UNK         0.5000 
     21 O          -0.3379  -24.0837  -45.6604 O.2       10 UNK        -0.5000 
     22 CA          0.8831  -23.0307  -43.8944 C.3       10 UNK         0.1400 
     23 CB          2.4058  -22.9734  -44.0914 C.3       10 UNK        -0.1800 
     24 N           0.4409  -21.9314  -43.0358 N.am      10 UNK        -0.5000 
     25 C          -0.7836  -21.8443  -42.4956 C.2       9 UNK         0.5000 
     26 O          -1.6486  -22.7108  -42.6231 O.2       9 UNK        -0.5000 
     27 CA         -1.1092  -20.5568  -41.7168 C.3       9 UNK         0.1400 
     28 CB         -0.6369  -20.6699  -40.2600 C.3       9 UNK        -0.1800 
     29 N          -0.5137  -19.3689  -42.3286 N.am      9 UNK        -0.5000 
     30 C          -0.8928  -18.8507  -43.5065 C.2       8 UNK         0.5000 
     31 O          -1.8206  -19.2939  -44.1825 O.2       8 UNK        -0.5000 
     32 CA         -0.0491  -17.6811  -44.0491 C.3       8 UNK         0.1400 
     33 CB         -0.5631  -16.3437  -43.4988 C.3       8 UNK        -0.1800 
     34 N           1.3779  -17.8328  -43.7457 N.am      8 UNK        -0.5000 
     35 C           2.1296  -18.8538  -44.1901 C.2       7 UNK         0.5000 
     36 O           1.6981  -19.7131  -44.9559 O.2       7 UNK        -0.5000 
     37 CA          3.5703  -18.9968  -43.6628 C.3       7 UNK         0.1400 
     38 CB          4.6030  -18.8021  -44.7827 C.3       7 UNK        -0.1800 
     39 N           3.8714  -18.1087  -42.5395 N.am      7 UNK        -0.5000 
     40 C           3.4280  -18.3093  -41.2890 C.2       6 UNK         0.5000 
     41 O           2.7306  -19.2718  -40.9659 O.2       6 UNK        -0.5000 
     42 CA          3.7845  -17.2472  -40.2291 C.3       6 UNK         0.1400 
     43 CB          5.0349  -17.6715  -39.4446 C.3       6 UNK        -0.1800 
     44 N           3.9978  -15.9058  -40.7788 N.am      6 UNK        -0.5000 
     45 C           3.0693  -15.1808  -41.4168 C.2       5 UNK         0.5000 
     46 O           1.9177  -15.5744  -41.6049 O.2       5 UNK        -0.5000 
     47 CA          3.4920  -13.8078  -41.9793 C.3       5 UNK         0.1400 
     48 CB          4.9238  -13.3719  -41.5951 C.3       5 UNK        -0.1800 
     49 N           3.3154  -13.7540  -43.4324 N.am      5 UNK        -0.5000 
     50 C           3.8563  -14.5777  -44.3452 C.2       4 UNK         0.5000 
     51 O           4.6217  -15.4986  -44.0575 O.2       4 UNK        -0.5000 
     52 CA          3.4821  -14.3516  -45.8254 C.3       4 UNK         0.1400 
     53 CB          2.5808  -15.4852  -46.3371 C.3       4 UNK        -0.1800 
     54 N           2.8023  -13.0762  -46.0535 N.am      4 UNK        -0.5000 
     55 C           3.4196  -11.8873  -46.1262 C.2       3 UNK         0.5000 
     56 O           4.6435  -11.7542  -46.0943 O.2       3 UNK        -0.5000 
     57 CA          2.5285  -10.6311  -46.2234 C.3       3 UNK         0.1400 
     58 CB          2.4696  -10.1257  -47.6724 C.3       3 UNK        -0.1800 
     59 N           1.1646  -10.8398  -45.7292 N.am      3 UNK        -0.5000 
     60 C           0.8478  -11.1188  -44.4549 C.2       2 UNK         0.5000 
     61 O           1.6792  -11.1808  -43.5489 O.2       2 UNK        -0.5000 
     62 CA         -0.6276  -11.4331  -44.1366 C.3       2 UNK         0.1400 
     63 CB         -1.3189  -10.2022  -43.5318 C.3       2 UNK        -0.1800 
     64 N          -1.4084  -11.8988  -45.2848 N.am      2 UNK        -0.5000 
     65 C          -1.1531  -12.9933  -46.0174 C.2       1 UNK         0.5000 
     66 O          -0.2031  -13.7467  -45.8087 O.2       1 UNK        -0.5000 
     67 C          -2.3022  -21.9823  -46.8256 C.2       11 UNK         0.5000 
     68 O          -2.9034  -22.6207  -47.6854 O.2       11 UNK        -0.5000 
     69 N          -2.8672  -21.5992  -45.6709 N.am      12 UNK        -0.5000 
     70 CA         -4.2417  -21.9296  -45.2876 C.3       12 UNK         0.1400 
     71 CB         -4.6231  -21.1663  -44.0107 C.3       12 UNK        -0.1800 
     72 C          -4.4715  -23.4437  -45.1143 C.2       12 UNK         0.5000 
     73 O          -5.5103  -23.9500  -45.5387 O.2       12 UNK        -0.5000 
     74 N          -3.4932  -24.1424  -44.5224 N.am      13 UNK        -0.5000 
     75 CA         -3.5057  -25.5953  -44.3478 C.3       13 UNK         0.1400 
     76 CB         -2.4183  -25.9939  -43.3383 C.3       13 UNK        -0.1800 
     77 C          -3.3268  -26.3622  -45.6730 C.2       13 UNK         0.5000 
     78 O          -3.9815  -27.3850  -45.8762 O.2       13 UNK        -0.5000 
     79 N          -2.4476  -25.8575  -46.5476 N.am      14 UNK        -0.5000 
     80 CA         -2.1011  -26.4579  -47.8383 C.3       14 UNK         0.1400 
     81 CB         -0.7027  -25.9632  -48.2447 C.3       14 UNK        -0.1800 
     82 C          -3.1135  -26.1714  -48.9664 C.2       14 UNK         0.5000 
     83 O          -2.9522  -26.7232  -50.0566 O.2       14 UNK        -0.5000 
     84 N          -4.0996  -25.3009  -48.7102 N.am      15 UNK        -0.5000 
     85 CA         -5.0429  -24.7635  -49.6902 C.3       15 UNK         0.1400 
     86 CB         -5.9945  -23.7805  -48.9896 C.3       15 UNK        -0.1800 
     87 C          -5.8501  -25.8262  -50.4599 C.2       15 UNK         0.5000 
     88 O          -6.3148  -26.8056  -49.8714 O.2       15 UNK        -0.5000 
     89 N          -6.0331  -25.5729  -51.7577 N.am      16 UNK        -0.5000 
     90 CA         -6.7975  -26.3811  -52.6986 C.3       16 UNK         0.1400 
     91 CB         -5.8985  -27.4799  -53.2954 C.3       16 UNK        -0.1800 
     92 C          -7.3546  -25.4141  -53.7513 C.2       16 UNK         0.5000 
     93 O          -6.7877  -25.2852  -54.8382 O.2       16 UNK        -0.5000 
     94 N          -8.4006  -24.6741  -53.3565 N.am      17 UNK        -0.5000 
     95 CA         -9.0201  -23.5233  -54.0311 C.3       17 UNK         0.1400 
     96 CB         -9.5037  -23.8586  -55.4562 C.3       17 UNK        -0.1800 
     97 C          -8.1177  -22.2748  -53.9987 C.2       17 UNK         0.5000 
     98 O          -8.5222  -21.2492  -53.4499 O.2       17 UNK        -0.5000 
     99 N          -6.8958  -22.4018  -54.5271 N.am      18 UNK        -0.5000 
    100 CA        -5.7910  -21.4762  -54.2923 C.3       18 UNK         0.1400 
    101 CB        -4.8514  -21.4946  -55.5053 C.3       18 UNK        -0.1800 
    102 C         -5.0380  -21.9145  -53.0258 C.2       18 UNK         0.5000 
    103 O         -4.9774  -23.1134  -52.7392 O.2       18 UNK        -0.5000 
    104 N         -4.4734  -20.9500  -52.2913 N.am      19 UNK        -0.5000 
    105 CA        -3.7627  -21.2071  -51.0374 C.3       19 UNK         0.1400 
    106 CB        -3.6808  -19.9064  -50.2283 C.3       19 UNK        -0.1800 
    107 C         -2.3685  -21.8204  -51.2738 C.2       19 UNK         0.5000 
    108 O         -1.9934  -22.7751  -50.5961 O.2       19 UNK        -0.5000 
    109 N         -1.6392  -21.2831  -52.2577 N.am      20 UNK        -0.5000 
    110 CA        -0.2974  -21.7238  -52.6350 C.3       20 UNK         0.1400 
    111 CB         0.7470  -21.1132  -51.6809 C.3       20 UNK        -0.1800 
    112 C         -0.0505  -21.3808  -54.1107 C.2       20 UNK         0.5000 
    113 O          0.9412  -20.7276  -54.4404 O.2       20 UNK        -0.5000 
    114 N         -1.0046  -21.7780  -54.9669 N.am      21 UNK        -0.5000 
    115 CA        -1.1332  -21.4929  -56.4056 C.3       21 UNK         0.1400 
    116 CB         0.0804  -21.9998  -57.2084 C.3       21 UNK        -0.1800 
    117 C         -1.4388  -20.0126  -56.7096 C.2       21 UNK         0.5000 
    118 O         -2.3915  -19.7300  -57.4358 O.2       21 UNK        -0.5000 
    119 N         -0.6603  -19.1059  -56.1083 N.am      22 UNK        -0.5000 
    120 CA        -0.8708  -17.6498  -56.0517 C.3       22 UNK         0.1400 
    121 C         -0.7720  -16.9061  -57.4199 C.2       22 UNK         0.5000 
    122 N         -0.1828  -17.4978  -58.4516 N.am      22 UNK        -0.7600 
    123 O         -1.2019  -15.7623  -57.5448 O.2       22 UNK        -0.5000 
    124 C124       -2.1448  -17.2675  -55.2447 C.3       23 UNK        -0.0398 
    125 S125       -2.1480  -17.9448  -53.5445 S.3       23 UNK        -0.2404 
    126 C126       -1.3752  -16.5639  -52.6433 C.3       23 UNK        -0.0205 
    127 H127       -3.7729  -10.0383  -48.9006 H         1 UNK         0.0600 
    128 H128       -2.4291   -9.7843  -50.0178 H         1 UNK         0.0600 
    129 H129       -2.4508   -8.9536  -48.4586 H         1 UNK         0.0600 
    130 H130       -3.6474  -12.0035  -47.8706 H         1 UNK         0.3000 
    131 H131       -1.5077  -13.7710  -47.9733 H         1 UNK         0.0600 
    132 H132       -3.8068  -13.7888  -45.9476 H         1 UNK         0.0800 
    133 H133       -2.7931  -15.1495  -46.3414 H         1 UNK         0.0800 
    134 H134       -4.8315  -16.8628  -48.9428 H         1 UNK         0.0800 
    135 H135       -4.0445  -16.9501  -47.3920 H         1 UNK         0.0800 
    136 H136       -3.4911  -16.1394  -50.9995 H         1 UNK         0.1150 
    137 H137        0.5875  -17.4644  -50.9538 H         1 UNK         0.1150 
    138 H138       -1.6374  -17.2288  -47.2952 H         1 UNK         0.1150 
    139 H139        1.7326  -17.5125  -48.7061 H         1 UNK         0.0800 
    140 H140        0.7915  -17.5453  -47.2406 H         1 UNK         0.0800 
    141 H141       -1.4221  -19.9994  -48.3768 H         1 UNK         0.0800 
    142 H142       -0.9697  -19.4669  -46.7737 H         1 UNK         0.0800 
    143 H143       -0.4435  -22.2849  -47.8317 H         1 UNK         0.0600 
    144 H144        0.4757  -21.0373  -45.4721 H         1 UNK         0.3000 
    145 H145        0.6481  -23.9676  -43.3845 H         1 UNK         0.0600 
    146 H146        2.9289  -22.9787  -43.1350 H         1 UNK         0.0600 
    147 H147        2.7168  -22.0851  -44.6400 H         1 UNK         0.0600 
    148 H148        2.7531  -23.8394  -44.6562 H         1 UNK         0.0600 
    149 H149        1.0800  -21.1607  -42.9133 H         1 UNK         0.3000 
    150 H150       -2.1940  -20.4320  -41.7149 H         1 UNK         0.0600 
    151 H151       -1.0854  -21.5357  -39.7710 H         1 UNK         0.0600 
    152 H152       -0.9201  -19.7887  -39.6841 H         1 UNK         0.0600 
    153 H153        0.4463  -20.7798  -40.1941 H         1 UNK         0.0600 
    154 H154        0.2778  -18.9602  -41.8514 H         1 UNK         0.3000 
    155 H155       -0.1602  -17.6650  -45.1337 H         1 UNK         0.0600 
    156 H156       -0.5683  -16.3315  -42.4083 H         1 UNK         0.0600 
    157 H157       -1.5824  -16.1504  -43.8347 H         1 UNK         0.0600 
    158 H158        0.0547  -15.5118  -43.8355 H         1 UNK         0.0600 
    159 H159        1.7780  -17.1650  -43.0972 H         1 UNK         0.3000 
    160 H160        3.6703  -20.0263  -43.3125 H         1 UNK         0.0600 
    161 H161        4.5726  -17.7978  -45.1991 H         1 UNK         0.0600 
    162 H162        4.4239  -19.4988  -45.6028 H         1 UNK         0.0600 
    163 H163        5.6149  -18.9825  -44.4201 H         1 UNK         0.0600 
    164 H164        4.3886  -17.2639  -42.7554 H         1 UNK         0.3000 
    165 H165        2.9462  -17.1906  -39.5317 H         1 UNK         0.0600 
    166 H166        5.2473  -16.9755  -38.6329 H         1 UNK         0.0600 
    167 H167        4.9001  -18.6577  -38.9980 H         1 UNK         0.0600 
    168 H168        5.9154  -17.7194  -40.0867 H         1 UNK         0.0600 
    169 H169        4.9280  -15.5236  -40.6903 H         1 UNK         0.3000 
    170 H170        2.7989  -13.0790  -41.5567 H         1 UNK         0.0600 
    171 H171        5.6839  -14.0451  -41.9930 H         1 UNK         0.0600 
    172 H172        5.1385  -12.3744  -41.9790 H         1 UNK         0.0600 
    173 H173        5.0464  -13.3285  -40.5122 H         1 UNK         0.0600 
    174 H174        2.6962  -13.0213  -43.7575 H         1 UNK         0.3000 
    175 H175        4.4067  -14.3660  -46.4060 H         1 UNK         0.0600 
    176 H176        1.6868  -15.5970  -45.7241 H         1 UNK         0.0600 
    177 H177        2.2623  -15.3037  -47.3636 H         1 UNK         0.0600 
    178 H178        3.1040  -16.4403  -46.3263 H         1 UNK         0.0600 
    179 H179        1.7886  -13.1087  -46.0752 H         1 UNK         0.3000 
    180 H180        2.9898   -9.8547  -45.6097 H         1 UNK         0.0600 
    181 H181        1.8688   -9.2195  -47.7522 H         1 UNK         0.0600 
    182 H182        2.0403  -10.8734  -48.3404 H         1 UNK         0.0600 
    183 H183        3.4672   -9.8887  -48.0443 H         1 UNK         0.0600 
    184 H184        0.4300  -10.8409  -46.4275 H         1 UNK         0.3000 
    185 H185       -0.6331  -12.2315  -43.3916 H         1 UNK         0.0600 
    186 H186       -1.3703   -9.3792  -44.2457 H         1 UNK         0.0600 
    187 H187       -2.3350  -10.4360  -43.2133 H         1 UNK         0.0600 
    188 H188       -0.7802   -9.8424  -42.6540 H         1 UNK         0.0600 
    189 H189       -2.1974  -11.3280  -45.5511 H         1 UNK         0.3000 
    190 H190       -2.3407  -21.0164  -45.0277 H         1 UNK         0.3000 
    191 H191       -4.8985  -21.5882  -46.0906 H         1 UNK         0.0600 
    192 H192       -3.9920  -21.4478  -43.1682 H         1 UNK         0.0600 
    193 H193       -5.6566  -21.3707  -43.7286 H         1 UNK         0.0600 
    194 H194       -4.5318  -20.0893  -44.1528 H         1 UNK         0.0600 
    195 H195       -2.6903  -23.6441  -44.1534 H         1 UNK         0.3000 
    196 H196       -4.4737  -25.8782  -43.9288 H         1 UNK         0.0600 
    197 H197       -2.5808  -25.5119  -42.3740 H         1 UNK         0.0600 
    198 H198       -1.4232  -25.7151  -43.6864 H         1 UNK         0.0600 
    199 H199       -2.4179  -27.0713  -43.1685 H         1 UNK         0.0600 
    200 H200       -1.9078  -25.0394  -46.2778 H         1 UNK         0.3000 
    201 H201       -2.0527  -27.5418  -47.7159 H         1 UNK         0.0600 
    202 H202       -0.3745  -26.4259  -49.1761 H         1 UNK         0.0600 
    203 H203        0.0394  -26.2059  -47.4841 H         1 UNK         0.0600 
    204 H204       -0.6913  -24.8823  -48.3934 H         1 UNK         0.0600 
    205 H205       -4.1192  -24.8768  -47.7936 H         1 UNK         0.3000 
    206 H206       -4.4394  -24.2109  -50.4100 H         1 UNK         0.0600 
    207 H207       -6.6735  -23.3159  -49.7059 H         1 UNK         0.0600 
    208 H208       -6.6019  -24.2822  -48.2353 H         1 UNK         0.0600 
    209 H209       -5.4474  -22.9780  -48.4956 H         1 UNK         0.0600 
    210 H210       -5.6342  -24.7193  -52.1498 H         1 UNK         0.3000 
    211 H211       -7.6406  -26.8534  -52.1901 H         1 UNK         0.0600 
    212 H212       -5.5559  -28.1695  -52.5238 H         1 UNK         0.0600 
    213 H213       -5.0168  -27.0601  -53.7813 H         1 UNK         0.0600 
    214 H214       -6.4400  -28.0651  -54.0395 H         1 UNK         0.0600 
    215 H215       -8.7499  -24.8420  -52.4230 H         1 UNK         0.3000 
    216 H216       -9.9073  -23.2838  -53.4425 H         1 UNK         0.0600 
    217 H217      -10.0733  -23.0277  -55.8737 H         1 UNK         0.0600 
    218 H218      -10.1563  -24.7317  -55.4549 H         1 UNK         0.0600 
    219 H219       -8.6787  -24.0575  -56.1402 H         1 UNK         0.0600 
    220 H220       -6.6417  -23.3226  -54.8726 H         1 UNK         0.3000 
    221 H221       -6.1715  -20.4615  -54.1567 H         1 UNK         0.0600 
    222 H222       -4.4203  -22.4832  -55.6692 H         1 UNK         0.0600 
    223 H223       -5.3754  -21.2022  -56.4154 H         1 UNK         0.0600 
    224 H224       -4.0301  -20.7917  -55.3648 H         1 UNK         0.0600 
    225 H225       -4.5512  -19.9863  -52.5836 H         1 UNK         0.3000 
    226 H226       -4.3520  -21.9123  -50.4514 H         1 UNK         0.0600 
    227 H227       -4.6209  -19.3551  -50.2530 H         1 UNK         0.0600 
    228 H228       -3.4728  -20.1213  -49.1817 H         1 UNK         0.0600 
    229 H229       -2.8951  -19.2501  -50.6007 H         1 UNK         0.0600 
    230 H230       -2.0106  -20.4974  -52.7751 H         1 UNK         0.3000 
    231 H231       -0.2380  -22.8116  -52.5585 H         1 UNK         0.0600 
    232 H232        0.6980  -20.0236  -51.6769 H         1 UNK         0.0600 
    233 H233        1.7597  -21.4003  -51.9657 H         1 UNK         0.0600 
    234 H234        0.5914  -21.4595  -50.6596 H         1 UNK         0.0600 
    235 H235       -1.7776  -22.2945  -54.5716 H         1 UNK         0.3000 
    236 H236       -1.9997  -22.0652  -56.7405 H         1 UNK         0.0600 
    237 H237        0.9927  -21.4535  -56.9686 H         1 UNK         0.0600 
    238 H238        0.2634  -23.0574  -57.0188 H         1 UNK         0.0600 
    239 H239       -0.0912  -21.8869  -58.2795 H         1 UNK         0.0600 
    240 H240        0.0933  -19.4664  -55.5288 H         1 UNK         0.3000 
    241 H241       -0.0190  -17.2679  -55.4884 H         1 UNK         0.0600 
    242 H242        0.1796  -18.4337  -58.3633 H         1 UNK         0.3800 
    243 H243       -0.1106  -17.0107  -59.3312 H         1 UNK         0.3800 
    244 H244       -3.0375  -17.6284  -55.7571 H         1 UNK         0.0800 
    245 H245       -2.2568  -16.1839  -55.1865 H         1 UNK         0.0800 
    246 H246       -0.3397  -16.4552  -52.9692 H         1 UNK         0.0800 
    247 H247       -1.8793  -15.6305  -52.8982 H         1 UNK         0.0800 
@<TRIPOS>BOND
     1    1    2 1    
     2    1  127 1    
     3    1  128 1    
     4    1  129 1    
     5    2    3 2    
     6    2    4 am   BACKBONE|DICT|INTERRES
     7    4    5 1    
     8    4  130 1    
     9    5    6 1    
    10    5   65 1    
    11    5  131 1    
    12    6    7 1    
    13    6  132 1    
    14    6  133 1    
    15    7    8 1    
    16    8    9 1    
    17    8  134 1    
    18    8  135 1    
    19    9   10 ar   
    20    9   14 ar   
    21   10   11 ar   
    22   10  136 1    
    23   11   12 ar   
    24   11  126 1    
    25   12   13 ar   
    26   12  137 1    
    27   13   14 ar   
    28   13   15 1    
    29   14  138 1    
    30   15   16 1    
    31   15  139 1    
    32   15  140 1    
    33   16   17 1    
    34   17   18 1    
    35   17  141 1    
    36   17  142 1    
    37   18   19 1    
    38   18   67 1    
    39   18  143 1    
    40   19   20 am   BACKBONE|DICT|INTERRES
    41   19  144 1    
    42   20   21 2    
    43   20   22 1    
    44   22   23 1    
    45   22   24 1    
    46   22  145 1    
    47   23  146 1    
    48   23  147 1    
    49   23  148 1    
    50   24   25 am   BACKBONE|DICT|INTERRES
    51   24  149 1    
    52   25   26 2    
    53   25   27 1    
    54   27   28 1    
    55   27   29 1    
    56   27  150 1    
    57   28  151 1    
    58   28  152 1    
    59   28  153 1    
    60   29   30 am   BACKBONE|DICT|INTERRES
    61   29  154 1    
    62   30   31 2    
    63   30   32 1    
    64   32   33 1    
    65   32   34 1    
    66   32  155 1    
    67   33  156 1    
    68   33  157 1    
    69   33  158 1    
    70   34   35 am   BACKBONE|DICT|INTERRES
    71   34  159 1    
    72   35   36 2    
    73   35   37 1    
    74   37   38 1    
    75   37   39 1    
    76   37  160 1    
    77   38  161 1    
    78   38  162 1    
    79   38  163 1    
    80   39   40 am   BACKBONE|DICT|INTERRES
    81   39  164 1    
    82   40   41 2    
    83   40   42 1    
    84   42   43 1    
    85   42   44 1    
    86   42  165 1    
    87   43  166 1    
    88   43  167 1    
    89   43  168 1    
    90   44   45 am   BACKBONE|DICT|INTERRES
    91   44  169 1    
    92   45   46 2    
    93   45   47 1    
    94   47   48 1    
    95   47   49 1    
    96   47  170 1    
    97   48  171 1    
    98   48  172 1    
    99   48  173 1    
   100   49   50 am   BACKBONE|DICT|INTERRES
   101   49  174 1    
   102   50   51 2    
   103   50   52 1    
   104   52   53 1    
   105   52   54 1    
   106   52  175 1    
   107   53  176 1    
   108   53  177 1    
   109   53  178 1    
   110   54   55 am   BACKBONE|DICT|INTERRES
   111   54  179 1    
   112   55   56 2    
   113   55   57 1    
   114   57   58 1    
   115   57   59 1    
   116   57  180 1    
   117   58  181 1    
   118   58  182 1    
   119   58  183 1    
   120   59   60 am   BACKBONE|DICT|INTERRES
   121   59  184 1    
   122   60   61 2    
   123   60   62 1    
   124   62   63 1    
   125   62   64 1    
   126   62  185 1    
   127   63  186 1    
   128   63  187 1    
   129   63  188 1    
   130   64   65 am   BACKBONE|DICT|INTERRES
   131   64  189 1    
   132   65   66 2    
   133   67   68 2    
   134   67   69 am   BACKBONE|DICT|INTERRES
   135   69   70 1    
   136   69  190 1    
   137   70   71 1    
   138   70   72 1    
   139   70  191 1    
   140   71  192 1    
   141   71  193 1    
   142   71  194 1    
   143   72   73 2    
   144   72   74 am   BACKBONE|DICT|INTERRES
   145   74   75 1    
   146   74  195 1    
   147   75   76 1    
   148   75   77 1    
   149   75  196 1    
   150   76  197 1    
   151   76  198 1    
   152   76  199 1    
   153   77   78 2    
   154   77   79 am   BACKBONE|DICT|INTERRES
   155   79   80 1    
   156   79  200 1    
   157   80   81 1    
   158   80   82 1    
   159   80  201 1    
   160   81  202 1    
   161   81  203 1    
   162   81  204 1    
   163   82   83 2    
   164   82   84 am   BACKBONE|DICT|INTERRES
   165   84   85 1    
   166   84  205 1    
   167   85   86 1    
   168   85   87 1    
   169   85  206 1    
   170   86  207 1    
   171   86  208 1    
   172   86  209 1    
   173   87   88 2    
   174   87   89 am   BACKBONE|DICT|INTERRES
   175   89   90 1    
   176   89  210 1    
   177   90   91 1    
   178   90   92 1    
   179   90  211 1    
   180   91  212 1    
   181   91  213 1    
   182   91  214 1    
   183   92   93 2    
   184   92   94 am   BACKBONE|DICT|INTERRES
   185   94   95 1    
   186   94  215 1    
   187   95   96 1    
   188   95   97 1    
   189   95  216 1    
   190   96  217 1    
   191   96  218 1    
   192   96  219 1    
   193   97   98 2    
   194   97   99 am   BACKBONE|DICT|INTERRES
   195   99  100 1    
   196   99  220 1    
   197  100  101 1    
   198  100  102 1    
   199  100  221 1    
   200  101  222 1    
   201  101  223 1    
   202  101  224 1    
   203  102  103 2    
   204  102  104 am   BACKBONE|DICT|INTERRES
   205  104  105 1    
   206  104  225 1    
   207  105  106 1    
   208  105  107 1    
   209  105  226 1    
   210  106  227 1    
   211  106  228 1    
   212  106  229 1    
   213  107  108 2    
   214  107  109 am   BACKBONE|DICT|INTERRES
   215  109  110 1    
   216  109  230 1    
   217  110  111 1    
   218  110  112 1    
   219  110  231 1    
   220  111  232 1    
   221  111  233 1    
   222  111  234 1    
   223  112  113 2    
   224  112  114 am   BACKBONE|DICT|INTERRES
   225  114  115 1    
   226  114  235 1    
   227  115  116 1    
   228  115  117 1    
   229  115  236 1    
   230  116  237 1    
   231  116  238 1    
   232  116  239 1    
   233  117  118 2    
   234  117  119 am   BACKBONE|DICT|INTERRES
   235  119  120 1    
   236  119  240 1    
   237  120  121 1    
   238  120  124 1    
   239  120  241 1    
   240  121  122 am   BACKBONE|DICT|INTERRES
   241  121  123 2    
   242  122  242 1    
   243  122  243 1    
   244  124  125 1    
   245  124  244 1    
   246  124  245 1    
   247  125  126 1    
   248  126  246 1    
   249  126  247 1    
@<TRIPOS>SUBSTRUCTURE
     1 UNK         1 GROUP             0       ****    0 ROOT    
