@<TRIPOS>MOLECULE
3R540
247   249    1
SMALL
USER_CHARGES


@<TRIPOS>ATOM
      1 CA         -2.5672  -12.3701  -48.7209 C.3       0 UNK        -0.1800 
      2 C          -1.7820  -13.5906  -48.2650 C.2       0 UNK         0.5000 
      3 O          -2.2925  -14.3831  -47.4755 O.2       0 UNK        -0.5000 
      4 N          -0.5367  -13.7345  -48.7416 N.am      1 UNK        -0.5000 
      5 CA          0.3706  -14.8685  -48.4884 C.3       1 UNK         0.1400 
      6 C6         -0.1088  -16.1791  -49.1651 C.3       23 UNK        -0.0398 
      7 S7         -0.0895  -16.0501  -50.9859 S.3       23 UNK        -0.2404 
      8 C8         -0.5286  -17.7519  -51.4829 C.3       23 UNK        -0.0205 
      9 C9          0.6342  -18.7348  -51.6125 C.ar      23 UNK        -0.0193 
     10 C10         0.4841  -19.8385  -52.4561 C.ar      23 UNK        -0.1150 
     11 C11         1.4963  -20.7927  -52.5855 C.ar      23 UNK        -0.0193 
     12 C12         2.6643  -20.6586  -51.8286 C.ar      23 UNK        -0.1150 
     13 C13         2.8317  -19.5609  -50.9791 C.ar      23 UNK        -0.0193 
     14 C14         1.8283  -18.5938  -50.8986 C.ar      23 UNK        -0.1150 
     15 C15         4.0949  -19.4059  -50.1464 C.3       23 UNK        -0.0205 
     16 S16         3.9869  -20.3061  -48.5662 S.3       23 UNK        -0.2404 
     17 C17         2.6218  -19.4509  -47.6976 C.3       23 UNK        -0.0398 
     18 CA          1.3187  -20.2859  -47.6866 C.3       11 UNK         0.1400 
     19 N           1.5081  -21.5958  -47.0598 N.am      11 UNK        -0.5000 
     20 C           0.6575  -22.6220  -47.1866 C.2       10 UNK         0.5000 
     21 O          -0.3681  -22.5762  -47.8634 O.2       10 UNK        -0.5000 
     22 CA          0.9787  -23.9000  -46.3897 C.3       10 UNK         0.1400 
     23 CB          1.8511  -24.8474  -47.2262 C.3       10 UNK        -0.1800 
     24 N           1.6390  -23.6425  -45.1082 N.am      10 UNK        -0.5000 
     25 C           1.1235  -22.9196  -44.1042 C.2       9 UNK         0.5000 
     26 O           0.0141  -22.3884  -44.1526 O.2       9 UNK        -0.5000 
     27 CA          1.9896  -22.7382  -42.8416 C.3       9 UNK         0.1400 
     28 CB          3.1857  -23.7123  -42.7579 C.3       9 UNK        -0.1800 
     29 N           2.4603  -21.3611  -42.6640 N.am      9 UNK        -0.5000 
     30 C           3.1593  -20.6122  -43.5335 C.2       8 UNK         0.5000 
     31 O           3.3786  -20.9501  -44.6973 O.2       8 UNK        -0.5000 
     32 CA          3.7318  -19.2685  -43.0263 C.3       8 UNK         0.1400 
     33 CB          3.2239  -18.0719  -43.8458 C.3       8 UNK        -0.1800 
     34 N           3.4717  -19.0261  -41.6044 N.am      8 UNK        -0.5000 
     35 C           4.2069  -19.5394  -40.6078 C.2       7 UNK         0.5000 
     36 O           5.2041  -20.2393  -40.7880 O.2       7 UNK        -0.5000 
     37 CA          3.7531  -19.2405  -39.1655 C.3       7 UNK         0.1400 
     38 CB          4.5464  -18.0559  -38.5924 C.3       7 UNK        -0.1800 
     39 N           2.3221  -18.9676  -39.0038 N.am      7 UNK        -0.5000 
     40 C           1.3126  -19.7955  -39.3120 C.2       6 UNK         0.5000 
     41 O           1.4674  -20.8754  -39.8829 O.2       6 UNK        -0.5000 
     42 CA         -0.1072  -19.3473  -38.9078 C.3       6 UNK         0.1400 
     43 CB         -0.5964  -20.1536  -37.6949 C.3       6 UNK        -0.1800 
     44 N          -0.1883  -17.9175  -38.5888 N.am      6 UNK        -0.5000 
     45 C          -0.2552  -16.9511  -39.5117 C.2       5 UNK         0.5000 
     46 O          -0.2922  -17.1737  -40.7216 O.2       5 UNK        -0.5000 
     47 CA         -0.2309  -15.5050  -38.9961 C.3       5 UNK         0.1400 
     48 CB          1.2184  -15.0073  -38.8734 C.3       5 UNK        -0.1800 
     49 N          -0.9440  -14.6494  -39.9386 N.am      5 UNK        -0.5000 
     50 C          -1.9752  -13.8498  -39.6347 C.2       4 UNK         0.5000 
     51 O          -2.3820  -13.6691  -38.4859 O.2       4 UNK        -0.5000 
     52 CA         -2.6877  -13.1286  -40.8006 C.3       4 UNK         0.1400 
     53 CB         -2.2313  -11.6639  -40.8855 C.3       4 UNK        -0.1800 
     54 N          -2.4718  -13.7636  -42.1013 N.am      4 UNK        -0.5000 
     55 C          -2.9065  -14.9824  -42.4479 C.2       3 UNK         0.5000 
     56 O          -3.6708  -15.6503  -41.7502 O.2       3 UNK        -0.5000 
     57 CA         -2.3898  -15.5705  -43.7777 C.3       3 UNK         0.1400 
     58 CB         -3.5391  -15.7357  -44.7821 C.3       3 UNK        -0.1800 
     59 N          -1.2967  -14.8309  -44.4249 N.am      3 UNK        -0.5000 
     60 C          -0.0700  -14.6286  -43.9158 C.2       2 UNK         0.5000 
     61 O           0.2569  -14.9833  -42.7838 O.2       2 UNK        -0.5000 
     62 CA          0.9398  -13.8511  -44.7892 C.3       2 UNK         0.1400 
     63 CB          2.4068  -14.2031  -44.4648 C.3       2 UNK        -0.1800 
     64 N           0.6840  -13.9513  -46.2303 N.am      2 UNK        -0.5000 
     65 C           0.7150  -15.0583  -46.9894 C.2       1 UNK         0.5000 
     66 O           1.0061  -16.1739  -46.5565 O.2       1 UNK        -0.5000 
     67 C           0.1582  -19.5256  -47.0110 C.2       11 UNK         0.5000 
     68 O          -0.6911  -18.9644  -47.7054 O.2       11 UNK        -0.5000 
     69 N           0.0962  -19.5896  -45.6714 N.am      12 UNK        -0.5000 
     70 CA         -0.9935  -19.0259  -44.8723 C.3       12 UNK         0.1400 
     71 CB         -0.6359  -19.0591  -43.3773 C.3       12 UNK        -0.1800 
     72 C          -2.3366  -19.7325  -45.1193 C.2       12 UNK         0.5000 
     73 O          -3.3716  -19.0697  -45.1430 O.2       12 UNK        -0.5000 
     74 N          -2.2940  -21.0560  -45.3225 N.am      13 UNK        -0.5000 
     75 CA         -3.4474  -21.8697  -45.7025 C.3       13 UNK         0.1400 
     76 CB         -3.0919  -23.3575  -45.5640 C.3       13 UNK        -0.1800 
     77 C          -3.9525  -21.5558  -47.1243 C.2       13 UNK         0.5000 
     78 O          -5.1636  -21.5667  -47.3472 O.2       13 UNK        -0.5000 
     79 N          -3.0256  -21.2779  -48.0538 N.am      14 UNK        -0.5000 
     80 CA         -3.3255  -20.9154  -49.4385 C.3       14 UNK         0.1400 
     81 CB         -2.0583  -21.0237  -50.2988 C.3       14 UNK        -0.1800 
     82 C          -3.9838  -19.5324  -49.5797 C.2       14 UNK         0.5000 
     83 O          -4.8660  -19.3810  -50.4228 O.2       14 UNK        -0.5000 
     84 N          -3.5661  -18.5652  -48.7478 N.am      15 UNK        -0.5000 
     85 CA         -4.2180  -17.2685  -48.5035 C.3       15 UNK         0.1400 
     86 CB         -5.4599  -17.4783  -47.6134 C.3       15 UNK        -0.1800 
     87 C          -4.5467  -16.4519  -49.7758 C.2       15 UNK         0.5000 
     88 O          -5.6400  -15.8960  -49.8927 O.2       15 UNK        -0.5000 
     89 N          -3.5953  -16.4276  -50.7187 N.am      16 UNK        -0.5000 
     90 CA         -3.6515  -15.7818  -52.0374 C.3       16 UNK         0.1400 
     91 CB         -3.8715  -14.2598  -51.9169 C.3       16 UNK        -0.1800 
     92 C          -4.6057  -16.4461  -53.0553 C.2       16 UNK         0.5000 
     93 O          -4.7752  -15.9074  -54.1496 O.2       16 UNK        -0.5000 
     94 N          -5.1551  -17.6266  -52.7366 N.am      17 UNK        -0.5000 
     95 CA         -5.9614  -18.4548  -53.6378 C.3       17 UNK         0.1400 
     96 CB         -7.1909  -18.9848  -52.8781 C.3       17 UNK        -0.1800 
     97 C          -5.1027  -19.5890  -54.2325 C.2       17 UNK         0.5000 
     98 O          -5.5484  -20.7363  -54.3029 O.2       17 UNK        -0.5000 
     99 N          -3.8730  -19.2495  -54.6493 N.am      18 UNK        -0.5000 
    100 CA        -2.8314  -20.1633  -55.1318 C.3       18 UNK         0.1400 
    101 CB        -1.5977  -19.3432  -55.5380 C.3       18 UNK        -0.1800 
    102 C         -3.2654  -21.0668  -56.3000 C.2       18 UNK         0.5000 
    103 O         -2.8575  -22.2268  -56.3521 O.2       18 UNK        -0.5000 
    104 N         -4.1175  -20.5381  -57.1878 N.am      19 UNK        -0.5000 
    105 CA        -4.6845  -21.2545  -58.3324 C.3       19 UNK         0.1400 
    106 CB        -5.4661  -20.2600  -59.2043 C.3       19 UNK        -0.1800 
    107 C         -5.5805  -22.4477  -57.9414 C.2       19 UNK         0.5000 
    108 O         -5.6948  -23.3922  -58.7234 O.2       19 UNK        -0.5000 
    109 N         -6.1874  -22.3879  -56.7489 N.am      20 UNK        -0.5000 
    110 CA        -7.0066  -23.4549  -56.1811 C.3       20 UNK         0.1400 
    111 CB        -8.2568  -22.8369  -55.5338 C.3       20 UNK        -0.1800 
    112 C         -6.2139  -24.2718  -55.1482 C.2       20 UNK         0.5000 
    113 O         -6.3038  -25.5001  -55.1494 O.2       20 UNK        -0.5000 
    114 N         -5.4753  -23.5784  -54.2716 N.am      21 UNK        -0.5000 
    115 CA        -4.7785  -24.1688  -53.1312 C.3       21 UNK         0.1400 
    116 CB        -4.4468  -23.0629  -52.1216 C.3       21 UNK        -0.1800 
    117 C         -3.5050  -24.9404  -53.5126 C.2       21 UNK         0.5000 
    118 O         -3.2863  -26.0349  -52.9908 O.2       21 UNK        -0.5000 
    119 N         -2.6859  -24.3521  -54.3901 N.am      22 UNK        -0.5000 
    120 CA        -1.3963  -24.9063  -54.8296 C.3       22 UNK         0.1400 
    121 C         -1.4988  -25.5390  -56.2421 C.2       22 UNK         0.5000 
    122 N         -2.2267  -24.9306  -57.1708 N.am      22 UNK        -0.7600 
    123 O         -0.9192  -26.5913  -56.4959 O.2       22 UNK        -0.5000 
    124 C124       -0.2643  -23.8469  -54.8027 C.3       23 UNK        -0.0398 
    125 S125       -0.0561  -23.0287  -53.1836 S.3       23 UNK        -0.2404 
    126 C126        1.3395  -21.9305  -53.5838 C.3       23 UNK        -0.0205 
    127 H127       -2.0634  -11.8442  -49.5321 H         1 UNK         0.0600 
    128 H128       -2.6971  -11.6771  -47.8899 H         1 UNK         0.0600 
    129 H129       -3.5546  -12.6702  -49.0718 H         1 UNK         0.0600 
    130 H130       -0.1774  -13.0381  -49.3798 H         1 UNK         0.3000 
    131 H131        1.3208  -14.5958  -48.9504 H         1 UNK         0.0600 
    132 H132       -1.1113  -16.4433  -48.8283 H         1 UNK         0.0800 
    133 H133        0.5279  -17.0134  -48.8813 H         1 UNK         0.0800 
    134 H134       -1.0409  -17.6885  -52.4434 H         1 UNK         0.0800 
    135 H135       -1.2479  -18.1614  -50.7746 H         1 UNK         0.0800 
    136 H136       -0.4286  -19.9642  -53.0183 H         1 UNK         0.1150 
    137 H137        3.4490  -21.3978  -51.9090 H         1 UNK         0.1150 
    138 H138        1.9901  -17.7385  -50.2645 H         1 UNK         0.1150 
    139 H139        4.9513  -19.7821  -50.7077 H         1 UNK         0.0800 
    140 H140        4.3004  -18.3521  -49.9514 H         1 UNK         0.0800 
    141 H141        2.4571  -18.4690  -48.1403 H         1 UNK         0.0800 
    142 H142        2.9511  -19.2573  -46.6786 H         1 UNK         0.0800 
    143 H143        1.0263  -20.4551  -48.7254 H         1 UNK         0.0600 
    144 H144        2.3143  -21.6914  -46.4528 H         1 UNK         0.3000 
    145 H145        0.0334  -24.4033  -46.1785 H         1 UNK         0.0600 
    146 H146        2.0150  -25.7935  -46.7099 H         1 UNK         0.0600 
    147 H147        1.3737  -25.0770  -48.1798 H         1 UNK         0.0600 
    148 H148        2.8258  -24.4088  -47.4445 H         1 UNK         0.0600 
    149 H149        2.5677  -24.0214  -44.9951 H         1 UNK         0.3000 
    150 H150        1.3345  -22.9492  -41.9951 H         1 UNK         0.0600 
    151 H151        2.8584  -24.7496  -42.8397 H         1 UNK         0.0600 
    152 H152        3.6955  -23.6143  -41.7992 H         1 UNK         0.0600 
    153 H153        3.9240  -23.5290  -43.5395 H         1 UNK         0.0600 
    154 H154        2.2872  -20.9794  -41.7400 H         1 UNK         0.3000 
    155 H155        4.8129  -19.3167  -43.1727 H         1 UNK         0.0600 
    156 H156        2.1400  -18.0528  -43.9287 H         1 UNK         0.0600 
    157 H157        3.6277  -18.0964  -44.8569 H         1 UNK         0.0600 
    158 H158        3.5427  -17.1285  -43.4027 H         1 UNK         0.0600 
    159 H159        2.6624  -18.4676  -41.3731 H         1 UNK         0.3000 
    160 H160        3.9829  -20.1255  -38.5686 H         1 UNK         0.0600 
    161 H161        4.3248  -17.1296  -39.1243 H         1 UNK         0.0600 
    162 H162        5.6207  -18.2294  -38.6685 H         1 UNK         0.0600 
    163 H163        4.3192  -17.9007  -37.5375 H         1 UNK         0.0600 
    164 H164        2.0864  -18.1013  -38.5447 H         1 UNK         0.3000 
    165 H165       -0.7702  -19.5639  -39.7486 H         1 UNK         0.0600 
    166 H166       -1.6219  -19.8910  -37.4345 H         1 UNK         0.0600 
    167 H167       -0.5805  -21.2241  -37.9045 H         1 UNK         0.0600 
    168 H168        0.0284  -19.9818  -36.8175 H         1 UNK         0.0600 
    169 H169       -0.1668  -17.6700  -37.6094 H         1 UNK         0.3000 
    170 H170       -0.7030  -15.4805  -38.0119 H         1 UNK         0.0600 
    171 H171        1.7866  -15.6154  -38.1686 H         1 UNK         0.0600 
    172 H172        1.7370  -15.0419  -39.8330 H         1 UNK         0.0600 
    173 H173        1.2507  -13.9787  -38.5139 H         1 UNK         0.0600 
    174 H174       -0.6956  -14.7952  -40.9133 H         1 UNK         0.3000 
    175 H175       -3.7591  -13.1438  -40.5905 H         1 UNK         0.0600 
    176 H176       -1.1666  -11.5873  -41.1099 H         1 UNK         0.0600 
    177 H177       -2.7786  -11.1233  -41.6580 H         1 UNK         0.0600 
    178 H178       -2.4060  -11.1448  -39.9421 H         1 UNK         0.0600 
    179 H179       -1.8483  -13.2898  -42.7370 H         1 UNK         0.3000 
    180 H180       -2.0090  -16.5615  -43.5332 H         1 UNK         0.0600 
    181 H181       -3.2046  -16.2802  -45.6638 H         1 UNK         0.0600 
    182 H182       -3.9323  -14.7723  -45.1084 H         1 UNK         0.0600 
    183 H183       -4.3648  -16.3039  -44.3519 H         1 UNK         0.0600 
    184 H184       -1.4819  -14.5132  -45.3689 H         1 UNK         0.3000 
    185 H185        0.7970  -12.8004  -44.5334 H         1 UNK         0.0600 
    186 H186        2.6198  -15.2553  -44.6503 H         1 UNK         0.0600 
    187 H187        3.0964  -13.6110  -45.0662 H         1 UNK         0.0600 
    188 H188        2.6386  -14.0033  -43.4180 H         1 UNK         0.0600 
    189 H189        0.4263  -13.0880  -46.6877 H         1 UNK         0.3000 
    190 H190        0.7851  -20.1397  -45.1799 H         1 UNK         0.3000 
    191 H191       -1.1153  -17.9834  -45.1731 H         1 UNK         0.0600 
    192 H192       -1.5027  -18.8228  -42.7585 H         1 UNK         0.0600 
    193 H193        0.1227  -18.3179  -43.1368 H         1 UNK         0.0600 
    194 H194       -0.2711  -20.0346  -43.0587 H         1 UNK         0.0600 
    195 H195       -1.4101  -21.5382  -45.1904 H         1 UNK         0.3000 
    196 H196       -4.2577  -21.6491  -45.0045 H         1 UNK         0.0600 
    197 H197       -2.3038  -23.6496  -46.2573 H         1 UNK         0.0600 
    198 H198       -2.7540  -23.5913  -44.5541 H         1 UNK         0.0600 
    199 H199       -3.9592  -23.9852  -45.7719 H         1 UNK         0.0600 
    200 H200       -2.0454  -21.3644  -47.8094 H         1 UNK         0.3000 
    201 H201       -4.0481  -21.6413  -49.8102 H         1 UNK         0.0600 
    202 H202       -1.2485  -20.4110  -49.9052 H         1 UNK         0.0600 
    203 H203       -2.2489  -20.7048  -51.3242 H         1 UNK         0.0600 
    204 H204       -1.7003  -22.0525  -50.3427 H         1 UNK         0.0600 
    205 H205       -2.7801  -18.7817  -48.1434 H         1 UNK         0.3000 
    206 H206       -3.5016  -16.6738  -47.9390 H         1 UNK         0.0600 
    207 H207       -5.2090  -18.0218  -46.7036 H         1 UNK         0.0600 
    208 H208       -5.8909  -16.5242  -47.3079 H         1 UNK         0.0600 
    209 H209       -6.2353  -18.0419  -48.1335 H         1 UNK         0.0600 
    210 H210       -2.7411  -16.9255  -50.5202 H         1 UNK         0.3000 
    211 H211       -2.6601  -15.9122  -52.4693 H         1 UNK         0.0600 
    212 H212       -3.7719  -13.7708  -52.8865 H         1 UNK         0.0600 
    213 H213       -3.1303  -13.8110  -51.2567 H         1 UNK         0.0600 
    214 H214       -4.8616  -14.0155  -51.5325 H         1 UNK         0.0600 
    215 H215       -4.9619  -18.0395  -51.8277 H         1 UNK         0.3000 
    216 H216       -6.3275  -17.8596  -54.4764 H         1 UNK         0.0600 
    217 H217       -6.9088  -19.6665  -52.0755 H         1 UNK         0.0600 
    218 H218       -7.8591  -19.5280  -53.5474 H         1 UNK         0.0600 
    219 H219       -7.7643  -18.1688  -52.4384 H         1 UNK         0.0600 
    220 H220       -3.6146  -18.2761  -54.5844 H         1 UNK         0.3000 
    221 H221       -2.5565  -20.8117  -54.2974 H         1 UNK         0.0600 
    222 H222       -1.2708  -18.6826  -54.7360 H         1 UNK         0.0600 
    223 H223       -1.7981  -18.7224  -56.4122 H         1 UNK         0.0600 
    224 H224       -0.7599  -19.9969  -55.7846 H         1 UNK         0.0600 
    225 H225       -4.4093  -19.5803  -57.0604 H         1 UNK         0.3000 
    226 H226       -3.8547  -21.6493  -58.9224 H         1 UNK         0.0600 
    227 H227       -6.2964  -19.8119  -58.6571 H         1 UNK         0.0600 
    228 H228       -4.8225  -19.4547  -59.5590 H         1 UNK         0.0600 
    229 H229       -5.8811  -20.7536  -60.0842 H         1 UNK         0.0600 
    230 H230       -6.0016  -21.5951  -56.1462 H         1 UNK         0.3000 
    231 H231       -7.3404  -24.1384  -56.9648 H         1 UNK         0.0600 
    232 H232       -7.9986  -22.1341  -54.7405 H         1 UNK         0.0600 
    233 H233       -8.8917  -23.6083  -55.0961 H         1 UNK         0.0600 
    234 H234       -8.8562  -22.3022  -56.2708 H         1 UNK         0.0600 
    235 H235       -5.4791  -22.5623  -54.3199 H         1 UNK         0.3000 
    236 H236       -5.4582  -24.8713  -52.6440 H         1 UNK         0.0600 
    237 H237       -5.3503  -22.5644  -51.7695 H         1 UNK         0.0600 
    238 H238       -3.9380  -23.4790  -51.2513 H         1 UNK         0.0600 
    239 H239       -3.7942  -22.3040  -52.5546 H         1 UNK         0.0600 
    240 H240       -2.9614  -23.4828  -54.8307 H         1 UNK         0.3000 
    241 H241       -1.0937  -25.7049  -54.1496 H         1 UNK         0.0600 
    242 H242       -2.3074  -25.3355  -58.0897 H         1 UNK         0.3800 
    243 H243       -2.6362  -24.0220  -56.9768 H         1 UNK         0.3800 
    244 H244       -0.4492  -23.0741  -55.5506 H         1 UNK         0.0800 
    245 H245        0.6868  -24.3103  -55.0714 H         1 UNK         0.0800 
    246 H246        1.1896  -21.4959  -54.5732 H         1 UNK         0.0800 
    247 H247        2.2522  -22.5253  -53.6431 H         1 UNK         0.0800 
@<TRIPOS>BOND
     1    1    2 1    
     2    1  127 1    
     3    1  128 1    
     4    1  129 1    
     5    2    3 2    
     6    2    4 am   BACKBONE|DICT|INTERRES
     7    4    5 1    
     8    4  130 1    
     9    5    6 1    
    10    5   65 1    
    11    5  131 1    
    12    6    7 1    
    13    6  132 1    
    14    6  133 1    
    15    7    8 1    
    16    8    9 1    
    17    8  134 1    
    18    8  135 1    
    19    9   10 ar   
    20    9   14 ar   
    21   10   11 ar   
    22   10  136 1    
    23   11   12 ar   
    24   11  126 1    
    25   12   13 ar   
    26   12  137 1    
    27   13   14 ar   
    28   13   15 1    
    29   14  138 1    
    30   15   16 1    
    31   15  139 1    
    32   15  140 1    
    33   16   17 1    
    34   17   18 1    
    35   17  141 1    
    36   17  142 1    
    37   18   19 1    
    38   18   67 1    
    39   18  143 1    
    40   19   20 am   BACKBONE|DICT|INTERRES
    41   19  144 1    
    42   20   21 2    
    43   20   22 1    
    44   22   23 1    
    45   22   24 1    
    46   22  145 1    
    47   23  146 1    
    48   23  147 1    
    49   23  148 1    
    50   24   25 am   BACKBONE|DICT|INTERRES
    51   24  149 1    
    52   25   26 2    
    53   25   27 1    
    54   27   28 1    
    55   27   29 1    
    56   27  150 1    
    57   28  151 1    
    58   28  152 1    
    59   28  153 1    
    60   29   30 am   BACKBONE|DICT|INTERRES
    61   29  154 1    
    62   30   31 2    
    63   30   32 1    
    64   32   33 1    
    65   32   34 1    
    66   32  155 1    
    67   33  156 1    
    68   33  157 1    
    69   33  158 1    
    70   34   35 am   BACKBONE|DICT|INTERRES
    71   34  159 1    
    72   35   36 2    
    73   35   37 1    
    74   37   38 1    
    75   37   39 1    
    76   37  160 1    
    77   38  161 1    
    78   38  162 1    
    79   38  163 1    
    80   39   40 am   BACKBONE|DICT|INTERRES
    81   39  164 1    
    82   40   41 2    
    83   40   42 1    
    84   42   43 1    
    85   42   44 1    
    86   42  165 1    
    87   43  166 1    
    88   43  167 1    
    89   43  168 1    
    90   44   45 am   BACKBONE|DICT|INTERRES
    91   44  169 1    
    92   45   46 2    
    93   45   47 1    
    94   47   48 1    
    95   47   49 1    
    96   47  170 1    
    97   48  171 1    
    98   48  172 1    
    99   48  173 1    
   100   49   50 am   BACKBONE|DICT|INTERRES
   101   49  174 1    
   102   50   51 2    
   103   50   52 1    
   104   52   53 1    
   105   52   54 1    
   106   52  175 1    
   107   53  176 1    
   108   53  177 1    
   109   53  178 1    
   110   54   55 am   BACKBONE|DICT|INTERRES
   111   54  179 1    
   112   55   56 2    
   113   55   57 1    
   114   57   58 1    
   115   57   59 1    
   116   57  180 1    
   117   58  181 1    
   118   58  182 1    
   119   58  183 1    
   120   59   60 am   BACKBONE|DICT|INTERRES
   121   59  184 1    
   122   60   61 2    
   123   60   62 1    
   124   62   63 1    
   125   62   64 1    
   126   62  185 1    
   127   63  186 1    
   128   63  187 1    
   129   63  188 1    
   130   64   65 am   BACKBONE|DICT|INTERRES
   131   64  189 1    
   132   65   66 2    
   133   67   68 2    
   134   67   69 am   BACKBONE|DICT|INTERRES
   135   69   70 1    
   136   69  190 1    
   137   70   71 1    
   138   70   72 1    
   139   70  191 1    
   140   71  192 1    
   141   71  193 1    
   142   71  194 1    
   143   72   73 2    
   144   72   74 am   BACKBONE|DICT|INTERRES
   145   74   75 1    
   146   74  195 1    
   147   75   76 1    
   148   75   77 1    
   149   75  196 1    
   150   76  197 1    
   151   76  198 1    
   152   76  199 1    
   153   77   78 2    
   154   77   79 am   BACKBONE|DICT|INTERRES
   155   79   80 1    
   156   79  200 1    
   157   80   81 1    
   158   80   82 1    
   159   80  201 1    
   160   81  202 1    
   161   81  203 1    
   162   81  204 1    
   163   82   83 2    
   164   82   84 am   BACKBONE|DICT|INTERRES
   165   84   85 1    
   166   84  205 1    
   167   85   86 1    
   168   85   87 1    
   169   85  206 1    
   170   86  207 1    
   171   86  208 1    
   172   86  209 1    
   173   87   88 2    
   174   87   89 am   BACKBONE|DICT|INTERRES
   175   89   90 1    
   176   89  210 1    
   177   90   91 1    
   178   90   92 1    
   179   90  211 1    
   180   91  212 1    
   181   91  213 1    
   182   91  214 1    
   183   92   93 2    
   184   92   94 am   BACKBONE|DICT|INTERRES
   185   94   95 1    
   186   94  215 1    
   187   95   96 1    
   188   95   97 1    
   189   95  216 1    
   190   96  217 1    
   191   96  218 1    
   192   96  219 1    
   193   97   98 2    
   194   97   99 am   BACKBONE|DICT|INTERRES
   195   99  100 1    
   196   99  220 1    
   197  100  101 1    
   198  100  102 1    
   199  100  221 1    
   200  101  222 1    
   201  101  223 1    
   202  101  224 1    
   203  102  103 2    
   204  102  104 am   BACKBONE|DICT|INTERRES
   205  104  105 1    
   206  104  225 1    
   207  105  106 1    
   208  105  107 1    
   209  105  226 1    
   210  106  227 1    
   211  106  228 1    
   212  106  229 1    
   213  107  108 2    
   214  107  109 am   BACKBONE|DICT|INTERRES
   215  109  110 1    
   216  109  230 1    
   217  110  111 1    
   218  110  112 1    
   219  110  231 1    
   220  111  232 1    
   221  111  233 1    
   222  111  234 1    
   223  112  113 2    
   224  112  114 am   BACKBONE|DICT|INTERRES
   225  114  115 1    
   226  114  235 1    
   227  115  116 1    
   228  115  117 1    
   229  115  236 1    
   230  116  237 1    
   231  116  238 1    
   232  116  239 1    
   233  117  118 2    
   234  117  119 am   BACKBONE|DICT|INTERRES
   235  119  120 1    
   236  119  240 1    
   237  120  121 1    
   238  120  124 1    
   239  120  241 1    
   240  121  122 am   BACKBONE|DICT|INTERRES
   241  121  123 2    
   242  122  242 1    
   243  122  243 1    
   244  124  125 1    
   245  124  244 1    
   246  124  245 1    
   247  125  126 1    
   248  126  246 1    
   249  126  247 1    
@<TRIPOS>SUBSTRUCTURE
     1 UNK         1 GROUP             0       ****    0 ROOT    
