@<TRIPOS>MOLECULE
3R540
247   249    1
SMALL
USER_CHARGES


@<TRIPOS>ATOM
      1 CA          2.0334  -18.1966  -53.4986 C.3       0 UNK        -0.1800 
      2 C           1.8419  -17.6875  -52.0768 C.2       0 UNK         0.5000 
      3 O           2.8121  -17.2657  -51.4467 O.2       0 UNK        -0.5000 
      4 N           0.5995  -17.7278  -51.5794 N.am      1 UNK        -0.5000 
      5 CA          0.1786  -17.3453  -50.2257 C.3       1 UNK         0.1400 
      6 C6          0.2462  -15.8119  -49.9624 C.3       23 UNK        -0.0398 
      7 S7         -0.7873  -14.8274  -51.0983 S.3       23 UNK        -0.2404 
      8 C8         -2.2604  -14.5063  -50.0740 C.3       23 UNK        -0.0205 
      9 C9         -3.1379  -15.7426  -49.9630 C.ar      23 UNK        -0.0193 
     10 C10        -3.9893  -16.0807  -51.0168 C.ar      23 UNK        -0.1150 
     11 C11        -4.7701  -17.2365  -50.9604 C.ar      23 UNK        -0.0193 
     12 C12        -4.6993  -18.0570  -49.8303 C.ar      23 UNK        -0.1150 
     13 C13        -3.8706  -17.7156  -48.7558 C.ar      23 UNK        -0.0193 
     14 C14        -3.0940  -16.5547  -48.8255 C.ar      23 UNK        -0.1150 
     15 C15        -3.8083  -18.6067  -47.5253 C.3       23 UNK        -0.0205 
     16 S16        -2.3415  -19.6757  -47.5760 S.3       23 UNK        -0.2404 
     17 C17        -2.8146  -20.9830  -46.4014 C.3       23 UNK        -0.0398 
     18 CA         -1.5770  -21.6499  -45.7482 C.3       11 UNK         0.1400 
     19 N          -1.8120  -22.0945  -44.3741 N.am      11 UNK        -0.5000 
     20 C          -2.7218  -22.9637  -43.9144 C.2       10 UNK         0.5000 
     21 O          -3.5101  -23.5787  -44.6329 O.2       10 UNK        -0.5000 
     22 CA         -2.7546  -23.1595  -42.3902 C.3       10 UNK         0.1400 
     23 CB         -1.5650  -24.0173  -41.9295 C.3       10 UNK        -0.1800 
     24 N          -2.7072  -21.8608  -41.7184 N.am      10 UNK        -0.5000 
     25 C          -3.7814  -21.1887  -41.2802 C.2       9 UNK         0.5000 
     26 O          -4.9212  -21.6547  -41.2585 O.2       9 UNK        -0.5000 
     27 CA         -3.5504  -19.7354  -40.8144 C.3       9 UNK         0.1400 
     28 CB         -3.2031  -19.6929  -39.3192 C.3       9 UNK        -0.1800 
     29 N          -2.4953  -19.0608  -41.5723 N.am      9 UNK        -0.5000 
     30 C          -2.5544  -18.7838  -42.8828 C.2       8 UNK         0.5000 
     31 O          -3.5667  -18.9437  -43.5637 O.2       8 UNK        -0.5000 
     32 CA         -1.2691  -18.2687  -43.5620 C.3       8 UNK         0.1400 
     33 CB         -1.4057  -16.7727  -43.8843 C.3       8 UNK        -0.1800 
     34 N          -0.0376  -18.4927  -42.7944 N.am      8 UNK        -0.5000 
     35 C           0.4680  -19.6827  -42.4344 C.2       7 UNK         0.5000 
     36 O          -0.0633  -20.7597  -42.7033 O.2       7 UNK        -0.5000 
     37 CA          1.7471  -19.6662  -41.5813 C.3       7 UNK         0.1400 
     38 CB          3.0028  -19.5849  -42.4624 C.3       7 UNK        -0.1800 
     39 N           1.7391  -18.5585  -40.6264 N.am      7 UNK        -0.5000 
     40 C           1.0366  -18.5539  -39.4842 C.2       6 UNK         0.5000 
     41 O           0.3725  -19.5112  -39.0879 O.2       6 UNK        -0.5000 
     42 CA          1.0593  -17.2534  -38.6587 C.3       6 UNK         0.1400 
     43 CB          2.2562  -17.2468  -37.6959 C.3       6 UNK        -0.1800 
     44 N           1.1109  -16.0554  -39.4977 N.am      6 UNK        -0.5000 
     45 C           0.1076  -15.6285  -40.2780 C.2       5 UNK         0.5000 
     46 O          -1.0000  -16.1637  -40.3210 O.2       5 UNK        -0.5000 
     47 CA          0.4102  -14.4250  -41.1944 C.3       5 UNK         0.1400 
     48 CB          0.0445  -13.1092  -40.4916 C.3       5 UNK        -0.1800 
     49 N           1.8073  -14.3635  -41.6395 N.am      5 UNK        -0.5000 
     50 C           2.4140  -15.3003  -42.3797 C.2       4 UNK         0.5000 
     51 O           1.8568  -16.3288  -42.7729 O.2       4 UNK        -0.5000 
     52 CA          3.9035  -15.0853  -42.6711 C.3       4 UNK         0.1400 
     53 CB          4.7444  -15.3606  -41.4091 C.3       4 UNK        -0.1800 
     54 N           4.3069  -15.9902  -43.7417 N.am      4 UNK        -0.5000 
     55 C           5.4030  -15.8682  -44.4973 C.2       3 UNK         0.5000 
     56 O           6.2101  -14.9447  -44.3817 O.2       3 UNK        -0.5000 
     57 CA          5.6603  -16.9628  -45.5528 C.3       3 UNK         0.1400 
     58 CB          6.6903  -17.9746  -45.0259 C.3       3 UNK        -0.1800 
     59 N           4.4647  -17.6959  -45.9790 N.am      3 UNK        -0.5000 
     60 C           3.4773  -17.1825  -46.7227 C.2       2 UNK         0.5000 
     61 O           3.4194  -16.0002  -47.0723 O.2       2 UNK        -0.5000 
     62 CA          2.3753  -18.1626  -47.1487 C.3       2 UNK         0.1400 
     63 CB          1.4744  -18.5504  -45.9661 C.3       2 UNK        -0.1800 
     64 N           1.5723  -17.5416  -48.1911 N.am      2 UNK        -0.5000 
     65 C           0.9177  -18.1917  -49.1595 C.2       1 UNK         0.5000 
     66 O           0.8836  -19.4212  -49.2387 O.2       1 UNK        -0.5000 
     67 C          -0.9517  -22.7462  -46.6320 C.2       11 UNK         0.5000 
     68 O           0.1552  -22.5626  -47.1395 O.2       11 UNK        -0.5000 
     69 N          -1.6382  -23.8896  -46.7578 N.am      12 UNK        -0.5000 
     70 CA         -1.2321  -25.0492  -47.5591 C.3       12 UNK         0.1400 
     71 CB         -2.3935  -26.0523  -47.6037 C.3       12 UNK        -0.1800 
     72 C           0.0567  -25.7285  -47.0589 C.2       12 UNK         0.5000 
     73 O           0.7344  -26.3975  -47.8388 O.2       12 UNK        -0.5000 
     74 N           0.3870  -25.5154  -45.7777 N.am      13 UNK        -0.5000 
     75 CA          1.6494  -25.9128  -45.1566 C.3       13 UNK         0.1400 
     76 CB          1.5310  -25.7230  -43.6363 C.3       13 UNK        -0.1800 
     77 C           2.8624  -25.1306  -45.7017 C.2       13 UNK         0.5000 
     78 O           3.9790  -25.6481  -45.6523 O.2       13 UNK        -0.5000 
     79 N           2.6262  -23.9104  -46.2044 N.am      14 UNK        -0.5000 
     80 CA          3.6348  -23.0533  -46.8175 C.3       14 UNK         0.1400 
     81 CB          3.4322  -21.6063  -46.3452 C.3       14 UNK        -0.1800 
     82 C           3.5705  -23.1595  -48.3487 C.2       14 UNK         0.5000 
     83 O           4.5814  -23.4968  -48.9663 O.2       14 UNK        -0.5000 
     84 N           2.3929  -22.8959  -48.9327 N.am      15 UNK        -0.5000 
     85 CA          2.1520  -22.9725  -50.3734 C.3       15 UNK         0.1400 
     86 CB          2.8695  -21.8305  -51.1263 C.3       15 UNK        -0.1800 
     87 C           0.6493  -22.9757  -50.6825 C.2       15 UNK         0.5000 
     88 O           0.1563  -23.9416  -51.2662 O.2       15 UNK        -0.5000 
     89 N          -0.0319  -21.8900  -50.2919 N.am      16 UNK        -0.5000 
     90 CA         -1.3982  -21.4979  -50.6514 C.3       16 UNK         0.1400 
     91 CB         -2.4444  -22.5489  -50.2206 C.3       16 UNK        -0.1800 
     92 C          -1.5544  -21.0895  -52.1293 C.2       16 UNK         0.5000 
     93 O          -0.6253  -21.2305  -52.9285 O.2       16 UNK        -0.5000 
     94 N          -2.7479  -20.5618  -52.4376 N.am      17 UNK        -0.5000 
     95 CA         -3.1884  -19.9786  -53.7085 C.3       17 UNK         0.1400 
     96 CB         -3.0737  -20.9896  -54.8675 C.3       17 UNK        -0.1800 
     97 C          -2.4954  -18.6422  -54.0449 C.2       17 UNK         0.5000 
     98 O          -1.4530  -18.3016  -53.4831 O.2       17 UNK        -0.5000 
     99 N          -3.1120  -17.9026  -54.9673 N.am      18 UNK        -0.5000 
    100 CA        -2.6206  -16.6569  -55.5424 C.3       18 UNK         0.1400 
    101 CB        -2.8691  -15.4819  -54.5723 C.3       18 UNK        -0.1800 
    102 C         -3.2924  -16.5094  -56.9171 C.2       18 UNK         0.5000 
    103 O         -3.1209  -17.3879  -57.7641 O.2       18 UNK        -0.5000 
    104 N         -4.0844  -15.4453  -57.1098 N.am      19 UNK        -0.5000 
    105 CA        -4.9421  -15.2441  -58.2842 C.3       19 UNK         0.1400 
    106 CB        -5.4222  -13.7846  -58.3040 C.3       19 UNK        -0.1800 
    107 C         -6.1468  -16.2105  -58.3253 C.2       19 UNK         0.5000 
    108 O         -6.7204  -16.4261  -59.3937 O.2       19 UNK        -0.5000 
    109 N         -6.4946  -16.7773  -57.1659 N.am      20 UNK        -0.5000 
    110 CA        -7.4846  -17.8267  -56.9651 C.3       20 UNK         0.1400 
    111 CB        -8.7963  -17.1906  -56.4733 C.3       20 UNK        -0.1800 
    112 C         -6.9259  -18.8196  -55.9326 C.2       20 UNK         0.5000 
    113 O         -5.8844  -18.5551  -55.3244 O.2       20 UNK        -0.5000 
    114 N         -7.6294  -19.9412  -55.7393 N.am      21 UNK        -0.5000 
    115 CA        -7.2984  -20.9530  -54.7309 C.3       21 UNK         0.1400 
    116 CB        -7.9827  -22.2758  -55.1076 C.3       21 UNK        -0.1800 
    117 C         -7.6903  -20.5330  -53.2989 C.2       21 UNK         0.5000 
    118 O         -7.1125  -21.0503  -52.3432 O.2       21 UNK        -0.5000 
    119 N         -8.6559  -19.6092  -53.1816 N.am      22 UNK        -0.5000 
    120 CA        -9.2129  -19.0618  -51.9272 C.3       22 UNK         0.1400 
    121 C        -10.0484  -20.0766  -51.0852 C.2       22 UNK         0.5000 
    122 N        -10.4672  -21.2096  -51.6361 N.am      22 UNK        -0.7600 
    123 O        -10.3550  -19.8234  -49.9232 O.2       22 UNK        -0.5000 
    124 C124       -8.1723  -18.2928  -51.0615 C.3       23 UNK        -0.0398 
    125 S125       -7.3436  -16.9422  -51.9712 S.3       23 UNK        -0.2404 
    126 C126       -5.6581  -17.6022  -52.1392 C.3       23 UNK        -0.0205 
    127 H127        2.8980  -18.8587  -53.5476 H         1 UNK         0.0600 
    128 H128        1.1650  -18.7558  -53.8474 H         1 UNK         0.0600 
    129 H129        2.2005  -17.3612  -54.1782 H         1 UNK         0.0600 
    130 H130       -0.1514  -18.0482  -52.1892 H         1 UNK         0.3000 
    131 H131       -0.8663  -17.6480  -50.1545 H         1 UNK         0.0600 
    132 H132       -0.0642  -15.5813  -48.9423 H         1 UNK         0.0800 
    133 H133        1.2720  -15.4523  -50.0572 H         1 UNK         0.0800 
    134 H134       -1.9636  -14.1467  -49.0876 H         1 UNK         0.0800 
    135 H135       -2.8337  -13.6977  -50.5299 H         1 UNK         0.0800 
    136 H136       -4.0314  -15.4475  -51.8908 H         1 UNK         0.1150 
    137 H137       -5.2888  -18.9611  -49.7841 H         1 UNK         0.1150 
    138 H138       -2.4419  -16.2979  -48.0026 H         1 UNK         0.1150 
    139 H139       -3.7836  -17.9991  -46.6192 H         1 UNK         0.0800 
    140 H140       -4.7080  -19.2210  -47.4625 H         1 UNK         0.0800 
    141 H141       -3.4561  -21.7100  -46.9023 H         1 UNK         0.0800 
    142 H142       -3.4362  -20.5248  -45.6323 H         1 UNK         0.0800 
    143 H143       -0.8070  -20.8869  -45.6347 H         1 UNK         0.0600 
    144 H144       -1.1794  -21.6730  -43.6952 H         1 UNK         0.3000 
    145 H145       -3.6746  -23.6894  -42.1346 H         1 UNK         0.0600 
    146 H146       -1.6125  -24.2071  -40.8571 H         1 UNK         0.0600 
    147 H147       -1.5635  -24.9859  -42.4310 H         1 UNK         0.0600 
    148 H148       -0.6091  -23.5355  -42.1390 H         1 UNK         0.0600 
    149 H149       -1.8139  -21.3835  -41.7291 H         1 UNK         0.3000 
    150 H150       -4.4799  -19.1831  -40.9669 H         1 UNK         0.0600 
    151 H151       -4.0007  -20.1355  -38.7212 H         1 UNK         0.0600 
    152 H152       -3.0668  -18.6678  -38.9737 H         1 UNK         0.0600 
    153 H153       -2.2871  -20.2441  -39.1034 H         1 UNK         0.0600 
    154 H154       -1.6378  -18.8561  -41.0793 H         1 UNK         0.3000 
    155 H155       -1.1667  -18.8072  -44.5049 H         1 UNK         0.0600 
    156 H156       -0.4998  -16.3685  -44.3346 H         1 UNK         0.0600 
    157 H157       -1.6233  -16.1918  -42.9888 H         1 UNK         0.0600 
    158 H158       -2.2213  -16.6017  -44.5881 H         1 UNK         0.0600 
    159 H159        0.5063  -17.6627  -42.5766 H         1 UNK         0.3000 
    160 H160        1.7886  -20.6070  -41.0279 H         1 UNK         0.0600 
    161 H161        3.0339  -18.6673  -43.0479 H         1 UNK         0.0600 
    162 H162        3.0407  -20.4223  -43.1593 H         1 UNK         0.0600 
    163 H163        3.9096  -19.6251  -41.8587 H         1 UNK         0.0600 
    164 H164        2.2133  -17.7136  -40.9094 H         1 UNK         0.3000 
    165 H165        0.1423  -17.2184  -38.0665 H         1 UNK         0.0600 
    166 H166        3.2061  -17.2600  -38.2319 H         1 UNK         0.0600 
    167 H167        2.2431  -16.3639  -37.0566 H         1 UNK         0.0600 
    168 H168        2.2357  -18.1201  -37.0424 H         1 UNK         0.0600 
    169 H169        1.9812  -15.5451  -39.5126 H         1 UNK         0.3000 
    170 H170       -0.2158  -14.5198  -42.0831 H         1 UNK         0.0600 
    171 H171       -0.9980  -13.1149  -40.1702 H         1 UNK         0.0600 
    172 H172        0.6599  -12.9398  -39.6072 H         1 UNK         0.0600 
    173 H173        0.1720  -12.2566  -41.1589 H         1 UNK         0.0600 
    174 H174        2.3341  -13.5524  -41.3485 H         1 UNK         0.3000 
    175 H175        4.0450  -14.0529  -42.9974 H         1 UNK         0.0600 
    176 H176        5.8053  -15.1916  -41.5934 H         1 UNK         0.0600 
    177 H177        4.4558  -14.7037  -40.5879 H         1 UNK         0.0600 
    178 H178        4.6270  -16.3894  -41.0658 H         1 UNK         0.0600 
    179 H179        3.6481  -16.7347  -43.9274 H         1 UNK         0.3000 
    180 H180        6.0849  -16.4715  -46.4310 H         1 UNK         0.0600 
    181 H181        6.3136  -18.5159  -44.1570 H         1 UNK         0.0600 
    182 H182        7.6126  -17.4749  -44.7263 H         1 UNK         0.0600 
    183 H183        6.9537  -18.7058  -45.7905 H         1 UNK         0.0600 
    184 H184        4.4336  -18.6728  -45.7287 H         1 UNK         0.3000 
    185 H185        2.8580  -19.0506  -47.5592 H         1 UNK         0.0600 
    186 H186        0.6476  -19.1800  -46.2923 H         1 UNK         0.0600 
    187 H187        2.0279  -19.1097  -45.2136 H         1 UNK         0.0600 
    188 H188        1.0559  -17.6690  -45.4819 H         1 UNK         0.0600 
    189 H189        1.6514  -16.5331  -48.2123 H         1 UNK         0.3000 
    190 H190       -2.5067  -23.9727  -46.2364 H         1 UNK         0.3000 
    191 H191       -1.0363  -24.7045  -48.5761 H         1 UNK         0.0600 
    192 H192       -3.2844  -25.6027  -48.0427 H         1 UNK         0.0600 
    193 H193       -2.1373  -26.9221  -48.2101 H         1 UNK         0.0600 
    194 H194       -2.6536  -26.4100  -46.6067 H         1 UNK         0.0600 
    195 H195       -0.2429  -24.9658  -45.2135 H         1 UNK         0.3000 
    196 H196        1.8146  -26.9724  -45.3626 H         1 UNK         0.0600 
    197 H197        2.4434  -26.0427  -43.1310 H         1 UNK         0.0600 
    198 H198        0.7108  -26.3126  -43.2263 H         1 UNK         0.0600 
    199 H199        1.3597  -24.6784  -43.3732 H         1 UNK         0.0600 
    200 H200        1.6700  -23.5813  -46.2664 H         1 UNK         0.3000 
    201 H201        4.6341  -23.3619  -46.5028 H         1 UNK         0.0600 
    202 H202        3.5469  -21.5296  -45.2645 H         1 UNK         0.0600 
    203 H203        2.4413  -21.2333  -46.6034 H         1 UNK         0.0600 
    204 H204        4.1700  -20.9449  -46.8001 H         1 UNK         0.0600 
    205 H205        1.5860  -22.6666  -48.3551 H         1 UNK         0.3000 
    206 H206        2.5524  -23.9224  -50.7341 H         1 UNK         0.0600 
    207 H207        2.6227  -20.8530  -50.7119 H         1 UNK         0.0600 
    208 H208        3.9525  -21.9428  -51.0869 H         1 UNK         0.0600 
    209 H209        2.5872  -21.8187  -52.1800 H         1 UNK         0.0600 
    210 H210        0.4890  -21.1435  -49.8347 H         1 UNK         0.3000 
    211 H211       -1.5847  -20.5873  -50.0860 H         1 UNK         0.0600 
    212 H212       -2.3445  -23.4826  -50.7733 H         1 UNK         0.0600 
    213 H213       -3.4609  -22.1887  -50.3794 H         1 UNK         0.0600 
    214 H214       -2.3603  -22.7715  -49.1607 H         1 UNK         0.0600 
    215 H215       -3.4189  -20.4762  -51.6884 H         1 UNK         0.3000 
    216 H216       -4.2477  -19.7671  -53.5758 H         1 UNK         0.0600 
    217 H217       -3.5391  -21.9409  -54.6097 H         1 UNK         0.0600 
    218 H218       -2.0361  -21.1843  -55.1397 H         1 UNK         0.0600 
    219 H219       -3.5765  -20.6163  -55.7605 H         1 UNK         0.0600 
    220 H220       -3.9917  -18.2400  -55.3515 H         1 UNK         0.3000 
    221 H221       -1.5468  -16.7444  -55.7199 H         1 UNK         0.0600 
    222 H222       -3.9263  -15.3694  -54.3297 H         1 UNK         0.0600 
    223 H223       -2.3304  -15.6323  -53.6371 H         1 UNK         0.0600 
    224 H224       -2.5135  -14.5397  -54.9910 H         1 UNK         0.0600 
    225 H225       -4.1670  -14.7634  -56.3696 H         1 UNK         0.3000 
    226 H226       -4.3463  -15.4217  -59.1820 H         1 UNK         0.0600 
    227 H227       -4.5806  -13.0925  -58.3390 H         1 UNK         0.0600 
    228 H228       -6.0392  -13.5883  -59.1819 H         1 UNK         0.0600 
    229 H229       -6.0192  -13.5452  -57.4231 H         1 UNK         0.0600 
    230 H230       -5.9252  -16.5924  -56.3516 H         1 UNK         0.3000 
    231 H231       -7.6585  -18.3660  -57.8985 H         1 UNK         0.0600 
    232 H232       -9.5801  -17.9389  -56.3529 H         1 UNK         0.0600 
    233 H233       -9.1645  -16.4511  -57.1846 H         1 UNK         0.0600 
    234 H234       -8.6647  -16.6918  -55.5118 H         1 UNK         0.0600 
    235 H235       -8.4615  -20.1041  -56.2883 H         1 UNK         0.3000 
    236 H236       -6.2188  -21.1174  -54.7404 H         1 UNK         0.0600 
    237 H237       -7.7403  -23.0600  -54.3889 H         1 UNK         0.0600 
    238 H238       -9.0685  -22.1766  -55.1323 H         1 UNK         0.0600 
    239 H239       -7.6546  -22.6235  -56.0874 H         1 UNK         0.0600 
    240 H240       -9.0652  -19.2474  -54.0294 H         1 UNK         0.3000 
    241 H241       -9.9492  -18.3254  -52.2506 H         1 UNK         0.0600 
    242 H242      -10.2397  -21.4314  -52.5916 H         1 UNK         0.3800 
    243 H243      -11.0162  -21.8536  -51.0884 H         1 UNK         0.3800 
    244 H244       -8.6611  -17.8346  -50.2003 H         1 UNK         0.0800 
    245 H245       -7.4373  -18.9833  -50.6495 H         1 UNK         0.0800 
    246 H246       -5.6968  -18.6829  -52.2575 H         1 UNK         0.0800 
    247 H247       -5.2264  -17.2104  -53.0606 H         1 UNK         0.0800 
@<TRIPOS>BOND
     1    1    2 1    
     2    1  127 1    
     3    1  128 1    
     4    1  129 1    
     5    2    3 2    
     6    2    4 am   BACKBONE|DICT|INTERRES
     7    4    5 1    
     8    4  130 1    
     9    5    6 1    
    10    5   65 1    
    11    5  131 1    
    12    6    7 1    
    13    6  132 1    
    14    6  133 1    
    15    7    8 1    
    16    8    9 1    
    17    8  134 1    
    18    8  135 1    
    19    9   10 ar   
    20    9   14 ar   
    21   10   11 ar   
    22   10  136 1    
    23   11   12 ar   
    24   11  126 1    
    25   12   13 ar   
    26   12  137 1    
    27   13   14 ar   
    28   13   15 1    
    29   14  138 1    
    30   15   16 1    
    31   15  139 1    
    32   15  140 1    
    33   16   17 1    
    34   17   18 1    
    35   17  141 1    
    36   17  142 1    
    37   18   19 1    
    38   18   67 1    
    39   18  143 1    
    40   19   20 am   BACKBONE|DICT|INTERRES
    41   19  144 1    
    42   20   21 2    
    43   20   22 1    
    44   22   23 1    
    45   22   24 1    
    46   22  145 1    
    47   23  146 1    
    48   23  147 1    
    49   23  148 1    
    50   24   25 am   BACKBONE|DICT|INTERRES
    51   24  149 1    
    52   25   26 2    
    53   25   27 1    
    54   27   28 1    
    55   27   29 1    
    56   27  150 1    
    57   28  151 1    
    58   28  152 1    
    59   28  153 1    
    60   29   30 am   BACKBONE|DICT|INTERRES
    61   29  154 1    
    62   30   31 2    
    63   30   32 1    
    64   32   33 1    
    65   32   34 1    
    66   32  155 1    
    67   33  156 1    
    68   33  157 1    
    69   33  158 1    
    70   34   35 am   BACKBONE|DICT|INTERRES
    71   34  159 1    
    72   35   36 2    
    73   35   37 1    
    74   37   38 1    
    75   37   39 1    
    76   37  160 1    
    77   38  161 1    
    78   38  162 1    
    79   38  163 1    
    80   39   40 am   BACKBONE|DICT|INTERRES
    81   39  164 1    
    82   40   41 2    
    83   40   42 1    
    84   42   43 1    
    85   42   44 1    
    86   42  165 1    
    87   43  166 1    
    88   43  167 1    
    89   43  168 1    
    90   44   45 am   BACKBONE|DICT|INTERRES
    91   44  169 1    
    92   45   46 2    
    93   45   47 1    
    94   47   48 1    
    95   47   49 1    
    96   47  170 1    
    97   48  171 1    
    98   48  172 1    
    99   48  173 1    
   100   49   50 am   BACKBONE|DICT|INTERRES
   101   49  174 1    
   102   50   51 2    
   103   50   52 1    
   104   52   53 1    
   105   52   54 1    
   106   52  175 1    
   107   53  176 1    
   108   53  177 1    
   109   53  178 1    
   110   54   55 am   BACKBONE|DICT|INTERRES
   111   54  179 1    
   112   55   56 2    
   113   55   57 1    
   114   57   58 1    
   115   57   59 1    
   116   57  180 1    
   117   58  181 1    
   118   58  182 1    
   119   58  183 1    
   120   59   60 am   BACKBONE|DICT|INTERRES
   121   59  184 1    
   122   60   61 2    
   123   60   62 1    
   124   62   63 1    
   125   62   64 1    
   126   62  185 1    
   127   63  186 1    
   128   63  187 1    
   129   63  188 1    
   130   64   65 am   BACKBONE|DICT|INTERRES
   131   64  189 1    
   132   65   66 2    
   133   67   68 2    
   134   67   69 am   BACKBONE|DICT|INTERRES
   135   69   70 1    
   136   69  190 1    
   137   70   71 1    
   138   70   72 1    
   139   70  191 1    
   140   71  192 1    
   141   71  193 1    
   142   71  194 1    
   143   72   73 2    
   144   72   74 am   BACKBONE|DICT|INTERRES
   145   74   75 1    
   146   74  195 1    
   147   75   76 1    
   148   75   77 1    
   149   75  196 1    
   150   76  197 1    
   151   76  198 1    
   152   76  199 1    
   153   77   78 2    
   154   77   79 am   BACKBONE|DICT|INTERRES
   155   79   80 1    
   156   79  200 1    
   157   80   81 1    
   158   80   82 1    
   159   80  201 1    
   160   81  202 1    
   161   81  203 1    
   162   81  204 1    
   163   82   83 2    
   164   82   84 am   BACKBONE|DICT|INTERRES
   165   84   85 1    
   166   84  205 1    
   167   85   86 1    
   168   85   87 1    
   169   85  206 1    
   170   86  207 1    
   171   86  208 1    
   172   86  209 1    
   173   87   88 2    
   174   87   89 am   BACKBONE|DICT|INTERRES
   175   89   90 1    
   176   89  210 1    
   177   90   91 1    
   178   90   92 1    
   179   90  211 1    
   180   91  212 1    
   181   91  213 1    
   182   91  214 1    
   183   92   93 2    
   184   92   94 am   BACKBONE|DICT|INTERRES
   185   94   95 1    
   186   94  215 1    
   187   95   96 1    
   188   95   97 1    
   189   95  216 1    
   190   96  217 1    
   191   96  218 1    
   192   96  219 1    
   193   97   98 2    
   194   97   99 am   BACKBONE|DICT|INTERRES
   195   99  100 1    
   196   99  220 1    
   197  100  101 1    
   198  100  102 1    
   199  100  221 1    
   200  101  222 1    
   201  101  223 1    
   202  101  224 1    
   203  102  103 2    
   204  102  104 am   BACKBONE|DICT|INTERRES
   205  104  105 1    
   206  104  225 1    
   207  105  106 1    
   208  105  107 1    
   209  105  226 1    
   210  106  227 1    
   211  106  228 1    
   212  106  229 1    
   213  107  108 2    
   214  107  109 am   BACKBONE|DICT|INTERRES
   215  109  110 1    
   216  109  230 1    
   217  110  111 1    
   218  110  112 1    
   219  110  231 1    
   220  111  232 1    
   221  111  233 1    
   222  111  234 1    
   223  112  113 2    
   224  112  114 am   BACKBONE|DICT|INTERRES
   225  114  115 1    
   226  114  235 1    
   227  115  116 1    
   228  115  117 1    
   229  115  236 1    
   230  116  237 1    
   231  116  238 1    
   232  116  239 1    
   233  117  118 2    
   234  117  119 am   BACKBONE|DICT|INTERRES
   235  119  120 1    
   236  119  240 1    
   237  120  121 1    
   238  120  124 1    
   239  120  241 1    
   240  121  122 am   BACKBONE|DICT|INTERRES
   241  121  123 2    
   242  122  242 1    
   243  122  243 1    
   244  124  125 1    
   245  124  244 1    
   246  124  245 1    
   247  125  126 1    
   248  126  246 1    
   249  126  247 1    
@<TRIPOS>SUBSTRUCTURE
     1 UNK         1 GROUP             0       ****    0 ROOT    
