@<TRIPOS>MOLECULE
3R540
247   249    1
SMALL
USER_CHARGES


@<TRIPOS>ATOM
      1 CA         -2.7537  -11.9811  -44.4477 C.3       0 UNK        -0.1800 
      2 C          -1.7726  -12.6870  -45.3714 C.2       0 UNK         0.5000 
      3 O          -2.0892  -12.9022  -46.5439 O.2       0 UNK        -0.5000 
      4 N          -0.5891  -13.0465  -44.8510 N.am      1 UNK        -0.5000 
      5 CA          0.4718  -13.7329  -45.5944 C.3       1 UNK         0.1400 
      6 C6          1.6201  -14.2500  -44.6877 C.3       23 UNK        -0.0398 
      7 S7          2.2009  -15.8938  -45.2287 S.3       23 UNK        -0.2404 
      8 C8          3.6381  -15.4922  -46.2657 C.3       23 UNK        -0.0205 
      9 C9          3.7527  -16.4706  -47.4249 C.ar      23 UNK        -0.0193 
     10 C10         3.3350  -16.0947  -48.7014 C.ar      23 UNK        -0.1150 
     11 C11         3.4388  -16.9791  -49.7769 C.ar      23 UNK        -0.0193 
     12 C12         3.9607  -18.2603  -49.5637 C.ar      23 UNK        -0.1150 
     13 C13         4.3773  -18.6614  -48.2854 C.ar      23 UNK        -0.0193 
     14 C14         4.2799  -17.7493  -47.2282 C.ar      23 UNK        -0.1150 
     15 C15         4.9901  -20.0387  -48.0090 C.3       23 UNK        -0.0205 
     16 S16         4.5164  -21.3730  -49.1635 S.3       23 UNK        -0.2404 
     17 C17         2.7785  -21.6867  -48.7067 C.3       23 UNK        -0.0398 
     18 CA          2.5237  -23.1423  -48.2533 C.3       11 UNK         0.1400 
     19 N           3.2261  -23.4789  -47.0130 N.am      11 UNK        -0.5000 
     20 C           3.9002  -24.6183  -46.8125 C.2       10 UNK         0.5000 
     21 O           4.0516  -25.4877  -47.6719 O.2       10 UNK        -0.5000 
     22 CA          4.5081  -24.8393  -45.4134 C.3       10 UNK         0.1400 
     23 CB          5.9529  -24.3181  -45.3723 C.3       10 UNK        -0.1800 
     24 N           3.7494  -24.2176  -44.3273 N.am      10 UNK        -0.5000 
     25 C           2.4941  -24.5309  -43.9787 C.2       9 UNK         0.5000 
     26 O           1.8112  -25.3884  -44.5422 O.2       9 UNK        -0.5000 
     27 CA          1.8848  -23.7142  -42.8227 C.3       9 UNK         0.1400 
     28 CB          2.2681  -24.3396  -41.4729 C.3       9 UNK        -0.1800 
     29 N           2.2217  -22.2830  -42.8000 N.am      9 UNK        -0.5000 
     30 C           2.1574  -21.4249  -43.8284 C.2       8 UNK         0.5000 
     31 O           1.9865  -21.7607  -45.0018 O.2       8 UNK        -0.5000 
     32 CA          2.3378  -19.9337  -43.4959 C.3       8 UNK         0.1400 
     33 CB          3.7462  -19.4670  -43.8823 C.3       8 UNK        -0.1800 
     34 N           1.3422  -19.1230  -44.1997 N.am      8 UNK        -0.5000 
     35 C           0.0354  -19.1244  -43.9049 C.2       7 UNK         0.5000 
     36 O          -0.4404  -19.7427  -42.9513 O.2       7 UNK        -0.5000 
     37 CA         -0.9139  -18.2996  -44.7963 C.3       7 UNK         0.1400 
     38 CB         -1.3424  -17.0079  -44.0807 C.3       7 UNK        -0.1800 
     39 N          -0.4056  -17.9481  -46.1236 N.am      7 UNK        -0.5000 
     40 C          -0.1793  -18.8042  -47.1276 C.2       6 UNK         0.5000 
     41 O          -0.1837  -20.0259  -47.0003 O.2       6 UNK        -0.5000 
     42 CA         -0.0500  -18.1689  -48.5243 C.3       6 UNK         0.1400 
     43 CB          0.3241  -19.1802  -49.6184 C.3       6 UNK        -0.1800 
     44 N          -1.3355  -17.5631  -48.8656 N.am      6 UNK        -0.5000 
     45 C          -1.6814  -16.3109  -48.5612 C.2       5 UNK         0.5000 
     46 O          -0.8947  -15.4766  -48.1159 O.2       5 UNK        -0.5000 
     47 CA         -3.1657  -15.9702  -48.6993 C.3       5 UNK         0.1400 
     48 CB         -3.9659  -16.5614  -47.5234 C.3       5 UNK        -0.1800 
     49 N          -3.3620  -14.5258  -48.7171 N.am      5 UNK        -0.5000 
     50 C          -4.3473  -13.9210  -49.3889 C.2       4 UNK         0.5000 
     51 O          -5.1376  -14.5313  -50.1126 O.2       4 UNK        -0.5000 
     52 CA         -4.5017  -12.4002  -49.2321 C.3       4 UNK         0.1400 
     53 CB         -5.5375  -12.0754  -48.1432 C.3       4 UNK        -0.1800 
     54 N          -3.2424  -11.7269  -48.9105 N.am      4 UNK        -0.5000 
     55 C          -2.8558  -10.5573  -49.4362 C.2       3 UNK         0.5000 
     56 O          -3.5023   -9.9353  -50.2806 O.2       3 UNK        -0.5000 
     57 CA         -1.5240   -9.9725  -48.9332 C.3       3 UNK         0.1400 
     58 CB         -1.7344   -9.1931  -47.6263 C.3       3 UNK        -0.1800 
     59 N          -0.4978  -10.9905  -48.7225 N.am      3 UNK        -0.5000 
     60 C           0.1420  -11.6548  -49.6924 C.2       2 UNK         0.5000 
     61 O          -0.0640  -11.4667  -50.8918 O.2       2 UNK        -0.5000 
     62 CA          1.1800  -12.7129  -49.2689 C.3       2 UNK         0.1400 
     63 CB          2.6122  -12.1455  -49.3354 C.3       2 UNK        -0.1800 
     64 N           0.8938  -13.3498  -47.9763 N.am      2 UNK        -0.5000 
     65 C           0.9980  -12.8460  -46.7410 C.2       1 UNK         0.5000 
     66 O           1.4259  -11.7194  -46.4847 O.2       1 UNK        -0.5000 
     67 C           1.0107  -23.3957  -48.1074 C.2       11 UNK         0.5000 
     68 O           0.3732  -23.7820  -49.0877 O.2       11 UNK        -0.5000 
     69 N           0.4617  -23.1708  -46.9045 N.am      12 UNK        -0.5000 
     70 CA         -0.9674  -23.2538  -46.6073 C.3       12 UNK         0.1400 
     71 CB         -1.2302  -22.7114  -45.1950 C.3       12 UNK        -0.1800 
     72 C          -1.5460  -24.6700  -46.7400 C.2       12 UNK         0.5000 
     73 O          -2.6838  -24.8070  -47.1919 O.2       12 UNK        -0.5000 
     74 N          -0.7586  -25.6827  -46.3423 N.am      13 UNK        -0.5000 
     75 CA         -1.0496  -27.1182  -46.4109 C.3       13 UNK         0.1400 
     76 CB         -0.9742  -27.6021  -47.8758 C.3       13 UNK        -0.1800 
     77 C          -2.3739  -27.4887  -45.7081 C.2       13 UNK         0.5000 
     78 O          -2.3926  -27.6305  -44.4851 O.2       13 UNK        -0.5000 
     79 N          -3.4569  -27.6101  -46.4882 N.am      14 UNK        -0.5000 
     80 CA         -4.8242  -27.8705  -46.0305 C.3       14 UNK         0.1400 
     81 CB         -5.6551  -28.3418  -47.2354 C.3       14 UNK        -0.1800 
     82 C          -5.5036  -26.6606  -45.3515 C.2       14 UNK         0.5000 
     83 O          -6.6133  -26.8088  -44.8387 O.2       14 UNK        -0.5000 
     84 N          -4.8619  -25.4837  -45.3943 N.am      15 UNK        -0.5000 
     85 CA         -5.2629  -24.1829  -44.8420 C.3       15 UNK         0.1400 
     86 CB         -5.5949  -24.2537  -43.3398 C.3       15 UNK        -0.1800 
     87 C          -6.3766  -23.4955  -45.6470 C.2       15 UNK         0.5000 
     88 O          -6.2520  -22.3116  -45.9565 O.2       15 UNK        -0.5000 
     89 N          -7.4053  -24.2529  -46.0471 N.am      16 UNK        -0.5000 
     90 CA         -8.4510  -23.8137  -46.9769 C.3       16 UNK         0.1400 
     91 CB         -9.5547  -24.8805  -47.0271 C.3       16 UNK        -0.1800 
     92 C          -7.9060  -23.5310  -48.3931 C.2       16 UNK         0.5000 
     93 O          -8.4615  -22.7007  -49.1123 O.2       16 UNK        -0.5000 
     94 N          -6.8088  -24.2118  -48.7491 N.am      17 UNK        -0.5000 
     95 CA         -6.0879  -24.0726  -50.0124 C.3       17 UNK         0.1400 
     96 CB         -5.2643  -25.3525  -50.2342 C.3       17 UNK        -0.1800 
     97 C          -5.1726  -22.8320  -50.0751 C.2       17 UNK         0.5000 
     98 O          -4.6588  -22.5337  -51.1524 O.2       17 UNK        -0.5000 
     99 N          -4.9523  -22.1501  -48.9403 N.am      18 UNK        -0.5000 
    100 CA        -4.0067  -21.0382  -48.8148 C.3       18 UNK         0.1400 
    101 CB        -3.7754  -20.7432  -47.3256 C.3       18 UNK        -0.1800 
    102 C         -4.4535  -19.7491  -49.5255 C.2       18 UNK         0.5000 
    103 O         -3.5947  -18.9586  -49.9200 O.2       18 UNK        -0.5000 
    104 N         -5.7727  -19.5368  -49.6339 N.am      19 UNK        -0.5000 
    105 CA        -6.4005  -18.3327  -50.1817 C.3       19 UNK         0.1400 
    106 CB        -7.9267  -18.4641  -50.0649 C.3       19 UNK        -0.1800 
    107 C         -5.9770  -18.0585  -51.6362 C.2       19 UNK         0.5000 
    108 O         -6.2113  -18.9008  -52.5048 O.2       19 UNK        -0.5000 
    109 N         -5.3415  -16.8978  -51.8562 N.am      20 UNK        -0.5000 
    110 CA        -4.7904  -16.4010  -53.1235 C.3       20 UNK         0.1400 
    111 CB        -5.9282  -16.0889  -54.1169 C.3       20 UNK        -0.1800 
    112 C         -3.6921  -17.2867  -53.7593 C.2       20 UNK         0.5000 
    113 O         -3.3442  -17.0708  -54.9224 O.2       20 UNK        -0.5000 
    114 N         -3.1372  -18.2471  -53.0028 N.am      21 UNK        -0.5000 
    115 CA        -2.1826  -19.2488  -53.4927 C.3       21 UNK         0.1400 
    116 CB        -2.0075  -20.3436  -52.4326 C.3       21 UNK        -0.1800 
    117 C         -0.8190  -18.6789  -53.9304 C.2       21 UNK         0.5000 
    118 O         -0.1049  -19.3411  -54.6846 O.2       21 UNK        -0.5000 
    119 N         -0.4947  -17.4600  -53.4820 N.am      22 UNK        -0.5000 
    120 CA         0.6712  -16.6852  -53.9361 C.3       22 UNK         0.1400 
    121 C          0.5348  -16.1169  -55.3814 C.2       22 UNK         0.5000 
    122 N         -0.6392  -16.1345  -56.0047 N.am      22 UNK        -0.7600 
    123 O          1.5186  -15.6534  -55.9515 O.2       22 UNK        -0.5000 
    124 C124        1.0466  -15.5521  -52.9462 C.3       23 UNK        -0.0398 
    125 S125        1.2371  -16.1268  -51.2278 S.3       23 UNK        -0.2404 
    126 C126        3.0108  -16.5282  -51.1673 C.3       23 UNK        -0.0205 
    127 H127       -2.3432  -11.8446  -43.4470 H         1 UNK         0.0600 
    128 H128       -3.6708  -12.5641  -44.3638 H         1 UNK         0.0600 
    129 H129       -3.0093  -11.0004  -44.8483 H         1 UNK         0.0600 
    130 H130       -0.3764  -12.8066  -43.8936 H         1 UNK         0.3000 
    131 H131       -0.0214  -14.6034  -46.0220 H         1 UNK         0.0600 
    132 H132        1.2628  -14.3774  -43.6652 H         1 UNK         0.0800 
    133 H133        2.4538  -13.5484  -44.6184 H         1 UNK         0.0800 
    134 H134        4.5429  -15.5244  -45.6572 H         1 UNK         0.0800 
    135 H135        3.5581  -14.4725  -46.6447 H         1 UNK         0.0800 
    136 H136        2.9247  -15.1103  -48.8641 H         1 UNK         0.1150 
    137 H137        4.0510  -18.9374  -50.4004 H         1 UNK         0.1150 
    138 H138        4.6249  -18.0263  -46.2437 H         1 UNK         0.1150 
    139 H139        4.7445  -20.3653  -46.9985 H         1 UNK         0.0800 
    140 H140        6.0752  -19.9343  -48.0403 H         1 UNK         0.0800 
    141 H141        2.1874  -21.4814  -49.5996 H         1 UNK         0.0800 
    142 H142        2.4542  -20.9785  -47.9412 H         1 UNK         0.0800 
    143 H143        2.8685  -23.7926  -49.0603 H         1 UNK         0.0600 
    144 H144        3.0974  -22.8386  -46.2367 H         1 UNK         0.3000 
    145 H145        4.5263  -25.9157  -45.2304 H         1 UNK         0.0600 
    146 H146        6.5580  -24.7823  -46.1522 H         1 UNK         0.0600 
    147 H147        6.4278  -24.5435  -44.4172 H         1 UNK         0.0600 
    148 H148        5.9948  -23.2386  -45.5237 H         1 UNK         0.0600 
    149 H149        4.2141  -23.4832  -43.8141 H         1 UNK         0.3000 
    150 H150        0.8013  -23.7828  -42.9167 H         1 UNK         0.0600 
    151 H151        1.7373  -23.8607  -40.6499 H         1 UNK         0.0600 
    152 H152        2.0142  -25.4003  -41.4458 H         1 UNK         0.0600 
    153 H153        3.3379  -24.2531  -41.2787 H         1 UNK         0.0600 
    154 H154        2.3996  -21.9009  -41.8824 H         1 UNK         0.3000 
    155 H155        2.2059  -19.7811  -42.4226 H         1 UNK         0.0600 
    156 H156        3.9627  -19.6972  -44.9236 H         1 UNK         0.0600 
    157 H157        4.5018  -19.9667  -43.2752 H         1 UNK         0.0600 
    158 H158        3.8663  -18.3931  -43.7370 H         1 UNK         0.0600 
    159 H159        1.6520  -18.6095  -45.0116 H         1 UNK         0.3000 
    160 H160       -1.8071  -18.9093  -44.9481 H         1 UNK         0.0600 
    161 H161       -1.8093  -17.2297  -43.1202 H         1 UNK         0.0600 
    162 H162       -2.0675  -16.4469  -44.6703 H         1 UNK         0.0600 
    163 H163       -0.4921  -16.3546  -43.8860 H         1 UNK         0.0600 
    164 H164       -0.3745  -16.9615  -46.3402 H         1 UNK         0.3000 
    165 H165        0.7304  -17.4068  -48.4844 H         1 UNK         0.0600 
    166 H166        1.3739  -19.4422  -49.5269 H         1 UNK         0.0600 
    167 H167       -0.2660  -20.0959  -49.5651 H         1 UNK         0.0600 
    168 H168        0.1947  -18.7585  -50.6139 H         1 UNK         0.0600 
    169 H169       -2.0546  -18.1905  -49.2178 H         1 UNK         0.3000 
    170 H170       -3.5101  -16.4028  -49.6390 H         1 UNK         0.0600 
    171 H171       -3.6631  -16.1170  -46.5747 H         1 UNK         0.0600 
    172 H172       -3.8208  -17.6381  -47.4390 H         1 UNK         0.0600 
    173 H173       -5.0348  -16.3868  -47.6439 H         1 UNK         0.0600 
    174 H174       -2.7287  -13.9987  -48.1240 H         1 UNK         0.3000 
    175 H175       -4.8844  -12.0366  -50.1881 H         1 UNK         0.0600 
    176 H176       -6.4888  -12.5693  -48.3455 H         1 UNK         0.0600 
    177 H177       -5.1978  -12.4020  -47.1593 H         1 UNK         0.0600 
    178 H178       -5.7320  -11.0040  -48.0916 H         1 UNK         0.0600 
    179 H179       -2.6714  -12.1481  -48.1829 H         1 UNK         0.3000 
    180 H180       -1.1598   -9.2739  -49.6895 H         1 UNK         0.0600 
    181 H181       -2.0801   -9.8425  -46.8219 H         1 UNK         0.0600 
    182 H182       -2.4787   -8.4064  -47.7562 H         1 UNK         0.0600 
    183 H183       -0.8107   -8.7159  -47.2984 H         1 UNK         0.0600 
    184 H184       -0.2398  -11.1937  -47.7656 H         1 UNK         0.3000 
    185 H185        1.1125  -13.5139  -50.0040 H         1 UNK         0.0600 
    186 H186        2.8606  -11.8506  -50.3555 H         1 UNK         0.0600 
    187 H187        2.7305  -11.2615  -48.7086 H         1 UNK         0.0600 
    188 H188        3.3536  -12.8786  -49.0209 H         1 UNK         0.0600 
    189 H189        0.4016  -14.2398  -48.0593 H         1 UNK         0.3000 
    190 H190        1.0429  -22.7662  -46.1743 H         1 UNK         0.3000 
    191 H191       -1.4805  -22.6135  -47.3265 H         1 UNK         0.0600 
    192 H192       -0.8243  -21.7091  -45.0724 H         1 UNK         0.0600 
    193 H193       -2.2963  -22.6507  -44.9854 H         1 UNK         0.0600 
    194 H194       -0.7861  -23.3487  -44.4330 H         1 UNK         0.0600 
    195 H195        0.1393  -25.4465  -45.9338 H         1 UNK         0.3000 
    196 H196       -0.2555  -27.6214  -45.8571 H         1 UNK         0.0600 
    197 H197       -1.1922  -28.6684  -47.9499 H         1 UNK         0.0600 
    198 H198        0.0265  -27.4499  -48.2806 H         1 UNK         0.0600 
    199 H199       -1.6713  -27.0727  -48.5262 H         1 UNK         0.0600 
    200 H200       -3.3432  -27.4328  -47.4758 H         1 UNK         0.3000 
    201 H201       -4.7935  -28.6780  -45.2964 H         1 UNK         0.0600 
    202 H202       -6.6728  -28.5970  -46.9367 H         1 UNK         0.0600 
    203 H203       -5.2209  -29.2324  -47.6900 H         1 UNK         0.0600 
    204 H204       -5.7226  -27.5713  -48.0041 H         1 UNK         0.0600 
    205 H205       -4.0007  -25.4565  -45.9338 H         1 UNK         0.3000 
    206 H206       -4.3825  -23.5497  -44.9428 H         1 UNK         0.0600 
    207 H207       -4.7835  -24.7175  -42.7789 H         1 UNK         0.0600 
    208 H208       -5.7431  -23.2536  -42.9309 H         1 UNK         0.0600 
    209 H209       -6.5060  -24.8193  -43.1446 H         1 UNK         0.0600 
    210 H210       -7.4329  -25.2163  -45.7283 H         1 UNK         0.3000 
    211 H211       -8.8820  -22.8861  -46.5946 H         1 UNK         0.0600 
    212 H212      -10.3610  -24.5778  -47.6966 H         1 UNK         0.0600 
    213 H213       -9.9936  -25.0399  -46.0420 H         1 UNK         0.0600 
    214 H214       -9.1727  -25.8382  -47.3833 H         1 UNK         0.0600 
    215 H215       -6.4227  -24.8635  -48.0831 H         1 UNK         0.3000 
    216 H216       -6.8141  -23.9853  -50.8233 H         1 UNK         0.0600 
    217 H217       -4.5192  -25.4919  -49.4494 H         1 UNK         0.0600 
    218 H218       -4.7337  -25.3181  -51.1866 H         1 UNK         0.0600 
    219 H219       -5.9034  -26.2355  -50.2538 H         1 UNK         0.0600 
    220 H220       -5.4273  -22.4366  -48.0948 H         1 UNK         0.3000 
    221 H221       -3.0565  -21.3511  -49.2536 H         1 UNK         0.0600 
    222 H222       -4.6554  -20.2958  -46.8618 H         1 UNK         0.0600 
    223 H223       -3.5394  -21.6500  -46.7721 H         1 UNK         0.0600 
    224 H224       -2.9465  -20.0491  -47.1888 H         1 UNK         0.0600 
    225 H225       -6.3961  -20.2612  -49.3091 H         1 UNK         0.3000 
    226 H226       -6.0889  -17.4897  -49.5624 H         1 UNK         0.0600 
    227 H227       -8.2351  -18.5753  -49.0252 H         1 UNK         0.0600 
    228 H228       -8.4259  -17.5781  -50.4591 H         1 UNK         0.0600 
    229 H229       -8.2997  -19.3264  -50.6193 H         1 UNK         0.0600 
    230 H230       -5.2410  -16.2474  -51.0815 H         1 UNK         0.3000 
    231 H231       -4.3014  -15.4566  -52.8807 H         1 UNK         0.0600 
    232 H232       -6.4304  -16.9958  -54.4548 H         1 UNK         0.0600 
    233 H233       -5.5494  -15.5767  -55.0021 H         1 UNK         0.0600 
    234 H234       -6.6774  -15.4383  -53.6656 H         1 UNK         0.0600 
    235 H235       -3.4606  -18.3642  -52.0501 H         1 UNK         0.3000 
    236 H236       -2.6240  -19.7133  -54.3769 H         1 UNK         0.0600 
    237 H237       -1.2955  -21.1031  -52.7577 H         1 UNK         0.0600 
    238 H238       -1.6483  -19.9345  -51.4912 H         1 UNK         0.0600 
    239 H239       -2.9527  -20.8476  -52.2365 H         1 UNK         0.0600 
    240 H240       -1.1283  -16.9930  -52.8520 H         1 UNK         0.3000 
    241 H241        1.5185  -17.3728  -53.9680 H         1 UNK         0.0600 
    242 H242       -0.7051  -15.7657  -56.9401 H         1 UNK         0.3800 
    243 H243       -1.4685  -16.5122  -55.5598 H         1 UNK         0.3800 
    244 H244        1.9687  -15.0574  -53.2567 H         1 UNK         0.0800 
    245 H245        0.2756  -14.7797  -52.9498 H         1 UNK         0.0800 
    246 H246        3.2268  -17.2998  -51.9077 H         1 UNK         0.0800 
    247 H247        3.5927  -15.6495  -51.4488 H         1 UNK         0.0800 
@<TRIPOS>BOND
     1    1    2 1    
     2    1  127 1    
     3    1  128 1    
     4    1  129 1    
     5    2    3 2    
     6    2    4 am   BACKBONE|DICT|INTERRES
     7    4    5 1    
     8    4  130 1    
     9    5    6 1    
    10    5   65 1    
    11    5  131 1    
    12    6    7 1    
    13    6  132 1    
    14    6  133 1    
    15    7    8 1    
    16    8    9 1    
    17    8  134 1    
    18    8  135 1    
    19    9   10 ar   
    20    9   14 ar   
    21   10   11 ar   
    22   10  136 1    
    23   11   12 ar   
    24   11  126 1    
    25   12   13 ar   
    26   12  137 1    
    27   13   14 ar   
    28   13   15 1    
    29   14  138 1    
    30   15   16 1    
    31   15  139 1    
    32   15  140 1    
    33   16   17 1    
    34   17   18 1    
    35   17  141 1    
    36   17  142 1    
    37   18   19 1    
    38   18   67 1    
    39   18  143 1    
    40   19   20 am   BACKBONE|DICT|INTERRES
    41   19  144 1    
    42   20   21 2    
    43   20   22 1    
    44   22   23 1    
    45   22   24 1    
    46   22  145 1    
    47   23  146 1    
    48   23  147 1    
    49   23  148 1    
    50   24   25 am   BACKBONE|DICT|INTERRES
    51   24  149 1    
    52   25   26 2    
    53   25   27 1    
    54   27   28 1    
    55   27   29 1    
    56   27  150 1    
    57   28  151 1    
    58   28  152 1    
    59   28  153 1    
    60   29   30 am   BACKBONE|DICT|INTERRES
    61   29  154 1    
    62   30   31 2    
    63   30   32 1    
    64   32   33 1    
    65   32   34 1    
    66   32  155 1    
    67   33  156 1    
    68   33  157 1    
    69   33  158 1    
    70   34   35 am   BACKBONE|DICT|INTERRES
    71   34  159 1    
    72   35   36 2    
    73   35   37 1    
    74   37   38 1    
    75   37   39 1    
    76   37  160 1    
    77   38  161 1    
    78   38  162 1    
    79   38  163 1    
    80   39   40 am   BACKBONE|DICT|INTERRES
    81   39  164 1    
    82   40   41 2    
    83   40   42 1    
    84   42   43 1    
    85   42   44 1    
    86   42  165 1    
    87   43  166 1    
    88   43  167 1    
    89   43  168 1    
    90   44   45 am   BACKBONE|DICT|INTERRES
    91   44  169 1    
    92   45   46 2    
    93   45   47 1    
    94   47   48 1    
    95   47   49 1    
    96   47  170 1    
    97   48  171 1    
    98   48  172 1    
    99   48  173 1    
   100   49   50 am   BACKBONE|DICT|INTERRES
   101   49  174 1    
   102   50   51 2    
   103   50   52 1    
   104   52   53 1    
   105   52   54 1    
   106   52  175 1    
   107   53  176 1    
   108   53  177 1    
   109   53  178 1    
   110   54   55 am   BACKBONE|DICT|INTERRES
   111   54  179 1    
   112   55   56 2    
   113   55   57 1    
   114   57   58 1    
   115   57   59 1    
   116   57  180 1    
   117   58  181 1    
   118   58  182 1    
   119   58  183 1    
   120   59   60 am   BACKBONE|DICT|INTERRES
   121   59  184 1    
   122   60   61 2    
   123   60   62 1    
   124   62   63 1    
   125   62   64 1    
   126   62  185 1    
   127   63  186 1    
   128   63  187 1    
   129   63  188 1    
   130   64   65 am   BACKBONE|DICT|INTERRES
   131   64  189 1    
   132   65   66 2    
   133   67   68 2    
   134   67   69 am   BACKBONE|DICT|INTERRES
   135   69   70 1    
   136   69  190 1    
   137   70   71 1    
   138   70   72 1    
   139   70  191 1    
   140   71  192 1    
   141   71  193 1    
   142   71  194 1    
   143   72   73 2    
   144   72   74 am   BACKBONE|DICT|INTERRES
   145   74   75 1    
   146   74  195 1    
   147   75   76 1    
   148   75   77 1    
   149   75  196 1    
   150   76  197 1    
   151   76  198 1    
   152   76  199 1    
   153   77   78 2    
   154   77   79 am   BACKBONE|DICT|INTERRES
   155   79   80 1    
   156   79  200 1    
   157   80   81 1    
   158   80   82 1    
   159   80  201 1    
   160   81  202 1    
   161   81  203 1    
   162   81  204 1    
   163   82   83 2    
   164   82   84 am   BACKBONE|DICT|INTERRES
   165   84   85 1    
   166   84  205 1    
   167   85   86 1    
   168   85   87 1    
   169   85  206 1    
   170   86  207 1    
   171   86  208 1    
   172   86  209 1    
   173   87   88 2    
   174   87   89 am   BACKBONE|DICT|INTERRES
   175   89   90 1    
   176   89  210 1    
   177   90   91 1    
   178   90   92 1    
   179   90  211 1    
   180   91  212 1    
   181   91  213 1    
   182   91  214 1    
   183   92   93 2    
   184   92   94 am   BACKBONE|DICT|INTERRES
   185   94   95 1    
   186   94  215 1    
   187   95   96 1    
   188   95   97 1    
   189   95  216 1    
   190   96  217 1    
   191   96  218 1    
   192   96  219 1    
   193   97   98 2    
   194   97   99 am   BACKBONE|DICT|INTERRES
   195   99  100 1    
   196   99  220 1    
   197  100  101 1    
   198  100  102 1    
   199  100  221 1    
   200  101  222 1    
   201  101  223 1    
   202  101  224 1    
   203  102  103 2    
   204  102  104 am   BACKBONE|DICT|INTERRES
   205  104  105 1    
   206  104  225 1    
   207  105  106 1    
   208  105  107 1    
   209  105  226 1    
   210  106  227 1    
   211  106  228 1    
   212  106  229 1    
   213  107  108 2    
   214  107  109 am   BACKBONE|DICT|INTERRES
   215  109  110 1    
   216  109  230 1    
   217  110  111 1    
   218  110  112 1    
   219  110  231 1    
   220  111  232 1    
   221  111  233 1    
   222  111  234 1    
   223  112  113 2    
   224  112  114 am   BACKBONE|DICT|INTERRES
   225  114  115 1    
   226  114  235 1    
   227  115  116 1    
   228  115  117 1    
   229  115  236 1    
   230  116  237 1    
   231  116  238 1    
   232  116  239 1    
   233  117  118 2    
   234  117  119 am   BACKBONE|DICT|INTERRES
   235  119  120 1    
   236  119  240 1    
   237  120  121 1    
   238  120  124 1    
   239  120  241 1    
   240  121  122 am   BACKBONE|DICT|INTERRES
   241  121  123 2    
   242  122  242 1    
   243  122  243 1    
   244  124  125 1    
   245  124  244 1    
   246  124  245 1    
   247  125  126 1    
   248  126  246 1    
   249  126  247 1    
@<TRIPOS>SUBSTRUCTURE
     1 UNK         1 GROUP             0       ****    0 ROOT    
