@<TRIPOS>MOLECULE
3R540
247   249    1
SMALL
USER_CHARGES


@<TRIPOS>ATOM
      1 CA          5.2906  -11.3530  -47.4427 C.3       0 UNK        -0.1800 
      2 C           6.4899  -12.2157  -47.8356 C.2       0 UNK         0.5000 
      3 O           7.6183  -11.8164  -47.5558 O.2       0 UNK        -0.5000 
      4 N           6.3341  -13.3908  -48.4669 N.am      1 UNK        -0.5000 
      5 CA          5.1099  -14.0789  -48.9031 C.3       1 UNK         0.1400 
      6 C6          4.4842  -13.4874  -50.1969 C.3       23 UNK        -0.0398 
      7 S7          5.4731  -13.8264  -51.6987 S.3       23 UNK        -0.2404 
      8 C8          5.2765  -15.6257  -51.9961 C.3       23 UNK        -0.0205 
      9 C9          3.9367  -16.1831  -51.5336 C.ar      23 UNK        -0.0193 
     10 C10         2.7599  -15.8597  -52.2152 C.ar      23 UNK        -0.1150 
     11 C11         1.5205  -16.2928  -51.7339 C.ar      23 UNK        -0.0193 
     12 C12         1.4680  -17.0601  -50.5669 C.ar      23 UNK        -0.1150 
     13 C13         2.6373  -17.4015  -49.8858 C.ar      23 UNK        -0.0193 
     14 C14         3.8697  -16.9772  -50.3849 C.ar      23 UNK        -0.1150 
     15 C15         2.5710  -18.1733  -48.5783 C.3       23 UNK        -0.0205 
     16 S16         2.9005  -19.9460  -48.8076 S.3       23 UNK        -0.2404 
     17 C17         1.3322  -20.5540  -49.5133 C.3       23 UNK        -0.0398 
     18 CA          0.4380  -21.2117  -48.4383 C.3       11 UNK         0.1400 
     19 N          -0.0726  -20.2460  -47.4609 N.am      11 UNK        -0.5000 
     20 C          -0.6114  -20.5861  -46.2831 C.2       10 UNK         0.5000 
     21 O          -0.7335  -21.7459  -45.8926 O.2       10 UNK        -0.5000 
     22 CA         -1.1516  -19.4319  -45.4256 C.3       10 UNK         0.1400 
     23 CB          0.0006  -18.7333  -44.6885 C.3       10 UNK        -0.1800 
     24 N          -1.9143  -18.4587  -46.2142 N.am      10 UNK        -0.5000 
     25 C          -3.0740  -18.7427  -46.8302 C.2       9 UNK         0.5000 
     26 O          -3.5781  -19.8654  -46.8309 O.2       9 UNK        -0.5000 
     27 CA         -3.7943  -17.6180  -47.5943 C.3       9 UNK         0.1400 
     28 CB         -5.0810  -17.1927  -46.8711 C.3       9 UNK        -0.1800 
     29 N          -2.9547  -16.4441  -47.8106 N.am      9 UNK        -0.5000 
     30 C          -2.1399  -16.2920  -48.8625 C.2       8 UNK         0.5000 
     31 O          -2.0477  -17.1140  -49.7757 O.2       8 UNK        -0.5000 
     32 CA         -1.2654  -15.0231  -48.8998 C.3       8 UNK         0.1400 
     33 CB         -1.9215  -13.9522  -49.7832 C.3       8 UNK        -0.1800 
     34 N          -0.9825  -14.4544  -47.5810 N.am      8 UNK        -0.5000 
     35 C          -0.3214  -15.0790  -46.5970 C.2       7 UNK         0.5000 
     36 O           0.1259  -16.2225  -46.6958 O.2       7 UNK        -0.5000 
     37 CA         -0.1748  -14.3340  -45.2570 C.3       7 UNK         0.1400 
     38 CB         -0.5241  -12.8311  -45.3231 C.3       7 UNK        -0.1800 
     39 N          -0.9269  -14.9855  -44.1826 N.am      7 UNK        -0.5000 
     40 C          -2.2468  -15.2314  -44.1406 C.2       6 UNK         0.5000 
     41 O          -3.0067  -15.0146  -45.0857 O.2       6 UNK        -0.5000 
     42 CA         -2.8293  -15.8087  -42.8284 C.3       6 UNK         0.1400 
     43 CB         -3.3400  -17.2450  -43.0253 C.3       6 UNK        -0.1800 
     44 N          -1.8874  -15.8011  -41.7067 N.am      6 UNK        -0.5000 
     45 C          -1.4623  -14.7109  -41.0526 C.2       5 UNK         0.5000 
     46 O          -1.9107  -13.5812  -41.2497 O.2       5 UNK        -0.5000 
     47 CA         -0.3206  -14.9060  -40.0300 C.3       5 UNK         0.1400 
     48 CB         -0.8724  -14.8583  -38.5967 C.3       5 UNK        -0.1800 
     49 N           0.4590  -16.1415  -40.1955 N.am      5 UNK        -0.5000 
     50 C           1.1539  -16.4898  -41.2870 C.2       4 UNK         0.5000 
     51 O           1.1868  -15.8127  -42.3205 O.2       4 UNK        -0.5000 
     52 CA          1.8921  -17.8380  -41.2328 C.3       4 UNK         0.1400 
     53 CB          0.9201  -19.0078  -40.9764 C.3       4 UNK        -0.1800 
     54 N           2.5715  -18.0153  -42.5091 N.am      4 UNK        -0.5000 
     55 C           3.5770  -18.8503  -42.7908 C.2       3 UNK         0.5000 
     56 O           4.0585  -19.6406  -41.9786 O.2       3 UNK        -0.5000 
     57 CA          4.1463  -18.7873  -44.2243 C.3       3 UNK         0.1400 
     58 CB          3.6845  -19.9987  -45.0506 C.3       3 UNK        -0.1800 
     59 N           3.7669  -17.5560  -44.9267 N.am      3 UNK        -0.5000 
     60 C           4.3836  -16.3789  -44.7642 C.2       2 UNK         0.5000 
     61 O           5.4092  -16.2241  -44.0995 O.2       2 UNK        -0.5000 
     62 CA          3.7570  -15.1788  -45.4807 C.3       2 UNK         0.1400 
     63 CB          3.6423  -13.9480  -44.5614 C.3       2 UNK        -0.1800 
     64 N           4.5649  -14.8598  -46.6495 N.am      2 UNK        -0.5000 
     65 C           4.0895  -14.2909  -47.7623 C.2       1 UNK         0.5000 
     66 O           2.9204  -13.9242  -47.8903 O.2       1 UNK        -0.5000 
     67 C          -0.7057  -22.0211  -49.0796 C.2       11 UNK         0.5000 
     68 O          -0.5384  -23.2189  -49.3029 O.2       11 UNK        -0.5000 
     69 N          -1.8612  -21.3773  -49.3083 N.am      12 UNK        -0.5000 
     70 CA         -3.0646  -22.0199  -49.8401 C.3       12 UNK         0.1400 
     71 CB         -4.1022  -20.9487  -50.2081 C.3       12 UNK        -0.1800 
     72 C          -3.6635  -23.0426  -48.8582 C.2       12 UNK         0.5000 
     73 O          -4.1204  -24.1044  -49.2867 O.2       12 UNK        -0.5000 
     74 N          -3.6333  -22.7101  -47.5609 N.am      13 UNK        -0.5000 
     75 CA         -4.0200  -23.5957  -46.4667 C.3       13 UNK         0.1400 
     76 CB         -4.1656  -22.7813  -45.1724 C.3       13 UNK        -0.1800 
     77 C          -3.0246  -24.7550  -46.2842 C.2       13 UNK         0.5000 
     78 O          -3.4549  -25.9025  -46.1739 O.2       13 UNK        -0.5000 
     79 N          -1.7181  -24.4483  -46.2947 N.am      14 UNK        -0.5000 
     80 CA         -0.6285  -25.4215  -46.1573 C.3       14 UNK         0.1400 
     81 CB          0.7126  -24.6835  -46.0325 C.3       14 UNK        -0.1800 
     82 C          -0.5744  -26.4480  -47.3046 C.2       14 UNK         0.5000 
     83 O          -0.3030  -27.6232  -47.0563 O.2       14 UNK        -0.5000 
     84 N          -0.8716  -25.9967  -48.5306 N.am      15 UNK        -0.5000 
     85 CA         -1.0036  -26.8352  -49.7242 C.3       15 UNK         0.1400 
     86 CB         -0.9377  -25.9343  -50.9685 C.3       15 UNK        -0.1800 
     87 C          -2.2984  -27.6736  -49.7497 C.2       15 UNK         0.5000 
     88 O          -2.4220  -28.5519  -50.6041 O.2       15 UNK        -0.5000 
     89 N          -3.2453  -27.3697  -48.8474 N.am      16 UNK        -0.5000 
     90 CA         -4.5995  -27.9250  -48.7457 C.3       16 UNK         0.1400 
     91 CB         -4.5622  -29.4315  -48.4148 C.3       16 UNK        -0.1800 
     92 C          -5.4813  -27.5945  -49.9692 C.2       16 UNK         0.5000 
     93 O          -6.4305  -28.3237  -50.2621 O.2       16 UNK        -0.5000 
     94 N          -5.1584  -26.4901  -50.6551 N.am      17 UNK        -0.5000 
     95 CA         -5.9130  -25.9579  -51.7858 C.3       17 UNK         0.1400 
     96 CB         -4.9817  -25.0899  -52.6479 C.3       17 UNK        -0.1800 
     97 C          -7.1217  -25.1397  -51.3062 C.2       17 UNK         0.5000 
     98 O          -8.1814  -25.2001  -51.9296 O.2       17 UNK        -0.5000 
     99 N          -6.9270  -24.3886  -50.2088 N.am      18 UNK        -0.5000 
    100 CA        -7.9035  -23.5236  -49.5322 C.3       18 UNK         0.1400 
    101 CB        -9.0299  -24.3677  -48.9018 C.3       18 UNK        -0.1800 
    102 C         -8.4429  -22.3728  -50.4138 C.2       18 UNK         0.5000 
    103 O         -9.5213  -21.8420  -50.1454 O.2       18 UNK        -0.5000 
    104 N         -7.6713  -21.9938  -51.4425 N.am      19 UNK        -0.5000 
    105 CA        -8.0023  -20.9518  -52.4184 C.3       19 UNK         0.1400 
    106 CB        -7.0815  -21.1240  -53.6377 C.3       19 UNK        -0.1800 
    107 C         -7.8849  -19.5183  -51.8631 C.2       19 UNK         0.5000 
    108 O         -8.3946  -18.5878  -52.4871 O.2       19 UNK        -0.5000 
    109 N         -7.1902  -19.3701  -50.7244 N.am      20 UNK        -0.5000 
    110 CA        -6.8846  -18.1237  -50.0109 C.3       20 UNK         0.1400 
    111 CB        -8.1732  -17.4427  -49.5057 C.3       20 UNK        -0.1800 
    112 C         -5.9659  -17.1570  -50.7934 C.2       20 UNK         0.5000 
    113 O         -5.9159  -15.9687  -50.4737 O.2       20 UNK        -0.5000 
    114 N         -5.2430  -17.6821  -51.7896 N.am      21 UNK        -0.5000 
    115 CA        -4.3557  -16.9366  -52.6720 C.3       21 UNK         0.1400 
    116 CB        -5.1705  -16.2609  -53.7917 C.3       21 UNK        -0.1800 
    117 C         -3.2927  -17.8992  -53.2143 C.2       21 UNK         0.5000 
    118 O         -3.4652  -18.4750  -54.2897 O.2       21 UNK        -0.5000 
    119 N         -2.2352  -18.0946  -52.4225 N.am      22 UNK        -0.5000 
    120 CA        -1.0019  -18.8489  -52.7145 C.3       22 UNK         0.1400 
    121 C         -1.1645  -20.3933  -52.8172 C.2       22 UNK         0.5000 
    122 N         -2.3024  -20.9110  -53.2576 N.am      22 UNK        -0.7600 
    123 O         -0.2418  -21.1287  -52.4817 O.2       22 UNK        -0.5000 
    124 C124       -0.2103  -18.3222  -53.9469 C.3       23 UNK        -0.0398 
    125 S125        0.0637  -16.5168  -54.1134 S.3       23 UNK        -0.2404 
    126 C126        0.2358  -15.8583  -52.4230 C.3       23 UNK        -0.0205 
    127 H127        4.9411  -11.6310  -46.4484 H         1 UNK         0.0600 
    128 H128        4.4571  -11.4371  -48.1356 H         1 UNK         0.0600 
    129 H129        5.5793  -10.3022  -47.4125 H         1 UNK         0.0600 
    130 H130        7.1798  -13.8956  -48.6916 H         1 UNK         0.3000 
    131 H131        5.4448  -15.0869  -49.1429 H         1 UNK         0.0600 
    132 H132        3.4743  -13.8616  -50.3663 H         1 UNK         0.0800 
    133 H133        4.3709  -12.4076  -50.1161 H         1 UNK         0.0800 
    134 H134        5.3994  -15.8221  -53.0621 H         1 UNK         0.0800 
    135 H135        6.0947  -16.1494  -51.4995 H         1 UNK         0.0800 
    136 H136        2.8052  -15.2366  -53.0976 H         1 UNK         0.1150 
    137 H137        0.5148  -17.3703  -50.1674 H         1 UNK         0.1150 
    138 H138        4.7741  -17.2362  -49.8525 H         1 UNK         0.1150 
    139 H139        3.3148  -17.7705  -47.8898 H         1 UNK         0.0800 
    140 H140        1.6058  -18.0285  -48.0933 H         1 UNK         0.0800 
    141 H141        1.5944  -21.2793  -50.2862 H         1 UNK         0.0800 
    142 H142        0.8037  -19.7508  -50.0244 H         1 UNK         0.0800 
    143 H143        1.0565  -21.9294  -47.8953 H         1 UNK         0.0600 
    144 H144       -0.0267  -19.2692  -47.7071 H         1 UNK         0.3000 
    145 H145       -1.8250  -19.8589  -44.6794 H         1 UNK         0.0600 
    146 H146       -0.3495  -17.8989  -44.0828 H         1 UNK         0.0600 
    147 H147        0.5044  -19.4334  -44.0220 H         1 UNK         0.0600 
    148 H148        0.7500  -18.3501  -45.3798 H         1 UNK         0.0600 
    149 H149       -1.5126  -17.5340  -46.3109 H         1 UNK         0.3000 
    150 H150       -4.0787  -18.0356  -48.5608 H         1 UNK         0.0600 
    151 H151       -5.7310  -18.0483  -46.6829 H         1 UNK         0.0600 
    152 H152       -5.6474  -16.4790  -47.4696 H         1 UNK         0.0600 
    153 H153       -4.8723  -16.7228  -45.9117 H         1 UNK         0.0600 
    154 H154       -2.9646  -15.7382  -47.0815 H         1 UNK         0.3000 
    155 H155       -0.3083  -15.2924  -49.3463 H         1 UNK         0.0600 
    156 H156       -2.8660  -13.6067  -49.3607 H         1 UNK         0.0600 
    157 H157       -2.1328  -14.3398  -50.7807 H         1 UNK         0.0600 
    158 H158       -1.2694  -13.0870  -49.9043 H         1 UNK         0.0600 
    159 H159       -1.3421  -13.5284  -47.4023 H         1 UNK         0.3000 
    160 H160        0.8738  -14.4108  -44.9772 H         1 UNK         0.0600 
    161 H161       -1.5764  -12.6585  -45.5513 H         1 UNK         0.0600 
    162 H162        0.0736  -12.3212  -46.0800 H         1 UNK         0.0600 
    163 H163       -0.3132  -12.3450  -44.3703 H         1 UNK         0.0600 
    164 H164       -0.3659  -15.2510  -43.3791 H         1 UNK         0.3000 
    165 H165       -3.6823  -15.1819  -42.5608 H         1 UNK         0.0600 
    166 H166       -3.8573  -17.6011  -42.1343 H         1 UNK         0.0600 
    167 H167       -4.0483  -17.3064  -43.8504 H         1 UNK         0.0600 
    168 H168       -2.5287  -17.9394  -43.2361 H         1 UNK         0.0600 
    169 H169       -1.4704  -16.6865  -41.4627 H         1 UNK         0.3000 
    170 H170        0.3669  -14.0677  -40.1590 H         1 UNK         0.0600 
    171 H171       -1.4315  -13.9380  -38.4219 H         1 UNK         0.0600 
    172 H172       -1.5449  -15.6936  -38.3975 H         1 UNK         0.0600 
    173 H173       -0.0678  -14.8907  -37.8619 H         1 UNK         0.0600 
    174 H174        0.4755  -16.7593  -39.3967 H         1 UNK         0.3000 
    175 H175        2.6372  -17.7907  -40.4364 H         1 UNK         0.0600 
    176 H176        0.1008  -19.0190  -41.6952 H         1 UNK         0.0600 
    177 H177        1.4278  -19.9705  -41.0358 H         1 UNK         0.0600 
    178 H178        0.4797  -18.9443  -39.9811 H         1 UNK         0.0600 
    179 H179        2.2782  -17.3436  -43.2065 H         1 UNK         0.3000 
    180 H180        5.2345  -18.8331  -44.1435 H         1 UNK         0.0600 
    181 H181        4.1718  -20.0138  -46.0252 H         1 UNK         0.0600 
    182 H182        2.6075  -19.9986  -45.2153 H         1 UNK         0.0600 
    183 H183        3.9386  -20.9342  -44.5505 H         1 UNK         0.0600 
    184 H184        2.9478  -17.6072  -45.5135 H         1 UNK         0.3000 
    185 H185        2.7554  -15.4680  -45.8037 H         1 UNK         0.0600 
    186 H186        3.0865  -14.1879  -43.6541 H         1 UNK         0.0600 
    187 H187        4.6227  -13.5782  -44.2589 H         1 UNK         0.0600 
    188 H188        3.1178  -13.1314  -45.0578 H         1 UNK         0.0600 
    189 H189        5.5390  -15.1281  -46.5973 H         1 UNK         0.3000 
    190 H190       -1.9345  -20.4032  -49.0596 H         1 UNK         0.3000 
    191 H191       -2.7842  -22.5537  -50.7506 H         1 UNK         0.0600 
    192 H192       -3.6719  -20.1841  -50.8536 H         1 UNK         0.0600 
    193 H193       -4.9363  -21.3967  -50.7466 H         1 UNK         0.0600 
    194 H194       -4.5043  -20.4520  -49.3252 H         1 UNK         0.0600 
    195 H195       -3.3133  -21.7828  -47.3001 H         1 UNK         0.3000 
    196 H196       -4.9949  -24.0260  -46.7063 H         1 UNK         0.0600 
    197 H197       -4.4717  -23.4184  -44.3419 H         1 UNK         0.0600 
    198 H198       -4.9206  -22.0025  -45.2818 H         1 UNK         0.0600 
    199 H199       -3.2298  -22.2983  -44.8898 H         1 UNK         0.0600 
    200 H200       -1.4441  -23.4705  -46.3421 H         1 UNK         0.3000 
    201 H201       -0.7973  -25.9738  -45.2306 H         1 UNK         0.0600 
    202 H202        0.7143  -24.0078  -45.1771 H         1 UNK         0.0600 
    203 H203        0.9314  -24.0976  -46.9249 H         1 UNK         0.0600 
    204 H204        1.5343  -25.3869  -45.8921 H         1 UNK         0.0600 
    205 H205       -1.0022  -24.9979  -48.6667 H         1 UNK         0.3000 
    206 H206       -0.1614  -27.5293  -49.7570 H         1 UNK         0.0600 
    207 H207        0.0015  -25.3822  -51.0064 H         1 UNK         0.0600 
    208 H208       -1.0045  -26.5213  -51.8854 H         1 UNK         0.0600 
    209 H209       -1.7530  -25.2094  -50.9822 H         1 UNK         0.0600 
    210 H210       -3.0346  -26.6459  -48.1713 H         1 UNK         0.3000 
    211 H211       -5.0661  -27.4179  -47.9003 H         1 UNK         0.0600 
    212 H212       -4.1869  -30.0230  -49.2501 H         1 UNK         0.0600 
    213 H213       -5.5590  -29.8033  -48.1751 H         1 UNK         0.0600 
    214 H214       -3.9277  -29.6287  -47.5507 H         1 UNK         0.0600 
    215 H215       -4.4069  -25.9111  -50.2991 H         1 UNK         0.3000 
    216 H216       -6.2784  -26.7848  -52.3986 H         1 UNK         0.0600 
    217 H217       -4.1424  -25.6732  -53.0272 H         1 UNK         0.0600 
    218 H218       -4.5748  -24.2476  -52.0871 H         1 UNK         0.0600 
    219 H219       -5.5127  -24.6852  -53.5105 H         1 UNK         0.0600 
    220 H220       -5.9998  -24.4073  -49.7940 H         1 UNK         0.3000 
    221 H221       -7.3610  -23.0428  -48.7169 H         1 UNK         0.0600 
    222 H222       -9.6621  -24.8303  -49.6602 H         1 UNK         0.0600 
    223 H223       -8.6232  -25.1612  -48.2748 H         1 UNK         0.0600 
    224 H224       -9.6736  -23.7551  -48.2695 H         1 UNK         0.0600 
    225 H225       -6.8208  -22.5103  -51.6060 H         1 UNK         0.3000 
    226 H226       -9.0353  -21.0960  -52.7419 H         1 UNK         0.0600 
    227 H227       -7.2016  -22.1105  -54.0862 H         1 UNK         0.0600 
    228 H228       -7.3113  -20.3887  -54.4101 H         1 UNK         0.0600 
    229 H229       -6.0305  -21.0019  -53.3719 H         1 UNK         0.0600 
    230 H230       -6.8392  -20.2131  -50.2963 H         1 UNK         0.3000 
    231 H231       -6.3201  -18.4298  -49.1317 H         1 UNK         0.0600 
    232 H232       -7.9420  -16.6175  -48.8312 H         1 UNK         0.0600 
    233 H233       -8.7996  -18.1439  -48.9541 H         1 UNK         0.0600 
    234 H234       -8.7655  -17.0360  -50.3256 H         1 UNK         0.0600 
    235 H235       -5.3307  -18.6680  -51.9862 H         1 UNK         0.3000 
    236 H236       -3.8408  -16.1590  -52.1028 H         1 UNK         0.0600 
    237 H237       -5.8552  -15.5156  -53.3870 H         1 UNK         0.0600 
    238 H238       -4.5146  -15.7503  -54.4977 H         1 UNK         0.0600 
    239 H239       -5.7617  -16.9856  -54.3531 H         1 UNK         0.0600 
    240 H240       -2.2455  -17.6616  -51.5009 H         1 UNK         0.3000 
    241 H241       -0.3754  -18.6926  -51.8398 H         1 UNK         0.0600 
    242 H242       -2.3987  -21.9087  -53.3469 H         1 UNK         0.3800 
    243 H243       -3.0039  -20.2863  -53.6378 H         1 UNK         0.3800 
    244 H244        0.7745  -18.7923  -53.9705 H         1 UNK         0.0800 
    245 H245       -0.7080  -18.6419  -54.8642 H         1 UNK         0.0800 
    246 H246       -0.6377  -16.1116  -51.8273 H         1 UNK         0.0800 
    247 H247        0.2366  -14.7693  -52.4847 H         1 UNK         0.0800 
@<TRIPOS>BOND
     1    1    2 1    
     2    1  127 1    
     3    1  128 1    
     4    1  129 1    
     5    2    3 2    
     6    2    4 am   BACKBONE|DICT|INTERRES
     7    4    5 1    
     8    4  130 1    
     9    5    6 1    
    10    5   65 1    
    11    5  131 1    
    12    6    7 1    
    13    6  132 1    
    14    6  133 1    
    15    7    8 1    
    16    8    9 1    
    17    8  134 1    
    18    8  135 1    
    19    9   10 ar   
    20    9   14 ar   
    21   10   11 ar   
    22   10  136 1    
    23   11   12 ar   
    24   11  126 1    
    25   12   13 ar   
    26   12  137 1    
    27   13   14 ar   
    28   13   15 1    
    29   14  138 1    
    30   15   16 1    
    31   15  139 1    
    32   15  140 1    
    33   16   17 1    
    34   17   18 1    
    35   17  141 1    
    36   17  142 1    
    37   18   19 1    
    38   18   67 1    
    39   18  143 1    
    40   19   20 am   BACKBONE|DICT|INTERRES
    41   19  144 1    
    42   20   21 2    
    43   20   22 1    
    44   22   23 1    
    45   22   24 1    
    46   22  145 1    
    47   23  146 1    
    48   23  147 1    
    49   23  148 1    
    50   24   25 am   BACKBONE|DICT|INTERRES
    51   24  149 1    
    52   25   26 2    
    53   25   27 1    
    54   27   28 1    
    55   27   29 1    
    56   27  150 1    
    57   28  151 1    
    58   28  152 1    
    59   28  153 1    
    60   29   30 am   BACKBONE|DICT|INTERRES
    61   29  154 1    
    62   30   31 2    
    63   30   32 1    
    64   32   33 1    
    65   32   34 1    
    66   32  155 1    
    67   33  156 1    
    68   33  157 1    
    69   33  158 1    
    70   34   35 am   BACKBONE|DICT|INTERRES
    71   34  159 1    
    72   35   36 2    
    73   35   37 1    
    74   37   38 1    
    75   37   39 1    
    76   37  160 1    
    77   38  161 1    
    78   38  162 1    
    79   38  163 1    
    80   39   40 am   BACKBONE|DICT|INTERRES
    81   39  164 1    
    82   40   41 2    
    83   40   42 1    
    84   42   43 1    
    85   42   44 1    
    86   42  165 1    
    87   43  166 1    
    88   43  167 1    
    89   43  168 1    
    90   44   45 am   BACKBONE|DICT|INTERRES
    91   44  169 1    
    92   45   46 2    
    93   45   47 1    
    94   47   48 1    
    95   47   49 1    
    96   47  170 1    
    97   48  171 1    
    98   48  172 1    
    99   48  173 1    
   100   49   50 am   BACKBONE|DICT|INTERRES
   101   49  174 1    
   102   50   51 2    
   103   50   52 1    
   104   52   53 1    
   105   52   54 1    
   106   52  175 1    
   107   53  176 1    
   108   53  177 1    
   109   53  178 1    
   110   54   55 am   BACKBONE|DICT|INTERRES
   111   54  179 1    
   112   55   56 2    
   113   55   57 1    
   114   57   58 1    
   115   57   59 1    
   116   57  180 1    
   117   58  181 1    
   118   58  182 1    
   119   58  183 1    
   120   59   60 am   BACKBONE|DICT|INTERRES
   121   59  184 1    
   122   60   61 2    
   123   60   62 1    
   124   62   63 1    
   125   62   64 1    
   126   62  185 1    
   127   63  186 1    
   128   63  187 1    
   129   63  188 1    
   130   64   65 am   BACKBONE|DICT|INTERRES
   131   64  189 1    
   132   65   66 2    
   133   67   68 2    
   134   67   69 am   BACKBONE|DICT|INTERRES
   135   69   70 1    
   136   69  190 1    
   137   70   71 1    
   138   70   72 1    
   139   70  191 1    
   140   71  192 1    
   141   71  193 1    
   142   71  194 1    
   143   72   73 2    
   144   72   74 am   BACKBONE|DICT|INTERRES
   145   74   75 1    
   146   74  195 1    
   147   75   76 1    
   148   75   77 1    
   149   75  196 1    
   150   76  197 1    
   151   76  198 1    
   152   76  199 1    
   153   77   78 2    
   154   77   79 am   BACKBONE|DICT|INTERRES
   155   79   80 1    
   156   79  200 1    
   157   80   81 1    
   158   80   82 1    
   159   80  201 1    
   160   81  202 1    
   161   81  203 1    
   162   81  204 1    
   163   82   83 2    
   164   82   84 am   BACKBONE|DICT|INTERRES
   165   84   85 1    
   166   84  205 1    
   167   85   86 1    
   168   85   87 1    
   169   85  206 1    
   170   86  207 1    
   171   86  208 1    
   172   86  209 1    
   173   87   88 2    
   174   87   89 am   BACKBONE|DICT|INTERRES
   175   89   90 1    
   176   89  210 1    
   177   90   91 1    
   178   90   92 1    
   179   90  211 1    
   180   91  212 1    
   181   91  213 1    
   182   91  214 1    
   183   92   93 2    
   184   92   94 am   BACKBONE|DICT|INTERRES
   185   94   95 1    
   186   94  215 1    
   187   95   96 1    
   188   95   97 1    
   189   95  216 1    
   190   96  217 1    
   191   96  218 1    
   192   96  219 1    
   193   97   98 2    
   194   97   99 am   BACKBONE|DICT|INTERRES
   195   99  100 1    
   196   99  220 1    
   197  100  101 1    
   198  100  102 1    
   199  100  221 1    
   200  101  222 1    
   201  101  223 1    
   202  101  224 1    
   203  102  103 2    
   204  102  104 am   BACKBONE|DICT|INTERRES
   205  104  105 1    
   206  104  225 1    
   207  105  106 1    
   208  105  107 1    
   209  105  226 1    
   210  106  227 1    
   211  106  228 1    
   212  106  229 1    
   213  107  108 2    
   214  107  109 am   BACKBONE|DICT|INTERRES
   215  109  110 1    
   216  109  230 1    
   217  110  111 1    
   218  110  112 1    
   219  110  231 1    
   220  111  232 1    
   221  111  233 1    
   222  111  234 1    
   223  112  113 2    
   224  112  114 am   BACKBONE|DICT|INTERRES
   225  114  115 1    
   226  114  235 1    
   227  115  116 1    
   228  115  117 1    
   229  115  236 1    
   230  116  237 1    
   231  116  238 1    
   232  116  239 1    
   233  117  118 2    
   234  117  119 am   BACKBONE|DICT|INTERRES
   235  119  120 1    
   236  119  240 1    
   237  120  121 1    
   238  120  124 1    
   239  120  241 1    
   240  121  122 am   BACKBONE|DICT|INTERRES
   241  121  123 2    
   242  122  242 1    
   243  122  243 1    
   244  124  125 1    
   245  124  244 1    
   246  124  245 1    
   247  125  126 1    
   248  126  246 1    
   249  126  247 1    
@<TRIPOS>SUBSTRUCTURE
     1 UNK         1 GROUP             0       ****    0 ROOT    
