@<TRIPOS>MOLECULE
3R540
247   249    1
SMALL
USER_CHARGES


@<TRIPOS>ATOM
      1 CA          1.2213  -10.6667  -49.2142 C.3       0 UNK        -0.1800 
      2 C           0.6560  -11.8270  -48.4094 C.2       0 UNK         0.5000 
      3 O           0.7801  -11.8410  -47.1844 O.2       0 UNK        -0.5000 
      4 N           0.0195  -12.7936  -49.0850 N.am      1 UNK        -0.5000 
      5 CA         -0.5545  -14.0053  -48.4835 C.3       1 UNK         0.1400 
      6 C6         -1.0847  -14.9955  -49.5488 C.3       23 UNK        -0.0398 
      7 S7          0.2474  -15.6504  -50.6134 S.3       23 UNK        -0.2404 
      8 C8          0.0984  -17.4400  -50.3146 C.3       23 UNK        -0.0205 
      9 C9          1.3350  -18.1968  -50.7659 C.ar      23 UNK        -0.0193 
     10 C10         1.3838  -18.7751  -52.0362 C.ar      23 UNK        -0.1150 
     11 C11         2.4993  -19.5169  -52.4352 C.ar      23 UNK        -0.0193 
     12 C12         3.5812  -19.6558  -51.5606 C.ar      23 UNK        -0.1150 
     13 C13         3.5514  -19.0680  -50.2927 C.ar      23 UNK        -0.0193 
     14 C14         2.4226  -18.3426  -49.8995 C.ar      23 UNK        -0.1150 
     15 C15         4.7494  -19.1971  -49.3616 C.3       23 UNK        -0.0205 
     16 S16         4.9419  -20.8810  -48.6950 S.3       23 UNK        -0.2404 
     17 C17         3.5382  -20.9746  -47.5340 C.3       23 UNK        -0.0398 
     18 CA          3.0522  -22.4199  -47.2628 C.3       11 UNK         0.1400 
     19 N           2.1992  -22.4760  -46.0715 N.am      11 UNK        -0.5000 
     20 C           1.9344  -23.5828  -45.3652 C.2       10 UNK         0.5000 
     21 O           2.4115  -24.6853  -45.6291 O.2       10 UNK        -0.5000 
     22 CA          0.9934  -23.4425  -44.1515 C.3       10 UNK         0.1400 
     23 CB          1.8028  -23.1740  -42.8739 C.3       10 UNK        -0.1800 
     24 N          -0.0050  -22.3856  -44.3144 N.am      10 UNK        -0.5000 
     25 C          -1.0802  -22.4710  -45.1103 C.2       9 UNK         0.5000 
     26 O          -1.3903  -23.4800  -45.7406 O.2       9 UNK        -0.5000 
     27 CA         -1.9328  -21.1972  -45.2617 C.3       9 UNK         0.1400 
     28 CB         -2.9617  -21.0857  -44.1268 C.3       9 UNK        -0.1800 
     29 N          -1.1284  -19.9765  -45.3063 N.am      9 UNK        -0.5000 
     30 C          -0.1920  -19.7113  -46.2261 C.2       8 UNK         0.5000 
     31 O           0.0649  -20.4449  -47.1797 O.2       8 UNK        -0.5000 
     32 CA          0.6304  -18.4335  -46.0142 C.3       8 UNK         0.1400 
     33 CB         -0.1325  -17.1970  -46.5050 C.3       8 UNK        -0.1800 
     34 N           1.0213  -18.2517  -44.6170 N.am      8 UNK        -0.5000 
     35 C           1.9253  -19.0050  -43.9773 C.2       7 UNK         0.5000 
     36 O           2.5620  -19.9073  -44.5165 O.2       7 UNK        -0.5000 
     37 CA          2.1140  -18.7379  -42.4738 C.3       7 UNK         0.1400 
     38 CB          3.1400  -17.6198  -42.2398 C.3       7 UNK        -0.1800 
     39 N           0.8534  -18.4000  -41.8119 N.am      7 UNK        -0.5000 
     40 C          -0.1333  -19.2840  -41.6014 C.2       6 UNK         0.5000 
     41 O          -0.0576  -20.4737  -41.9098 O.2       6 UNK        -0.5000 
     42 CA         -1.4417  -18.7440  -40.9912 C.3       6 UNK         0.1400 
     43 CB         -1.3785  -18.7888  -39.4576 C.3       6 UNK        -0.1800 
     44 N          -1.7785  -17.3845  -41.4205 N.am      6 UNK        -0.5000 
     45 C          -1.9579  -16.9985  -42.6910 C.2       5 UNK         0.5000 
     46 O          -1.8523  -17.7637  -43.6490 O.2       5 UNK        -0.5000 
     47 CA         -2.2684  -15.5106  -42.9492 C.3       5 UNK         0.1400 
     48 CB         -2.7611  -14.7473  -41.7005 C.3       5 UNK        -0.1800 
     49 N          -1.1364  -14.8026  -43.5520 N.am      5 UNK        -0.5000 
     50 C           0.1143  -14.7049  -43.0749 C.2       4 UNK         0.5000 
     51 O           0.5273  -15.3180  -42.0891 O.2       4 UNK        -0.5000 
     52 CA          1.0606  -13.7324  -43.8062 C.3       4 UNK         0.1400 
     53 CB          1.8046  -14.4371  -44.9480 C.3       4 UNK        -0.1800 
     54 N           0.3749  -12.5523  -44.3375 N.am      4 UNK        -0.5000 
     55 C          -0.1884  -11.5913  -43.5903 C.2       3 UNK         0.5000 
     56 O          -0.1459  -11.5652  -42.3598 O.2       3 UNK        -0.5000 
     57 CA         -0.9379  -10.4796  -44.3444 C.3       3 UNK         0.1400 
     58 CB          0.0313   -9.3809  -44.8083 C.3       3 UNK        -0.1800 
     59 N          -1.6663  -11.0093  -45.4973 N.am      3 UNK        -0.5000 
     60 C          -2.8789  -11.5774  -45.4273 C.2       2 UNK         0.5000 
     61 O          -3.5362  -11.6578  -44.3893 O.2       2 UNK        -0.5000 
     62 CA         -3.4578  -12.1624  -46.7321 C.3       2 UNK         0.1400 
     63 CB         -4.3330  -11.1218  -47.4467 C.3       2 UNK        -0.1800 
     64 N          -2.4335  -12.6437  -47.6610 N.am      2 UNK        -0.5000 
     65 C          -1.6374  -13.6959  -47.4256 C.2       1 UNK         0.5000 
     66 O          -1.6899  -14.3672  -46.3956 O.2       1 UNK        -0.5000 
     67 C           2.3591  -23.0304  -48.5008 C.2       11 UNK         0.5000 
     68 O           3.0222  -23.7098  -49.2851 O.2       11 UNK        -0.5000 
     69 N           1.0498  -22.7733  -48.6423 N.am      12 UNK        -0.5000 
     70 CA          0.2002  -23.1453  -49.7765 C.3       12 UNK         0.1400 
     71 CB         -1.2582  -22.7506  -49.4901 C.3       12 UNK        -0.1800 
     72 C           0.3180  -24.6002  -50.2979 C.2       12 UNK         0.5000 
     73 O           0.5707  -24.7675  -51.4876 O.2       12 UNK        -0.5000 
     74 N           0.1687  -25.6665  -49.4973 N.am      13 UNK        -0.5000 
     75 CA         -0.1860  -25.7465  -48.0789 C.3       13 UNK         0.1400 
     76 CB          0.7386  -26.7845  -47.4217 C.3       13 UNK        -0.1800 
     77 C          -1.6655  -26.1311  -47.8756 C.2       13 UNK         0.5000 
     78 O          -2.0550  -26.4845  -46.7624 O.2       13 UNK        -0.5000 
     79 N          -2.4775  -26.0654  -48.9403 N.am      14 UNK        -0.5000 
     80 CA         -3.9033  -26.4099  -48.9590 C.3       14 UNK         0.1400 
     81 CB         -4.3019  -26.7692  -50.4022 C.3       14 UNK        -0.1800 
     82 C          -4.8155  -25.3242  -48.3378 C.2       14 UNK         0.5000 
     83 O          -5.8969  -25.0573  -48.8648 O.2       14 UNK        -0.5000 
     84 N          -4.3692  -24.7314  -47.2222 N.am      15 UNK        -0.5000 
     85 CA         -5.0267  -23.6887  -46.4342 C.3       15 UNK         0.1400 
     86 CB         -6.2740  -24.2578  -45.7209 C.3       15 UNK        -0.1800 
     87 C          -5.2881  -22.4006  -47.2469 C.2       15 UNK         0.5000 
     88 O          -4.4112  -21.9738  -48.0003 O.2       15 UNK        -0.5000 
     89 N          -6.4585  -21.7788  -47.0405 N.am      16 UNK        -0.5000 
     90 CA         -7.0116  -20.5720  -47.6767 C.3       16 UNK         0.1400 
     91 CB         -7.1651  -20.7661  -49.1961 C.3       16 UNK        -0.1800 
     92 C          -6.2637  -19.2546  -47.3912 C.2       16 UNK         0.5000 
     93 O          -6.9169  -18.2166  -47.2828 O.2       16 UNK        -0.5000 
     94 N          -4.9283  -19.3143  -47.2980 N.am      17 UNK        -0.5000 
     95 CA         -3.9900  -18.1912  -47.2093 C.3       17 UNK         0.1400 
     96 CB         -4.1719  -17.4047  -45.8961 C.3       17 UNK        -0.1800 
     97 C          -4.0637  -17.2946  -48.4617 C.2       17 UNK         0.5000 
     98 O          -4.1325  -16.0693  -48.3538 O.2       17 UNK        -0.5000 
     99 N          -4.0676  -17.9328  -49.6371 N.am      18 UNK        -0.5000 
    100 CA        -4.1960  -17.2899  -50.9374 C.3       18 UNK         0.1400 
    101 CB        -5.6867  -17.1254  -51.2815 C.3       18 UNK        -0.1800 
    102 C         -3.4888  -18.1436  -51.9938 C.2       18 UNK         0.5000 
    103 O         -3.3488  -19.3574  -51.8173 O.2       18 UNK        -0.5000 
    104 N         -3.0958  -17.4993  -53.0996 N.am      19 UNK        -0.5000 
    105 CA        -2.4205  -18.1223  -54.2417 C.3       19 UNK         0.1400 
    106 CB        -1.9674  -17.0282  -55.2185 C.3       19 UNK        -0.1800 
    107 C         -3.2656  -19.1864  -54.9693 C.2       19 UNK         0.5000 
    108 O         -2.6959  -20.0613  -55.6199 O.2       19 UNK        -0.5000 
    109 N         -4.5953  -19.1303  -54.8096 N.am      20 UNK        -0.5000 
    110 CA        -5.5505  -20.1178  -55.3163 C.3       20 UNK         0.1400 
    111 CB        -6.9770  -19.6141  -55.0482 C.3       20 UNK        -0.1800 
    112 C         -5.3571  -21.5283  -54.7217 C.2       20 UNK         0.5000 
    113 O         -5.6251  -22.5119  -55.4123 O.2       20 UNK        -0.5000 
    114 N         -4.8833  -21.6061  -53.4690 N.am      21 UNK        -0.5000 
    115 CA        -4.5334  -22.8642  -52.8057 C.3       21 UNK         0.1400 
    116 CB        -4.6683  -22.6903  -51.2874 C.3       21 UNK        -0.1800 
    117 C         -3.1197  -23.3479  -53.1761 C.2       21 UNK         0.5000 
    118 O         -2.8648  -24.5516  -53.1393 O.2       21 UNK        -0.5000 
    119 N         -2.2325  -22.4071  -53.5202 N.am      22 UNK        -0.5000 
    120 CA        -0.8704  -22.6745  -53.9986 C.3       22 UNK         0.1400 
    121 C         -0.8369  -23.1573  -55.4762 C.2       22 UNK         0.5000 
    122 N         -1.5824  -22.5299  -56.3770 N.am      22 UNK        -0.7600 
    123 O         -0.1475  -24.1181  -55.8069 O.2       22 UNK        -0.5000 
    124 C124        0.0386  -21.4449  -53.7581 C.3       23 UNK        -0.0398 
    125 S125        1.8191  -21.8376  -53.7863 S.3       23 UNK        -0.2404 
    126 C126        2.5408  -20.1663  -53.8100 C.3       23 UNK        -0.0205 
    127 H127        2.3001  -10.6046  -49.0725 H         1 UNK         0.0600 
    128 H128        0.7780   -9.7287  -48.8802 H         1 UNK         0.0600 
    129 H129        1.0229  -10.7778  -50.2804 H         1 UNK         0.0600 
    130 H130       -0.0378  -12.7371  -50.0920 H         1 UNK         0.3000 
    131 H131        0.2631  -14.4936  -47.9538 H         1 UNK         0.0600 
    132 H132       -1.5849  -15.8338  -49.0654 H         1 UNK         0.0800 
    133 H133       -1.8367  -14.5185  -50.1793 H         1 UNK         0.0800 
    134 H134       -0.0560  -17.6334  -49.2566 H         1 UNK         0.0800 
    135 H135       -0.7859  -17.8207  -50.8259 H         1 UNK         0.0800 
    136 H136        0.5477  -18.6575  -52.7094 H         1 UNK         0.1150 
    137 H137        4.4489  -20.2245  -51.8649 H         1 UNK         0.1150 
    138 H138        2.3897  -17.8867  -48.9202 H         1 UNK         0.1150 
    139 H139        5.6539  -18.9337  -49.9117 H         1 UNK         0.0800 
    140 H140        4.6797  -18.4877  -48.5354 H         1 UNK         0.0800 
    141 H141        2.7145  -20.3546  -47.8883 H         1 UNK         0.0800 
    142 H142        3.8833  -20.5199  -46.6060 H         1 UNK         0.0800 
    143 H143        3.9341  -23.0294  -47.0526 H         1 UNK         0.0600 
    144 H144        1.8147  -21.5966  -45.7514 H         1 UNK         0.3000 
    145 H145        0.4702  -24.3933  -44.0284 H         1 UNK         0.0600 
    146 H146        1.1557  -23.1426  -41.9970 H         1 UNK         0.0600 
    147 H147        2.5412  -23.9589  -42.7058 H         1 UNK         0.0600 
    148 H148        2.3373  -22.2250  -42.9283 H         1 UNK         0.0600 
    149 H149        0.1357  -21.5395  -43.7747 H         1 UNK         0.3000 
    150 H150       -2.4692  -21.2733  -46.2090 H         1 UNK         0.0600 
    151 H151       -3.5585  -21.9926  -44.0368 H         1 UNK         0.0600 
    152 H152       -3.6502  -20.2591  -44.2980 H         1 UNK         0.0600 
    153 H153       -2.4774  -20.9243  -43.1645 H         1 UNK         0.0600 
    154 H154       -1.3092  -19.2795  -44.5870 H         1 UNK         0.3000 
    155 H155        1.5355  -18.5323  -46.6169 H         1 UNK         0.0600 
    156 H156        0.5550  -16.5061  -46.9869 H         1 UNK         0.0600 
    157 H157       -0.6286  -16.6692  -45.6927 H         1 UNK         0.0600 
    158 H158       -0.9056  -17.4439  -47.2308 H         1 UNK         0.0600 
    159 H159        0.4769  -17.5943  -44.0772 H         1 UNK         0.3000 
    160 H160        2.5042  -19.6522  -42.0214 H         1 UNK         0.0600 
    161 H161        2.8094  -16.6705  -42.6601 H         1 UNK         0.0600 
    162 H162        4.0971  -17.8668  -42.7008 H         1 UNK         0.0600 
    163 H163        3.3211  -17.4686  -41.1756 H         1 UNK         0.0600 
    164 H164        0.7010  -17.4245  -41.5802 H         1 UNK         0.3000 
    165 H165       -2.2513  -19.3994  -41.3169 H         1 UNK         0.0600 
    166 H166       -2.3313  -18.4988  -39.0144 H         1 UNK         0.0600 
    167 H167       -1.1508  -19.7958  -39.1054 H         1 UNK         0.0600 
    168 H168       -0.6086  -18.1221  -39.0672 H         1 UNK         0.0600 
    169 H169       -1.8456  -16.6853  -40.6956 H         1 UNK         0.3000 
    170 H170       -3.0729  -15.4886  -43.6849 H         1 UNK         0.0600 
    171 H171       -3.6254  -15.2390  -41.2521 H         1 UNK         0.0600 
    172 H172       -1.9887  -14.6604  -40.9355 H         1 UNK         0.0600 
    173 H173       -3.0705  -13.7361  -41.9663 H         1 UNK         0.0600 
    174 H174       -1.3372  -14.3522  -44.4400 H         1 UNK         0.3000 
    175 H175        1.8014  -13.3937  -43.0790 H         1 UNK         0.0600 
    176 H176        1.1277  -14.6827  -45.7627 H         1 UNK         0.0600 
    177 H177        2.5916  -13.8013  -45.3539 H         1 UNK         0.0600 
    178 H178        2.2723  -15.3630  -44.6125 H         1 UNK         0.0600 
    179 H179        0.3474  -12.4559  -45.3476 H         1 UNK         0.3000 
    180 H180       -1.6488  -10.0246  -43.6511 H         1 UNK         0.0600 
    181 H181       -0.5006   -8.5734  -45.3115 H         1 UNK         0.0600 
    182 H182        0.7848   -9.7654  -45.4961 H         1 UNK         0.0600 
    183 H183        0.5575   -8.9438  -43.9589 H         1 UNK         0.0600 
    184 H184       -1.1648  -11.0340  -46.3748 H         1 UNK         0.3000 
    185 H185       -4.0893  -13.0113  -46.4601 H         1 UNK         0.0600 
    186 H186       -3.7506  -10.2567  -47.7662 H         1 UNK         0.0600 
    187 H187       -4.8135  -11.5486  -48.3273 H         1 UNK         0.0600 
    188 H188       -5.1249  -10.7601  -46.7894 H         1 UNK         0.0600 
    189 H189       -2.3130  -12.1252  -48.5187 H         1 UNK         0.3000 
    190 H190        0.6218  -22.1501  -47.9637 H         1 UNK         0.3000 
    191 H191        0.5341  -22.5111  -50.6005 H         1 UNK         0.0600 
    192 H192       -1.9165  -23.0743  -50.2957 H         1 UNK         0.0600 
    193 H193       -1.3622  -21.6685  -49.4066 H         1 UNK         0.0600 
    194 H194       -1.6308  -23.1858  -48.5633 H         1 UNK         0.0600 
    195 H195        0.2842  -26.5689  -49.9344 H         1 UNK         0.3000 
    196 H196       -0.0318  -24.7956  -47.5761 H         1 UNK         0.0600 
    197 H197        0.5693  -27.7865  -47.8176 H         1 UNK         0.0600 
    198 H198        1.7873  -26.5336  -47.5829 H         1 UNK         0.0600 
    199 H199        0.5807  -26.8241  -46.3431 H         1 UNK         0.0600 
    200 H200       -2.0824  -25.7623  -49.8182 H         1 UNK         0.3000 
    201 H201       -4.0429  -27.3077  -48.3535 H         1 UNK         0.0600 
    202 H202       -4.1999  -25.9172  -51.0740 H         1 UNK         0.0600 
    203 H203       -5.3377  -27.1069  -50.4537 H         1 UNK         0.0600 
    204 H204       -3.6827  -27.5771  -50.7923 H         1 UNK         0.0600 
    205 H205       -3.4654  -25.0336  -46.8740 H         1 UNK         0.3000 
    206 H206       -4.3073  -23.4156  -45.6640 H         1 UNK         0.0600 
    207 H207       -6.0280  -25.1703  -45.1775 H         1 UNK         0.0600 
    208 H208       -6.6715  -23.5541  -44.9887 H         1 UNK         0.0600 
    209 H209       -7.0722  -24.4992  -46.4240 H         1 UNK         0.0600 
    210 H210       -7.0783  -22.2074  -46.3674 H         1 UNK         0.3000 
    211 H211       -8.0132  -20.4594  -47.2586 H         1 UNK         0.0600 
    212 H212       -7.7669  -19.9667  -49.6302 H         1 UNK         0.0600 
    213 H213       -7.6554  -21.7106  -49.4322 H         1 UNK         0.0600 
    214 H214       -6.1987  -20.7474  -49.6991 H         1 UNK         0.0600 
    215 H215       -4.5165  -20.2295  -47.4674 H         1 UNK         0.3000 
    216 H216       -2.9926  -18.6304  -47.1971 H         1 UNK         0.0600 
    217 H217       -3.3699  -16.6758  -45.7756 H         1 UNK         0.0600 
    218 H218       -5.1142  -16.8574  -45.8719 H         1 UNK         0.0600 
    219 H219       -4.1472  -18.0650  -45.0309 H         1 UNK         0.0600 
    220 H220       -3.9643  -18.9391  -49.6726 H         1 UNK         0.3000 
    221 H221       -3.7144  -16.3101  -50.9125 H         1 UNK         0.0600 
    222 H222       -6.1959  -16.5077  -50.5414 H         1 UNK         0.0600 
    223 H223       -6.1984  -18.0883  -51.3186 H         1 UNK         0.0600 
    224 H224       -5.8188  -16.6429  -52.2506 H         1 UNK         0.0600 
    225 H225       -3.2633  -16.5059  -53.1731 H         1 UNK         0.3000 
    226 H226       -1.5311  -18.6272  -53.8620 H         1 UNK         0.0600 
    227 H227       -2.8141  -16.4654  -55.6134 H         1 UNK         0.0600 
    228 H228       -1.2900  -16.3240  -54.7350 H         1 UNK         0.0600 
    229 H229       -1.4339  -17.4582  -56.0675 H         1 UNK         0.0600 
    230 H230       -4.9770  -18.3705  -54.2669 H         1 UNK         0.3000 
    231 H231       -5.4096  -20.1940  -56.3965 H         1 UNK         0.0600 
    232 H232       -7.1662  -19.4900  -53.9811 H         1 UNK         0.0600 
    233 H233       -7.7179  -20.3158  -55.4337 H         1 UNK         0.0600 
    234 H234       -7.1555  -18.6554  -55.5355 H         1 UNK         0.0600 
    235 H235       -4.6677  -20.7539  -52.9668 H         1 UNK         0.3000 
    236 H236       -5.2336  -23.6442  -53.1126 H         1 UNK         0.0600 
    237 H237       -4.2985  -23.5641  -50.7524 H         1 UNK         0.0600 
    238 H238       -4.1115  -21.8272  -50.9212 H         1 UNK         0.0600 
    239 H239       -5.7130  -22.5684  -51.0065 H         1 UNK         0.0600 
    240 H240       -2.5430  -21.4482  -53.5526 H         1 UNK         0.3000 
    241 H241       -0.4771  -23.4921  -53.3959 H         1 UNK         0.0600 
    242 H242       -1.5749  -22.8430  -57.3342 H         1 UNK         0.3800 
    243 H243       -2.1037  -21.6921  -56.1249 H         1 UNK         0.3800 
    244 H244       -0.1780  -21.0234  -52.7757 H         1 UNK         0.0800 
    245 H245       -0.1736  -20.6589  -54.4845 H         1 UNK         0.0800 
    246 H246        2.0233  -19.5447  -54.5423 H         1 UNK         0.0800 
    247 H247        3.5742  -20.2376  -54.1524 H         1 UNK         0.0800 
@<TRIPOS>BOND
     1    1    2 1    
     2    1  127 1    
     3    1  128 1    
     4    1  129 1    
     5    2    3 2    
     6    2    4 am   BACKBONE|DICT|INTERRES
     7    4    5 1    
     8    4  130 1    
     9    5    6 1    
    10    5   65 1    
    11    5  131 1    
    12    6    7 1    
    13    6  132 1    
    14    6  133 1    
    15    7    8 1    
    16    8    9 1    
    17    8  134 1    
    18    8  135 1    
    19    9   10 ar   
    20    9   14 ar   
    21   10   11 ar   
    22   10  136 1    
    23   11   12 ar   
    24   11  126 1    
    25   12   13 ar   
    26   12  137 1    
    27   13   14 ar   
    28   13   15 1    
    29   14  138 1    
    30   15   16 1    
    31   15  139 1    
    32   15  140 1    
    33   16   17 1    
    34   17   18 1    
    35   17  141 1    
    36   17  142 1    
    37   18   19 1    
    38   18   67 1    
    39   18  143 1    
    40   19   20 am   BACKBONE|DICT|INTERRES
    41   19  144 1    
    42   20   21 2    
    43   20   22 1    
    44   22   23 1    
    45   22   24 1    
    46   22  145 1    
    47   23  146 1    
    48   23  147 1    
    49   23  148 1    
    50   24   25 am   BACKBONE|DICT|INTERRES
    51   24  149 1    
    52   25   26 2    
    53   25   27 1    
    54   27   28 1    
    55   27   29 1    
    56   27  150 1    
    57   28  151 1    
    58   28  152 1    
    59   28  153 1    
    60   29   30 am   BACKBONE|DICT|INTERRES
    61   29  154 1    
    62   30   31 2    
    63   30   32 1    
    64   32   33 1    
    65   32   34 1    
    66   32  155 1    
    67   33  156 1    
    68   33  157 1    
    69   33  158 1    
    70   34   35 am   BACKBONE|DICT|INTERRES
    71   34  159 1    
    72   35   36 2    
    73   35   37 1    
    74   37   38 1    
    75   37   39 1    
    76   37  160 1    
    77   38  161 1    
    78   38  162 1    
    79   38  163 1    
    80   39   40 am   BACKBONE|DICT|INTERRES
    81   39  164 1    
    82   40   41 2    
    83   40   42 1    
    84   42   43 1    
    85   42   44 1    
    86   42  165 1    
    87   43  166 1    
    88   43  167 1    
    89   43  168 1    
    90   44   45 am   BACKBONE|DICT|INTERRES
    91   44  169 1    
    92   45   46 2    
    93   45   47 1    
    94   47   48 1    
    95   47   49 1    
    96   47  170 1    
    97   48  171 1    
    98   48  172 1    
    99   48  173 1    
   100   49   50 am   BACKBONE|DICT|INTERRES
   101   49  174 1    
   102   50   51 2    
   103   50   52 1    
   104   52   53 1    
   105   52   54 1    
   106   52  175 1    
   107   53  176 1    
   108   53  177 1    
   109   53  178 1    
   110   54   55 am   BACKBONE|DICT|INTERRES
   111   54  179 1    
   112   55   56 2    
   113   55   57 1    
   114   57   58 1    
   115   57   59 1    
   116   57  180 1    
   117   58  181 1    
   118   58  182 1    
   119   58  183 1    
   120   59   60 am   BACKBONE|DICT|INTERRES
   121   59  184 1    
   122   60   61 2    
   123   60   62 1    
   124   62   63 1    
   125   62   64 1    
   126   62  185 1    
   127   63  186 1    
   128   63  187 1    
   129   63  188 1    
   130   64   65 am   BACKBONE|DICT|INTERRES
   131   64  189 1    
   132   65   66 2    
   133   67   68 2    
   134   67   69 am   BACKBONE|DICT|INTERRES
   135   69   70 1    
   136   69  190 1    
   137   70   71 1    
   138   70   72 1    
   139   70  191 1    
   140   71  192 1    
   141   71  193 1    
   142   71  194 1    
   143   72   73 2    
   144   72   74 am   BACKBONE|DICT|INTERRES
   145   74   75 1    
   146   74  195 1    
   147   75   76 1    
   148   75   77 1    
   149   75  196 1    
   150   76  197 1    
   151   76  198 1    
   152   76  199 1    
   153   77   78 2    
   154   77   79 am   BACKBONE|DICT|INTERRES
   155   79   80 1    
   156   79  200 1    
   157   80   81 1    
   158   80   82 1    
   159   80  201 1    
   160   81  202 1    
   161   81  203 1    
   162   81  204 1    
   163   82   83 2    
   164   82   84 am   BACKBONE|DICT|INTERRES
   165   84   85 1    
   166   84  205 1    
   167   85   86 1    
   168   85   87 1    
   169   85  206 1    
   170   86  207 1    
   171   86  208 1    
   172   86  209 1    
   173   87   88 2    
   174   87   89 am   BACKBONE|DICT|INTERRES
   175   89   90 1    
   176   89  210 1    
   177   90   91 1    
   178   90   92 1    
   179   90  211 1    
   180   91  212 1    
   181   91  213 1    
   182   91  214 1    
   183   92   93 2    
   184   92   94 am   BACKBONE|DICT|INTERRES
   185   94   95 1    
   186   94  215 1    
   187   95   96 1    
   188   95   97 1    
   189   95  216 1    
   190   96  217 1    
   191   96  218 1    
   192   96  219 1    
   193   97   98 2    
   194   97   99 am   BACKBONE|DICT|INTERRES
   195   99  100 1    
   196   99  220 1    
   197  100  101 1    
   198  100  102 1    
   199  100  221 1    
   200  101  222 1    
   201  101  223 1    
   202  101  224 1    
   203  102  103 2    
   204  102  104 am   BACKBONE|DICT|INTERRES
   205  104  105 1    
   206  104  225 1    
   207  105  106 1    
   208  105  107 1    
   209  105  226 1    
   210  106  227 1    
   211  106  228 1    
   212  106  229 1    
   213  107  108 2    
   214  107  109 am   BACKBONE|DICT|INTERRES
   215  109  110 1    
   216  109  230 1    
   217  110  111 1    
   218  110  112 1    
   219  110  231 1    
   220  111  232 1    
   221  111  233 1    
   222  111  234 1    
   223  112  113 2    
   224  112  114 am   BACKBONE|DICT|INTERRES
   225  114  115 1    
   226  114  235 1    
   227  115  116 1    
   228  115  117 1    
   229  115  236 1    
   230  116  237 1    
   231  116  238 1    
   232  116  239 1    
   233  117  118 2    
   234  117  119 am   BACKBONE|DICT|INTERRES
   235  119  120 1    
   236  119  240 1    
   237  120  121 1    
   238  120  124 1    
   239  120  241 1    
   240  121  122 am   BACKBONE|DICT|INTERRES
   241  121  123 2    
   242  122  242 1    
   243  122  243 1    
   244  124  125 1    
   245  124  244 1    
   246  124  245 1    
   247  125  126 1    
   248  126  246 1    
   249  126  247 1    
@<TRIPOS>SUBSTRUCTURE
     1 UNK         1 GROUP             0       ****    0 ROOT    
