@<TRIPOS>MOLECULE
3R540
247   249    1
SMALL
USER_CHARGES


@<TRIPOS>ATOM
      1 CA          1.4096   -9.1851  -45.1888 C.3       0 UNK        -0.1800 
      2 C           1.1595  -10.6849  -45.1861 C.2       0 UNK         0.5000 
      3 O           2.0897  -11.4587  -44.9582 O.2       0 UNK        -0.5000 
      4 N          -0.0895  -11.1031  -45.4291 N.am      1 UNK        -0.5000 
      5 CA         -0.5206  -12.5060  -45.5331 C.3       1 UNK         0.1400 
      6 C6         -1.9992  -12.6293  -45.9704 C.3       23 UNK        -0.0398 
      7 S7         -2.3013  -11.8558  -47.5951 S.3       23 UNK        -0.2404 
      8 C8         -4.0392  -12.3064  -47.8935 C.3       23 UNK        -0.0205 
      9 C9         -4.1726  -13.7161  -48.4500 C.ar      23 UNK        -0.0193 
     10 C10        -4.1026  -13.9354  -49.8283 C.ar      23 UNK        -0.1150 
     11 C11        -4.2370  -15.2248  -50.3502 C.ar      23 UNK        -0.0193 
     12 C12        -4.4294  -16.3005  -49.4775 C.ar      23 UNK        -0.1150 
     13 C13        -4.5124  -16.0980  -48.0924 C.ar      23 UNK        -0.0193 
     14 C14        -4.3859  -14.7985  -47.5927 C.ar      23 UNK        -0.1150 
     15 C15        -4.7493  -17.2290  -47.0903 C.3       23 UNK        -0.0205 
     16 S16        -4.6971  -18.9215  -47.7690 S.3       23 UNK        -0.2404 
     17 C17        -4.8627  -19.9084  -46.2455 C.3       23 UNK        -0.0398 
     18 CA         -4.1779  -21.2834  -46.3999 C.3       11 UNK         0.1400 
     19 N          -2.7148  -21.1887  -46.5067 N.am      11 UNK        -0.5000 
     20 C          -1.8944  -22.2100  -46.7930 C.2       10 UNK         0.5000 
     21 O          -2.2903  -23.3550  -47.0066 O.2       10 UNK        -0.5000 
     22 CA         -0.3853  -21.9253  -46.8068 C.3       10 UNK         0.1400 
     23 CB          0.0352  -21.2221  -48.1053 C.3       10 UNK        -0.1800 
     24 N           0.0118  -21.1356  -45.6437 N.am      10 UNK        -0.5000 
     25 C           0.0865  -21.6294  -44.3991 C.2       9 UNK         0.5000 
     26 O          -0.0686  -22.8199  -44.1275 O.2       9 UNK        -0.5000 
     27 CA          0.3418  -20.6246  -43.2613 C.3       9 UNK         0.1400 
     28 CB          1.8456  -20.4884  -42.9790 C.3       9 UNK        -0.1800 
     29 N          -0.2276  -19.3058  -43.5415 N.am      9 UNK        -0.5000 
     30 C          -1.5419  -19.0380  -43.5336 C.2       8 UNK         0.5000 
     31 O          -2.4076  -19.8745  -43.2745 O.2       8 UNK        -0.5000 
     32 CA         -1.9640  -17.6101  -43.9317 C.3       8 UNK         0.1400 
     33 CB         -1.9278  -16.6783  -42.7123 C.3       8 UNK        -0.1800 
     34 N          -1.1447  -17.0380  -45.0031 N.am      8 UNK        -0.5000 
     35 C          -0.9995  -17.5710  -46.2252 C.2       7 UNK         0.5000 
     36 O          -1.5788  -18.5922  -46.5875 O.2       7 UNK        -0.5000 
     37 CA          0.0049  -16.9007  -47.1807 C.3       7 UNK         0.1400 
     38 CB         -0.6977  -15.8756  -48.0820 C.3       7 UNK        -0.1800 
     39 N           1.1250  -16.2581  -46.4918 N.am      7 UNK        -0.5000 
     40 C           2.0154  -16.8833  -45.7091 C.2       6 UNK         0.5000 
     41 O           1.9753  -18.0934  -45.4802 O.2       6 UNK        -0.5000 
     42 CA          3.1028  -16.0101  -45.0435 C.3       6 UNK         0.1400 
     43 CB          4.4124  -16.7881  -44.8040 C.3       6 UNK        -0.1800 
     44 N           3.3816  -14.7415  -45.7294 N.am      6 UNK        -0.5000 
     45 C           3.8123  -14.5640  -46.9884 C.2       5 UNK         0.5000 
     46 O           3.9771  -15.4751  -47.7996 O.2       5 UNK        -0.5000 
     47 CA          4.1188  -13.1161  -47.4109 C.3       5 UNK         0.1400 
     48 CB          2.8999  -12.4750  -48.0911 C.3       5 UNK        -0.1800 
     49 N           4.5485  -12.2921  -46.2769 N.am      5 UNK        -0.5000 
     50 C           5.8051  -12.2883  -45.8100 C.2       4 UNK         0.5000 
     51 O           6.7185  -12.9444  -46.3136 O.2       4 UNK        -0.5000 
     52 CA          6.1163  -11.4042  -44.5877 C.3       4 UNK         0.1400 
     53 CB          6.5577  -10.0047  -45.0434 C.3       4 UNK        -0.1800 
     54 N           5.0311  -11.2615  -43.6155 N.am      4 UNK        -0.5000 
     55 C           4.4704  -12.2505  -42.9066 C.2       3 UNK         0.5000 
     56 O           4.7044  -13.4450  -43.0921 O.2       3 UNK        -0.5000 
     57 CA          3.5021  -11.8460  -41.7820 C.3       3 UNK         0.1400 
     58 CB          3.4573  -10.3317  -41.4877 C.3       3 UNK        -0.1800 
     59 N           2.1588  -12.3054  -42.1129 N.am      3 UNK        -0.5000 
     60 C           1.3251  -12.9292  -41.2703 C.2       2 UNK         0.5000 
     61 O           1.6359  -13.2441  -40.1204 O.2       2 UNK        -0.5000 
     62 CA         -0.1046  -13.2319  -41.7673 C.3       2 UNK         0.1400 
     63 CB         -1.1589  -12.6977  -40.7828 C.3       2 UNK        -0.1800 
     64 N          -0.3753  -12.6565  -43.0857 N.am      2 UNK        -0.5000 
     65 C          -0.2759  -13.3173  -44.2443 C.2       1 UNK         0.5000 
     66 O           0.0210  -14.5080  -44.3286 O.2       1 UNK        -0.5000 
     67 C          -4.6337  -22.2668  -45.3028 C.2       11 UNK         0.5000 
     68 O          -5.6078  -22.9898  -45.5147 O.2       11 UNK        -0.5000 
     69 N          -3.8780  -22.3485  -44.1982 N.am      12 UNK        -0.5000 
     70 CA         -4.0461  -23.3477  -43.1376 C.3       12 UNK         0.1400 
     71 CB         -3.1100  -22.9985  -41.9707 C.3       12 UNK        -0.1800 
     72 C          -3.8157  -24.8053  -43.5998 C.2       12 UNK         0.5000 
     73 O          -4.3090  -25.7266  -42.9490 O.2       12 UNK        -0.5000 
     74 N          -3.1021  -24.9886  -44.7185 N.am      13 UNK        -0.5000 
     75 CA         -2.8442  -26.2645  -45.3849 C.3       13 UNK         0.1400 
     76 CB         -1.3291  -26.3911  -45.6292 C.3       13 UNK        -0.1800 
     77 C          -3.6545  -26.3797  -46.6945 C.2       13 UNK         0.5000 
     78 O          -3.1958  -27.0201  -47.6420 O.2       13 UNK        -0.5000 
     79 N          -4.8353  -25.7414  -46.7407 N.am      14 UNK        -0.5000 
     80 CA         -5.7785  -25.7022  -47.8663 C.3       14 UNK         0.1400 
     81 CB         -6.3734  -27.1010  -48.1331 C.3       14 UNK        -0.1800 
     82 C          -5.1663  -25.0576  -49.1266 C.2       14 UNK         0.5000 
     83 O          -5.2715  -25.6059  -50.2247 O.2       14 UNK        -0.5000 
     84 N          -4.4942  -23.9164  -48.9220 N.am      15 UNK        -0.5000 
     85 CA         -3.7161  -23.1548  -49.9066 C.3       15 UNK         0.1400 
     86 CB         -4.6296  -22.5594  -50.9953 C.3       15 UNK        -0.1800 
     87 C          -2.5460  -23.9871  -50.4656 C.2       15 UNK         0.5000 
     88 O          -2.3235  -24.0086  -51.6755 O.2       15 UNK        -0.5000 
     89 N          -1.8555  -24.6947  -49.5584 N.am      16 UNK        -0.5000 
     90 CA         -0.8101  -25.6928  -49.8078 C.3       16 UNK         0.1400 
     91 CB          0.4777  -25.0085  -50.3088 C.3       16 UNK        -0.1800 
     92 C          -1.3013  -26.8140  -50.7479 C.2       16 UNK         0.5000 
     93 O          -0.6581  -27.1024  -51.7567 O.2       16 UNK        -0.5000 
     94 N          -2.4754  -27.3786  -50.4287 N.am      17 UNK        -0.5000 
     95 CA         -3.2477  -28.3240  -51.2459 C.3       17 UNK         0.1400 
     96 CB         -2.5546  -29.7014  -51.2811 C.3       17 UNK        -0.1800 
     97 C          -3.5596  -27.7629  -52.6533 C.2       17 UNK         0.5000 
     98 O          -3.3628  -28.4461  -53.6595 O.2       17 UNK        -0.5000 
     99 N          -4.0045  -26.4993  -52.6786 N.am      18 UNK        -0.5000 
    100 CA        -4.3128  -25.6525  -53.8361 C.3       18 UNK         0.1400 
    101 CB        -5.4590  -26.2578  -54.6716 C.3       18 UNK        -0.1800 
    102 C         -3.1050  -25.2509  -54.7139 C.2       18 UNK         0.5000 
    103 O         -3.3105  -24.5889  -55.7328 O.2       18 UNK        -0.5000 
    104 N         -1.8725  -25.6090  -54.3239 N.am      19 UNK        -0.5000 
    105 CA        -0.6504  -25.2648  -55.0576 C.3       19 UNK         0.1400 
    106 CB         0.4887  -26.2013  -54.6292 C.3       19 UNK        -0.1800 
    107 C         -0.2250  -23.7939  -54.8811 C.2       19 UNK         0.5000 
    108 O          0.4910  -23.2711  -55.7360 O.2       19 UNK        -0.5000 
    109 N         -0.6659  -23.1557  -53.7907 N.am      20 UNK        -0.5000 
    110 CA        -0.3765  -21.7684  -53.4326 C.3       20 UNK         0.1400 
    111 CB         0.4283  -21.7475  -52.1209 C.3       20 UNK        -0.1800 
    112 C         -1.6787  -20.9514  -53.3392 C.2       20 UNK         0.5000 
    113 O         -1.7920  -20.0640  -52.4917 O.2       20 UNK        -0.5000 
    114 N         -2.6466  -21.2641  -54.2124 N.am      21 UNK        -0.5000 
    115 CA        -3.8905  -20.5125  -54.3863 C.3       21 UNK         0.1400 
    116 CB        -4.8212  -21.3064  -55.3155 C.3       21 UNK        -0.1800 
    117 C         -3.6357  -19.0948  -54.9382 C.2       21 UNK         0.5000 
    118 O         -2.6486  -18.8789  -55.6474 O.2       21 UNK        -0.5000 
    119 N         -4.5300  -18.1602  -54.5959 N.am      22 UNK        -0.5000 
    120 CA        -4.4560  -16.7381  -54.9684 C.3       22 UNK         0.1400 
    121 C         -4.4831  -16.4957  -56.5049 C.2       22 UNK         0.5000 
    122 N         -3.7121  -15.5389  -57.0039 N.am      22 UNK        -0.7600 
    123 O         -5.2331  -17.1346  -57.2401 O.2       22 UNK        -0.5000 
    124 C124       -5.5695  -15.8986  -54.2874 C.3       23 UNK        -0.0398 
    125 S125       -5.7389  -16.1490  -52.4863 S.3       23 UNK        -0.2404 
    126 C126       -4.1769  -15.4562  -51.8547 C.3       23 UNK        -0.0205 
    127 H127        2.2228   -8.9439  -45.8733 H         1 UNK         0.0600 
    128 H128        1.6908   -8.8496  -44.1911 H         1 UNK         0.0600 
    129 H129        0.5258   -8.6283  -45.5006 H         1 UNK         0.0600 
    130 H130       -0.8061  -10.4181  -45.6244 H         1 UNK         0.3000 
    131 H131        0.0905  -12.9727  -46.3069 H         1 UNK         0.0600 
    132 H132       -2.6585  -12.1647  -45.2349 H         1 UNK         0.0800 
    133 H133       -2.2924  -13.6780  -46.0264 H         1 UNK         0.0800 
    134 H134       -4.6155  -12.1995  -46.9731 H         1 UNK         0.0800 
    135 H135       -4.4674  -11.5943  -48.6005 H         1 UNK         0.0800 
    136 H136       -3.9469  -13.0978  -50.4938 H         1 UNK         0.1150 
    137 H137       -4.5306  -17.2897  -49.8982 H         1 UNK         0.1150 
    138 H138       -4.4560  -14.6287  -46.5274 H         1 UNK         0.1150 
    139 H139       -3.9988  -17.1491  -46.3056 H         1 UNK         0.0800 
    140 H140       -5.7187  -17.0761  -46.6140 H         1 UNK         0.0800 
    141 H141       -5.9299  -20.0206  -46.0449 H         1 UNK         0.0800 
    142 H142       -4.4408  -19.3679  -45.3971 H         1 UNK         0.0800 
    143 H143       -4.5326  -21.7054  -47.3402 H         1 UNK         0.0600 
    144 H144       -2.3163  -20.2560  -46.4114 H         1 UNK         0.3000 
    145 H145        0.1346  -22.8852  -46.7674 H         1 UNK         0.0600 
    146 H146       -0.4679  -20.2650  -48.2396 H         1 UNK         0.0600 
    147 H147        1.1101  -21.0422  -48.1268 H         1 UNK         0.0600 
    148 H148       -0.2085  -21.8401  -48.9691 H         1 UNK         0.0600 
    149 H149        0.1275  -20.1409  -45.7800 H         1 UNK         0.3000 
    150 H150       -0.1359  -21.0166  -42.3606 H         1 UNK         0.0600 
    151 H151        2.2745  -21.4495  -42.6926 H         1 UNK         0.0600 
    152 H152        2.0336  -19.7922  -42.1616 H         1 UNK         0.0600 
    153 H153        2.3924  -20.1361  -43.8537 H         1 UNK         0.0600 
    154 H154        0.4187  -18.5860  -43.8369 H         1 UNK         0.3000 
    155 H155       -2.9937  -17.6605  -44.2866 H         1 UNK         0.0600 
    156 H156       -2.5565  -17.0616  -41.9076 H         1 UNK         0.0600 
    157 H157       -2.2933  -15.6826  -42.9644 H         1 UNK         0.0600 
    158 H158       -0.9159  -16.5756  -42.3191 H         1 UNK         0.0600 
    159 H159       -0.6286  -16.1902  -44.7784 H         1 UNK         0.3000 
    160 H160        0.4189  -17.6850  -47.8175 H         1 UNK         0.0600 
    161 H161       -1.1235  -15.0553  -47.5064 H         1 UNK         0.0600 
    162 H162       -1.5123  -16.3410  -48.6385 H         1 UNK         0.0600 
    163 H163       -0.0085  -15.4512  -48.8121 H         1 UNK         0.0600 
    164 H164        1.2134  -15.2594  -46.5943 H         1 UNK         0.3000 
    165 H165        2.7024  -15.7354  -44.0665 H         1 UNK         0.0600 
    166 H166        4.8466  -17.1443  -45.7386 H         1 UNK         0.0600 
    167 H167        5.1539  -16.1634  -44.3055 H         1 UNK         0.0600 
    168 H168        4.2438  -17.6579  -44.1680 H         1 UNK         0.0600 
    169 H169        3.3092  -13.9169  -45.1485 H         1 UNK         0.3000 
    170 H170        4.9227  -13.1508  -48.1496 H         1 UNK         0.0600 
    171 H171        2.0303  -12.4627  -47.4378 H         1 UNK         0.0600 
    172 H172        3.1090  -11.4483  -48.3915 H         1 UNK         0.0600 
    173 H173        2.6222  -13.0274  -48.9896 H         1 UNK         0.0600 
    174 H174        3.8290  -11.7692  -45.7859 H         1 UNK         0.3000 
    175 H175        6.9553  -11.8678  -44.0647 H         1 UNK         0.0600 
    176 H176        5.7452   -9.4686  -45.5356 H         1 UNK         0.0600 
    177 H177        6.8968   -9.4025  -44.2004 H         1 UNK         0.0600 
    178 H178        7.3864  -10.0657  -45.7504 H         1 UNK         0.0600 
    179 H179        4.7470  -10.3156  -43.4080 H         1 UNK         0.3000 
    180 H180        3.8650  -12.3508  -40.8844 H         1 UNK         0.0600 
    181 H181        3.0754   -9.7617  -42.3351 H         1 UNK         0.0600 
    182 H182        4.4464   -9.9463  -41.2367 H         1 UNK         0.0600 
    183 H183        2.8101  -10.1229  -40.6357 H         1 UNK         0.0600 
    184 H184        1.8660  -12.1332  -43.0685 H         1 UNK         0.3000 
    185 H185       -0.2025  -14.3178  -41.8051 H         1 UNK         0.0600 
    186 H186       -2.1678  -12.9348  -41.1212 H         1 UNK         0.0600 
    187 H187       -1.0388  -13.1437  -39.7947 H         1 UNK         0.0600 
    188 H188       -1.0889  -11.6156  -40.6664 H         1 UNK         0.0600 
    189 H189       -0.6018  -11.6724  -43.1099 H         1 UNK         0.3000 
    190 H190       -3.1266  -21.6788  -44.0723 H         1 UNK         0.3000 
    191 H191       -5.0755  -23.2807  -42.7799 H         1 UNK         0.0600 
    192 H192       -2.0630  -23.0324  -42.2722 H         1 UNK         0.0600 
    193 H193       -3.3154  -21.9998  -41.5848 H         1 UNK         0.0600 
    194 H194       -3.2364  -23.6983  -41.1437 H         1 UNK         0.0600 
    195 H195       -2.7593  -24.1742  -45.2156 H         1 UNK         0.3000 
    196 H196       -3.1537  -27.0955  -44.7485 H         1 UNK         0.0600 
    197 H197       -0.7730  -26.3057  -44.6956 H         1 UNK         0.0600 
    198 H198       -0.9631  -25.6178  -46.3051 H         1 UNK         0.0600 
    199 H199       -1.0786  -27.3581  -46.0670 H         1 UNK         0.0600 
    200 H200       -5.1039  -25.1911  -45.9347 H         1 UNK         0.3000 
    201 H201       -6.5972  -25.0501  -47.5584 H         1 UNK         0.0600 
    202 H202       -7.1590  -27.0525  -48.8880 H         1 UNK         0.0600 
    203 H203       -6.8178  -27.5188  -47.2299 H         1 UNK         0.0600 
    204 H204       -5.6208  -27.8035  -48.4923 H         1 UNK         0.0600 
    205 H205       -4.3867  -23.6173  -47.9632 H         1 UNK         0.3000 
    206 H206       -3.2631  -22.3146  -49.3810 H         1 UNK         0.0600 
    207 H207       -5.4022  -21.9282  -50.5564 H         1 UNK         0.0600 
    208 H208       -5.1225  -23.3290  -51.5875 H         1 UNK         0.0600 
    209 H209       -4.0541  -21.9375  -51.6785 H         1 UNK         0.0600 
    210 H210       -2.1209  -24.5748  -48.5864 H         1 UNK         0.3000 
    211 H211       -0.5897  -26.1622  -48.8481 H         1 UNK         0.0600 
    212 H212        0.7889  -24.2088  -49.6369 H         1 UNK         0.0600 
    213 H213        1.2992  -25.7231  -50.3680 H         1 UNK         0.0600 
    214 H214        0.3472  -24.5823  -51.3033 H         1 UNK         0.0600 
    215 H215       -2.9060  -27.1030  -49.5494 H         1 UNK         0.3000 
    216 H216       -4.2088  -28.4484  -50.7450 H         1 UNK         0.0600 
    217 H217       -3.1750  -30.4373  -51.7938 H         1 UNK         0.0600 
    218 H218       -1.5972  -29.6611  -51.8015 H         1 UNK         0.0600 
    219 H219       -2.3731  -30.0757  -50.2736 H         1 UNK         0.0600 
    220 H220       -4.1653  -26.0539  -51.7790 H         1 UNK         0.3000 
    221 H221       -4.6822  -24.7173  -53.4160 H         1 UNK         0.0600 
    222 H222       -5.1497  -27.1674  -55.1867 H         1 UNK         0.0600 
    223 H223       -6.3175  -26.5005  -54.0453 H         1 UNK         0.0600 
    224 H224       -5.8032  -25.5555  -55.4316 H         1 UNK         0.0600 
    225 H225       -1.7569  -26.1221  -53.4581 H         1 UNK         0.3000 
    226 H226       -0.8341  -25.4303  -56.1213 H         1 UNK         0.0600 
    227 H227        0.1908  -27.2480  -54.6945 H         1 UNK         0.0600 
    228 H228        1.3608  -26.0692  -55.2707 H         1 UNK         0.0600 
    229 H229        0.8080  -26.0037  -53.6057 H         1 UNK         0.0600 
    230 H230       -1.2807  -23.6479  -53.1433 H         1 UNK         0.3000 
    231 H231        0.2292  -21.2918  -54.2055 H         1 UNK         0.0600 
    232 H232        0.7211  -20.7320  -51.8523 H         1 UNK         0.0600 
    233 H233        1.3418  -22.3356  -52.2087 H         1 UNK         0.0600 
    234 H234       -0.1540  -22.1525  -51.2942 H         1 UNK         0.0600 
    235 H235       -2.4683  -22.0024  -54.8777 H         1 UNK         0.3000 
    236 H236       -4.3716  -20.4167  -53.4114 H         1 UNK         0.0600 
    237 H237       -5.0469  -22.2894  -54.9010 H         1 UNK         0.0600 
    238 H238       -5.7702  -20.7880  -55.4575 H         1 UNK         0.0600 
    239 H239       -4.3757  -21.4525  -56.3004 H         1 UNK         0.0600 
    240 H240       -5.3199  -18.4184  -54.0231 H         1 UNK         0.3000 
    241 H241       -3.4948  -16.3773  -54.5978 H         1 UNK         0.0600 
    242 H242       -3.7338  -15.3618  -57.9965 H         1 UNK         0.3800 
    243 H243       -3.0938  -14.9959  -56.4208 H         1 UNK         0.3800 
    244 H244       -5.4061  -14.8348  -54.4688 H         1 UNK         0.0800 
    245 H245       -6.5384  -16.1313  -54.7333 H         1 UNK         0.0800 
    246 H246       -3.9583  -14.5235  -52.3769 H         1 UNK         0.0800 
    247 H247       -3.3588  -16.1419  -52.0799 H         1 UNK         0.0800 
@<TRIPOS>BOND
     1    1    2 1    
     2    1  127 1    
     3    1  128 1    
     4    1  129 1    
     5    2    3 2    
     6    2    4 am   BACKBONE|DICT|INTERRES
     7    4    5 1    
     8    4  130 1    
     9    5    6 1    
    10    5   65 1    
    11    5  131 1    
    12    6    7 1    
    13    6  132 1    
    14    6  133 1    
    15    7    8 1    
    16    8    9 1    
    17    8  134 1    
    18    8  135 1    
    19    9   10 ar   
    20    9   14 ar   
    21   10   11 ar   
    22   10  136 1    
    23   11   12 ar   
    24   11  126 1    
    25   12   13 ar   
    26   12  137 1    
    27   13   14 ar   
    28   13   15 1    
    29   14  138 1    
    30   15   16 1    
    31   15  139 1    
    32   15  140 1    
    33   16   17 1    
    34   17   18 1    
    35   17  141 1    
    36   17  142 1    
    37   18   19 1    
    38   18   67 1    
    39   18  143 1    
    40   19   20 am   BACKBONE|DICT|INTERRES
    41   19  144 1    
    42   20   21 2    
    43   20   22 1    
    44   22   23 1    
    45   22   24 1    
    46   22  145 1    
    47   23  146 1    
    48   23  147 1    
    49   23  148 1    
    50   24   25 am   BACKBONE|DICT|INTERRES
    51   24  149 1    
    52   25   26 2    
    53   25   27 1    
    54   27   28 1    
    55   27   29 1    
    56   27  150 1    
    57   28  151 1    
    58   28  152 1    
    59   28  153 1    
    60   29   30 am   BACKBONE|DICT|INTERRES
    61   29  154 1    
    62   30   31 2    
    63   30   32 1    
    64   32   33 1    
    65   32   34 1    
    66   32  155 1    
    67   33  156 1    
    68   33  157 1    
    69   33  158 1    
    70   34   35 am   BACKBONE|DICT|INTERRES
    71   34  159 1    
    72   35   36 2    
    73   35   37 1    
    74   37   38 1    
    75   37   39 1    
    76   37  160 1    
    77   38  161 1    
    78   38  162 1    
    79   38  163 1    
    80   39   40 am   BACKBONE|DICT|INTERRES
    81   39  164 1    
    82   40   41 2    
    83   40   42 1    
    84   42   43 1    
    85   42   44 1    
    86   42  165 1    
    87   43  166 1    
    88   43  167 1    
    89   43  168 1    
    90   44   45 am   BACKBONE|DICT|INTERRES
    91   44  169 1    
    92   45   46 2    
    93   45   47 1    
    94   47   48 1    
    95   47   49 1    
    96   47  170 1    
    97   48  171 1    
    98   48  172 1    
    99   48  173 1    
   100   49   50 am   BACKBONE|DICT|INTERRES
   101   49  174 1    
   102   50   51 2    
   103   50   52 1    
   104   52   53 1    
   105   52   54 1    
   106   52  175 1    
   107   53  176 1    
   108   53  177 1    
   109   53  178 1    
   110   54   55 am   BACKBONE|DICT|INTERRES
   111   54  179 1    
   112   55   56 2    
   113   55   57 1    
   114   57   58 1    
   115   57   59 1    
   116   57  180 1    
   117   58  181 1    
   118   58  182 1    
   119   58  183 1    
   120   59   60 am   BACKBONE|DICT|INTERRES
   121   59  184 1    
   122   60   61 2    
   123   60   62 1    
   124   62   63 1    
   125   62   64 1    
   126   62  185 1    
   127   63  186 1    
   128   63  187 1    
   129   63  188 1    
   130   64   65 am   BACKBONE|DICT|INTERRES
   131   64  189 1    
   132   65   66 2    
   133   67   68 2    
   134   67   69 am   BACKBONE|DICT|INTERRES
   135   69   70 1    
   136   69  190 1    
   137   70   71 1    
   138   70   72 1    
   139   70  191 1    
   140   71  192 1    
   141   71  193 1    
   142   71  194 1    
   143   72   73 2    
   144   72   74 am   BACKBONE|DICT|INTERRES
   145   74   75 1    
   146   74  195 1    
   147   75   76 1    
   148   75   77 1    
   149   75  196 1    
   150   76  197 1    
   151   76  198 1    
   152   76  199 1    
   153   77   78 2    
   154   77   79 am   BACKBONE|DICT|INTERRES
   155   79   80 1    
   156   79  200 1    
   157   80   81 1    
   158   80   82 1    
   159   80  201 1    
   160   81  202 1    
   161   81  203 1    
   162   81  204 1    
   163   82   83 2    
   164   82   84 am   BACKBONE|DICT|INTERRES
   165   84   85 1    
   166   84  205 1    
   167   85   86 1    
   168   85   87 1    
   169   85  206 1    
   170   86  207 1    
   171   86  208 1    
   172   86  209 1    
   173   87   88 2    
   174   87   89 am   BACKBONE|DICT|INTERRES
   175   89   90 1    
   176   89  210 1    
   177   90   91 1    
   178   90   92 1    
   179   90  211 1    
   180   91  212 1    
   181   91  213 1    
   182   91  214 1    
   183   92   93 2    
   184   92   94 am   BACKBONE|DICT|INTERRES
   185   94   95 1    
   186   94  215 1    
   187   95   96 1    
   188   95   97 1    
   189   95  216 1    
   190   96  217 1    
   191   96  218 1    
   192   96  219 1    
   193   97   98 2    
   194   97   99 am   BACKBONE|DICT|INTERRES
   195   99  100 1    
   196   99  220 1    
   197  100  101 1    
   198  100  102 1    
   199  100  221 1    
   200  101  222 1    
   201  101  223 1    
   202  101  224 1    
   203  102  103 2    
   204  102  104 am   BACKBONE|DICT|INTERRES
   205  104  105 1    
   206  104  225 1    
   207  105  106 1    
   208  105  107 1    
   209  105  226 1    
   210  106  227 1    
   211  106  228 1    
   212  106  229 1    
   213  107  108 2    
   214  107  109 am   BACKBONE|DICT|INTERRES
   215  109  110 1    
   216  109  230 1    
   217  110  111 1    
   218  110  112 1    
   219  110  231 1    
   220  111  232 1    
   221  111  233 1    
   222  111  234 1    
   223  112  113 2    
   224  112  114 am   BACKBONE|DICT|INTERRES
   225  114  115 1    
   226  114  235 1    
   227  115  116 1    
   228  115  117 1    
   229  115  236 1    
   230  116  237 1    
   231  116  238 1    
   232  116  239 1    
   233  117  118 2    
   234  117  119 am   BACKBONE|DICT|INTERRES
   235  119  120 1    
   236  119  240 1    
   237  120  121 1    
   238  120  124 1    
   239  120  241 1    
   240  121  122 am   BACKBONE|DICT|INTERRES
   241  121  123 2    
   242  122  242 1    
   243  122  243 1    
   244  124  125 1    
   245  124  244 1    
   246  124  245 1    
   247  125  126 1    
   248  126  246 1    
   249  126  247 1    
@<TRIPOS>SUBSTRUCTURE
     1 UNK         1 GROUP             0       ****    0 ROOT    
