@<TRIPOS>MOLECULE
3R540
247   249    1
SMALL
USER_CHARGES


@<TRIPOS>ATOM
      1 CA         -0.1550  -15.0663  -49.4572 C.3       0 UNK        -0.1800 
      2 C           0.7539  -13.9393  -48.9919 C.2       0 UNK         0.5000 
      3 O           0.3185  -13.0793  -48.2259 O.2       0 UNK        -0.5000 
      4 N           2.0160  -13.9446  -49.4424 N.am      1 UNK        -0.5000 
      5 CA          3.0188  -12.8926  -49.2053 C.3       1 UNK         0.1400 
      6 C6          4.3258  -13.1425  -49.9937 C.3       23 UNK        -0.0398 
      7 S7          4.0556  -13.3026  -51.7899 S.3       23 UNK        -0.2404 
      8 C8          4.6764  -14.9845  -52.0999 C.3       23 UNK        -0.0205 
      9 C9          3.6809  -16.0590  -51.6870 C.ar      23 UNK        -0.0193 
     10 C10         2.6099  -16.3684  -52.5292 C.ar      23 UNK        -0.1150 
     11 C11         1.7369  -17.4131  -52.2156 C.ar      23 UNK        -0.0193 
     12 C12         1.9372  -18.1470  -51.0438 C.ar      23 UNK        -0.1150 
     13 C13         2.9870  -17.8308  -50.1777 C.ar      23 UNK        -0.0193 
     14 C14         3.8562  -16.7837  -50.5031 C.ar      23 UNK        -0.1150 
     15 C15         3.2099  -18.6543  -48.9185 C.3       23 UNK        -0.0205 
     16 S16         2.4312  -17.9090  -47.4540 S.3       23 UNK        -0.2404 
     17 C17         0.6542  -18.2059  -47.7504 C.3       23 UNK        -0.0398 
     18 CA          0.1834  -19.6782  -47.6099 C.3       11 UNK         0.1400 
     19 N           0.7617  -20.3684  -46.4530 N.am      11 UNK        -0.5000 
     20 C           0.6518  -21.6804  -46.2066 C.2       10 UNK         0.5000 
     21 O           0.0849  -22.4618  -46.9711 O.2       10 UNK        -0.5000 
     22 CA          1.1883  -22.1969  -44.8563 C.3       10 UNK         0.1400 
     23 CB          1.8559  -23.5829  -44.9722 C.3       10 UNK        -0.1800 
     24 N           2.0433  -21.2413  -44.1440 N.am      10 UNK        -0.5000 
     25 C           3.2896  -20.8503  -44.4496 C.2       9 UNK         0.5000 
     26 O           3.9153  -21.2481  -45.4321 O.2       9 UNK        -0.5000 
     27 CA          3.9500  -19.8292  -43.4996 C.3       9 UNK         0.1400 
     28 CB          4.0794  -18.4614  -44.1837 C.3       9 UNK        -0.1800 
     29 N           3.2250  -19.6481  -42.2399 N.am      9 UNK        -0.5000 
     30 C           3.2089  -20.5202  -41.2228 C.2       8 UNK         0.5000 
     31 O           3.8360  -21.5796  -41.2166 O.2       8 UNK        -0.5000 
     32 CA          2.3138  -20.1548  -40.0274 C.3       8 UNK         0.1400 
     33 CB          3.0352  -19.1767  -39.0866 C.3       8 UNK        -0.1800 
     34 N           1.0495  -19.5615  -40.4661 N.am      8 UNK        -0.5000 
     35 C          -0.0298  -20.2603  -40.8447 C.2       7 UNK         0.5000 
     36 O          -0.0775  -21.4901  -40.8556 O.2       7 UNK        -0.5000 
     37 CA         -1.2605  -19.4519  -41.3005 C.3       7 UNK         0.1400 
     38 CB         -2.1566  -19.1083  -40.1016 C.3       7 UNK        -0.1800 
     39 N          -0.8979  -18.2173  -41.9975 N.am      7 UNK        -0.5000 
     40 C          -0.4027  -18.1760  -43.2403 C.2       6 UNK         0.5000 
     41 O          -0.2953  -19.1669  -43.9630 O.2       6 UNK        -0.5000 
     42 CA          0.0731  -16.8132  -43.7749 C.3       6 UNK         0.1400 
     43 CB         -0.9953  -16.1912  -44.6839 C.3       6 UNK        -0.1800 
     44 N           0.4729  -15.8428  -42.7467 N.am      6 UNK        -0.5000 
     45 C           1.4481  -16.0346  -41.8429 C.2       5 UNK         0.5000 
     46 O           2.0865  -17.0843  -41.7687 O.2       5 UNK        -0.5000 
     47 CA          1.7659  -14.9015  -40.8468 C.3       5 UNK         0.1400 
     48 CB          3.2749  -14.6100  -40.7875 C.3       5 UNK        -0.1800 
     49 N           1.0545  -13.6607  -41.1517 N.am      5 UNK        -0.5000 
     50 C          -0.1146  -13.2930  -40.6094 C.2       4 UNK         0.5000 
     51 O          -0.7182  -13.9651  -39.7725 O.2       4 UNK        -0.5000 
     52 CA         -0.7281  -11.9617  -41.0920 C.3       4 UNK         0.1400 
     53 CB         -0.3959  -10.8302  -40.1076 C.3       4 UNK        -0.1800 
     54 N          -0.2984  -11.5636  -42.4350 N.am      4 UNK        -0.5000 
     55 C          -0.5626  -12.2451  -43.5576 C.2       3 UNK         0.5000 
     56 O          -1.2287  -13.2790  -43.5754 O.2       3 UNK        -0.5000 
     57 CA          0.0426  -11.7160  -44.8738 C.3       3 UNK         0.1400 
     58 CB          0.4847  -10.2373  -44.8088 C.3       3 UNK        -0.1800 
     59 N           1.1495  -12.5511  -45.3509 N.am      3 UNK        -0.5000 
     60 C           2.2697  -12.8793  -44.6847 C.2       2 UNK         0.5000 
     61 O           2.4831  -12.5644  -43.5130 O.2       2 UNK        -0.5000 
     62 CA          3.3478  -13.6836  -45.4435 C.3       2 UNK         0.1400 
     63 CB          3.4113  -15.1321  -44.9472 C.3       2 UNK        -0.1800 
     64 N           3.1576  -13.7095  -46.8924 N.am      2 UNK        -0.5000 
     65 C           3.3552  -12.6717  -47.7150 C.2       1 UNK         0.5000 
     66 O           3.7766  -11.5759  -47.3430 O.2       1 UNK        -0.5000 
     67 C          -1.3589  -19.7347  -47.5657 C.2       11 UNK         0.5000 
     68 O          -1.9997  -19.9741  -48.5894 O.2       11 UNK        -0.5000 
     69 N          -1.9208  -19.5557  -46.3595 N.am      12 UNK        -0.5000 
     70 CA         -3.3560  -19.6525  -46.0971 C.3       12 UNK         0.1400 
     71 CB         -3.6770  -19.0568  -44.7185 C.3       12 UNK        -0.1800 
     72 C          -3.8605  -21.1007  -46.1858 C.2       12 UNK         0.5000 
     73 O          -4.9683  -21.3222  -46.6688 O.2       12 UNK        -0.5000 
     74 N          -3.0312  -22.0610  -45.7522 N.am      13 UNK        -0.5000 
     75 CA         -3.3138  -23.4942  -45.8413 C.3       13 UNK         0.1400 
     76 CB         -2.2853  -24.2819  -45.0166 C.3       13 UNK        -0.1800 
     77 C          -3.3526  -23.9849  -47.2992 C.2       13 UNK         0.5000 
     78 O          -4.2450  -24.7540  -47.6545 O.2       13 UNK        -0.5000 
     79 N          -2.4205  -23.4902  -48.1269 N.am      14 UNK        -0.5000 
     80 CA         -2.3877  -23.7254  -49.5701 C.3       14 UNK         0.1400 
     81 CB         -1.0896  -23.1561  -50.1601 C.3       14 UNK        -0.1800 
     82 C          -3.6238  -23.1491  -50.2841 C.2       14 UNK         0.5000 
     83 O          -4.2323  -23.8511  -51.0887 O.2       14 UNK        -0.5000 
     84 N          -4.0051  -21.9116  -49.9346 N.am      15 UNK        -0.5000 
     85 CA         -5.2076  -21.2463  -50.4404 C.3       15 UNK         0.1400 
     86 CB         -5.1952  -19.7735  -50.0066 C.3       15 UNK        -0.1800 
     87 C          -6.5147  -21.9399  -50.0029 C.2       15 UNK         0.5000 
     88 O          -7.4395  -22.0545  -50.8072 O.2       15 UNK        -0.5000 
     89 N          -6.5682  -22.4243  -48.7527 N.am      16 UNK        -0.5000 
     90 CA         -7.6859  -23.1993  -48.2016 C.3       16 UNK         0.1400 
     91 CB         -7.5042  -23.3651  -46.6857 C.3       16 UNK        -0.1800 
     92 C          -7.8618  -24.5723  -48.8792 C.2       16 UNK         0.5000 
     93 O          -8.9896  -25.0502  -49.0018 O.2       16 UNK        -0.5000 
     94 N          -6.7536  -25.1538  -49.3554 N.am      17 UNK        -0.5000 
     95 CA         -6.7053  -26.3641  -50.1789 C.3       17 UNK         0.1400 
     96 CB         -5.3550  -27.0626  -49.9424 C.3       17 UNK        -0.1800 
     97 C          -6.9424  -26.0818  -51.6814 C.2       17 UNK         0.5000 
     98 O          -6.6787  -26.9573  -52.5076 O.2       17 UNK        -0.5000 
     99 N          -7.4259  -24.8746  -52.0100 N.am      18 UNK        -0.5000 
    100 CA        -7.6219  -24.2896  -53.3347 C.3       18 UNK         0.1400 
    101 CB        -8.5524  -25.1341  -54.2319 C.3       18 UNK        -0.1800 
    102 C         -6.2748  -23.9517  -53.9886 C.2       18 UNK         0.5000 
    103 O         -5.8674  -22.7918  -53.9378 O.2       18 UNK        -0.5000 
    104 N         -5.6212  -24.9633  -54.5837 N.am      19 UNK        -0.5000 
    105 CA        -4.3179  -24.9044  -55.2589 C.3       19 UNK         0.1400 
    106 CB        -3.1907  -24.8185  -54.2124 C.3       19 UNK        -0.1800 
    107 C         -4.2573  -23.7753  -56.3096 C.2       19 UNK         0.5000 
    108 O         -3.3991  -22.8911  -56.2370 O.2       19 UNK        -0.5000 
    109 N         -5.2529  -23.7757  -57.2075 N.am      20 UNK        -0.5000 
    110 CA        -5.5976  -22.7509  -58.2037 C.3       20 UNK         0.1400 
    111 CB        -4.4397  -22.4894  -59.1864 C.3       20 UNK        -0.1800 
    112 C         -6.1231  -21.4364  -57.5888 C.2       20 UNK         0.5000 
    113 O         -7.1429  -20.9244  -58.0519 O.2       20 UNK        -0.5000 
    114 N         -5.4458  -20.9402  -56.5484 N.am      21 UNK        -0.5000 
    115 CA        -5.8058  -19.7766  -55.7394 C.3       21 UNK         0.1400 
    116 CB        -5.7438  -18.4793  -56.5723 C.3       21 UNK        -0.1800 
    117 C         -4.8979  -19.6387  -54.5045 C.2       21 UNK         0.5000 
    118 O         -5.3461  -19.0959  -53.4941 O.2       21 UNK        -0.5000 
    119 N         -3.6352  -20.0763  -54.6114 N.am      22 UNK        -0.5000 
    120 CA        -2.5840  -19.8245  -53.6110 C.3       22 UNK         0.1400 
    121 C         -1.4787  -20.9248  -53.5696 C.2       22 UNK         0.5000 
    122 N         -1.4716  -21.9262  -54.4395 N.am      22 UNK        -0.7600 
    123 O         -0.6053  -20.8970  -52.7096 O.2       22 UNK        -0.5000 
    124 C124       -2.0158  -18.3867  -53.8031 C.3       23 UNK        -0.0398 
    125 S125       -1.0296  -17.7204  -52.4181 S.3       23 UNK        -0.2404 
    126 C126        0.6246  -17.7940  -53.1786 C.3       23 UNK        -0.0205 
    127 H127        0.3866  -15.8020  -50.0511 H         1 UNK         0.0600 
    128 H128       -0.5975  -15.5710  -48.5989 H         1 UNK         0.0600 
    129 H129       -0.9625  -14.6665  -50.0701 H         1 UNK         0.0600 
    130 H130        2.3083  -14.6785  -50.0736 H         1 UNK         0.3000 
    131 H131        2.5835  -11.9585  -49.5666 H         1 UNK         0.0600 
    132 H132        5.0208  -12.3134  -49.8470 H         1 UNK         0.0800 
    133 H133        4.8352  -14.0299  -49.6146 H         1 UNK         0.0800 
    134 H134        5.6344  -15.1270  -51.5973 H         1 UNK         0.0800 
    135 H135        4.8842  -15.0841  -53.1664 H         1 UNK         0.0800 
    136 H136        2.4782  -15.8129  -53.4474 H         1 UNK         0.1150 
    137 H137        1.2754  -18.9709  -50.8140 H         1 UNK         0.1150 
    138 H138        4.6853  -16.5553  -49.8481 H         1 UNK         0.1150 
    139 H139        2.8423  -19.6725  -49.0530 H         1 UNK         0.0800 
    140 H140        4.2804  -18.7470  -48.7304 H         1 UNK         0.0800 
    141 H141        0.3918  -17.8310  -48.7390 H         1 UNK         0.0800 
    142 H142        0.1265  -17.5655  -47.0449 H         1 UNK         0.0800 
    143 H143        0.5032  -20.2202  -48.5023 H         1 UNK         0.0600 
    144 H144        1.2029  -19.7893  -45.7537 H         1 UNK         0.3000 
    145 H145        0.3081  -22.3176  -44.2233 H         1 UNK         0.0600 
    146 H146        2.2165  -23.9290  -44.0035 H         1 UNK         0.0600 
    147 H147        1.1515  -24.3295  -45.3397 H         1 UNK         0.0600 
    148 H148        2.6999  -23.5722  -45.6619 H         1 UNK         0.0600 
    149 H149        1.6184  -20.8110  -43.3345 H         1 UNK         0.3000 
    150 H150        4.9533  -20.1951  -43.2725 H         1 UNK         0.0600 
    151 H151        4.6444  -18.5356  -45.1137 H         1 UNK         0.0600 
    152 H152        4.5971  -17.7466  -43.5438 H         1 UNK         0.0600 
    153 H153        3.1018  -18.0461  -44.4253 H         1 UNK         0.0600 
    154 H154        2.7272  -18.7673  -42.1276 H         1 UNK         0.3000 
    155 H155        2.1066  -21.0697  -39.4679 H         1 UNK         0.0600 
    156 H156        3.2760  -18.2363  -39.5837 H         1 UNK         0.0600 
    157 H157        3.9708  -19.6042  -38.7240 H         1 UNK         0.0600 
    158 H158        2.4235  -18.9469  -38.2141 H         1 UNK         0.0600 
    159 H159        1.0386  -18.5553  -40.5642 H         1 UNK         0.3000 
    160 H160       -1.8344  -20.0830  -41.9819 H         1 UNK         0.0600 
    161 H161       -3.0659  -18.6000  -40.4230 H         1 UNK         0.0600 
    162 H162       -1.6449  -18.4625  -39.3869 H         1 UNK         0.0600 
    163 H163       -2.4606  -20.0111  -39.5700 H         1 UNK         0.0600 
    164 H164       -0.9756  -17.3548  -41.4789 H         1 UNK         0.3000 
    165 H165        0.9476  -17.0266  -44.3878 H         1 UNK         0.0600 
    166 H166       -0.5979  -15.3322  -45.2251 H         1 UNK         0.0600 
    167 H167       -1.3542  -16.9002  -45.4285 H         1 UNK         0.0600 
    168 H168       -1.8626  -15.8600  -44.1119 H         1 UNK         0.0600 
    169 H169       -0.0199  -14.9579  -42.7521 H         1 UNK         0.3000 
    170 H170        1.4676  -15.2650  -39.8616 H         1 UNK         0.0600 
    171 H171        3.8433  -15.5073  -40.5391 H         1 UNK         0.0600 
    172 H172        3.6547  -14.2324  -41.7360 H         1 UNK         0.0600 
    173 H173        3.4986  -13.8666  -40.0224 H         1 UNK         0.0600 
    174 H174        1.4747  -13.0713  -41.8652 H         1 UNK         0.3000 
    175 H175       -1.8122  -12.0907  -41.1125 H         1 UNK         0.0600 
    176 H176       -0.8913   -9.9014  -40.3913 H         1 UNK         0.0600 
    177 H177       -0.7283  -11.0791  -39.0989 H         1 UNK         0.0600 
    178 H178        0.6772  -10.6395  -40.0621 H         1 UNK         0.0600 
    179 H179        0.2861  -10.7429  -42.4991 H         1 UNK         0.3000 
    180 H180       -0.7459  -11.7916  -45.6240 H         1 UNK         0.0600 
    181 H181        1.3221  -10.0831  -44.1276 H         1 UNK         0.0600 
    182 H182       -0.3347   -9.5946  -44.4840 H         1 UNK         0.0600 
    183 H183        0.7963   -9.8853  -45.7924 H         1 UNK         0.0600 
    184 H184        1.0531  -12.8706  -46.3091 H         1 UNK         0.3000 
    185 H185        4.3086  -13.2102  -45.2311 H         1 UNK         0.0600 
    186 H186        2.4983  -15.6690  -45.1945 H         1 UNK         0.0600 
    187 H187        4.2448  -15.6670  -45.4029 H         1 UNK         0.0600 
    188 H188        3.5484  -15.1819  -43.8679 H         1 UNK         0.0600 
    189 H189        2.8091  -14.5704  -47.2888 H         1 UNK         0.3000 
    190 H190       -1.3170  -19.4130  -45.5545 H         1 UNK         0.3000 
    191 H191       -3.8839  -19.0663  -46.8521 H         1 UNK         0.0600 
    192 H192       -3.1625  -19.5901  -43.9195 H         1 UNK         0.0600 
    193 H193       -4.7465  -19.1112  -44.5111 H         1 UNK         0.0600 
    194 H194       -3.3923  -18.0070  -44.6625 H         1 UNK         0.0600 
    195 H195       -2.1297  -21.7920  -45.3913 H         1 UNK         0.3000 
    196 H196       -4.2992  -23.6686  -45.4042 H         1 UNK         0.0600 
    197 H197       -2.5272  -25.3454  -45.0116 H         1 UNK         0.0600 
    198 H198       -2.2686  -23.9477  -43.9791 H         1 UNK         0.0600 
    199 H199       -1.2788  -24.1805  -45.4200 H         1 UNK         0.0600 
    200 H200       -1.6788  -22.9128  -47.7429 H         1 UNK         0.3000 
    201 H201       -2.3853  -24.8057  -49.7301 H         1 UNK         0.0600 
    202 H202       -0.2130  -23.6097  -49.6974 H         1 UNK         0.0600 
    203 H203       -1.0196  -22.0770  -50.0206 H         1 UNK         0.0600 
    204 H204       -1.0318  -23.3511  -51.2317 H         1 UNK         0.0600 
    205 H205       -3.4271  -21.3850  -49.2891 H         1 UNK         0.3000 
    206 H206       -5.1682  -21.2778  -51.5317 H         1 UNK         0.0600 
    207 H207       -4.3013  -19.2642  -50.3679 H         1 UNK         0.0600 
    208 H208       -6.0568  -19.2422  -50.4126 H         1 UNK         0.0600 
    209 H209       -5.2247  -19.6716  -48.9217 H         1 UNK         0.0600 
    210 H210       -5.8045  -22.2183  -48.1141 H         1 UNK         0.3000 
    211 H211       -8.6018  -22.6297  -48.3719 H         1 UNK         0.0600 
    212 H212       -6.5855  -23.9011  -46.4473 H         1 UNK         0.0600 
    213 H213       -8.3333  -23.9247  -46.2511 H         1 UNK         0.0600 
    214 H214       -7.4685  -22.3977  -46.1846 H         1 UNK         0.0600 
    215 H215       -5.8631  -24.7036  -49.1779 H         1 UNK         0.3000 
    216 H216       -7.4951  -27.0441  -49.8540 H         1 UNK         0.0600 
    217 H217       -5.3050  -28.0162  -50.4691 H         1 UNK         0.0600 
    218 H218       -5.1989  -27.2701  -48.8836 H         1 UNK         0.0600 
    219 H219       -4.5212  -26.4513  -50.2886 H         1 UNK         0.0600 
    220 H220       -7.5445  -24.2109  -51.2551 H         1 UNK         0.3000 
    221 H221       -8.1296  -23.3390  -53.1639 H         1 UNK         0.0600 
    222 H222       -8.1450  -26.1177  -54.4628 H         1 UNK         0.0600 
    223 H223       -9.5220  -25.2815  -53.7562 H         1 UNK         0.0600 
    224 H224       -8.7319  -24.6283  -55.1813 H         1 UNK         0.0600 
    225 H225       -6.0348  -25.8833  -54.5047 H         1 UNK         0.3000 
    226 H226       -4.1971  -25.8430  -55.8013 H         1 UNK         0.0600 
    227 H227       -3.2561  -23.9006  -53.6279 H         1 UNK         0.0600 
    228 H228       -2.2095  -24.8418  -54.6871 H         1 UNK         0.0600 
    229 H229       -3.2365  -25.6553  -53.5155 H         1 UNK         0.0600 
    230 H230       -5.9253  -24.5264  -57.1336 H         1 UNK         0.3000 
    231 H231       -6.4205  -23.1741  -58.7820 H         1 UNK         0.0600 
    232 H232       -4.0968  -23.4158  -59.6471 H         1 UNK         0.0600 
    233 H233       -3.5845  -22.0191  -58.7009 H         1 UNK         0.0600 
    234 H234       -4.7588  -21.8251  -59.9903 H         1 UNK         0.0600 
    235 H235       -4.6740  -21.5040  -56.2057 H         1 UNK         0.3000 
    236 H236       -6.8260  -19.9199  -55.3781 H         1 UNK         0.0600 
    237 H237       -6.4902  -18.4696  -57.3658 H         1 UNK         0.0600 
    238 H238       -5.9348  -17.6045  -55.9492 H         1 UNK         0.0600 
    239 H239       -4.7638  -18.3466  -57.0320 H         1 UNK         0.0600 
    240 H240       -3.3234  -20.4930  -55.4756 H         1 UNK         0.3000 
    241 H241       -3.0496  -19.8735  -52.6247 H         1 UNK         0.0600 
    242 H242       -0.7305  -22.6029  -54.3648 H         1 UNK         0.3800 
    243 H243       -2.2131  -22.0932  -55.1134 H         1 UNK         0.3800 
    244 H244       -1.4438  -18.3336  -54.7306 H         1 UNK         0.0800 
    245 H245       -2.8390  -17.6838  -53.9366 H         1 UNK         0.0800 
    246 H246        0.6363  -17.1433  -54.0544 H         1 UNK         0.0800 
    247 H247        0.8173  -18.8035  -53.5426 H         1 UNK         0.0800 
@<TRIPOS>BOND
     1    1    2 1    
     2    1  127 1    
     3    1  128 1    
     4    1  129 1    
     5    2    3 2    
     6    2    4 am   BACKBONE|DICT|INTERRES
     7    4    5 1    
     8    4  130 1    
     9    5    6 1    
    10    5   65 1    
    11    5  131 1    
    12    6    7 1    
    13    6  132 1    
    14    6  133 1    
    15    7    8 1    
    16    8    9 1    
    17    8  134 1    
    18    8  135 1    
    19    9   10 ar   
    20    9   14 ar   
    21   10   11 ar   
    22   10  136 1    
    23   11   12 ar   
    24   11  126 1    
    25   12   13 ar   
    26   12  137 1    
    27   13   14 ar   
    28   13   15 1    
    29   14  138 1    
    30   15   16 1    
    31   15  139 1    
    32   15  140 1    
    33   16   17 1    
    34   17   18 1    
    35   17  141 1    
    36   17  142 1    
    37   18   19 1    
    38   18   67 1    
    39   18  143 1    
    40   19   20 am   BACKBONE|DICT|INTERRES
    41   19  144 1    
    42   20   21 2    
    43   20   22 1    
    44   22   23 1    
    45   22   24 1    
    46   22  145 1    
    47   23  146 1    
    48   23  147 1    
    49   23  148 1    
    50   24   25 am   BACKBONE|DICT|INTERRES
    51   24  149 1    
    52   25   26 2    
    53   25   27 1    
    54   27   28 1    
    55   27   29 1    
    56   27  150 1    
    57   28  151 1    
    58   28  152 1    
    59   28  153 1    
    60   29   30 am   BACKBONE|DICT|INTERRES
    61   29  154 1    
    62   30   31 2    
    63   30   32 1    
    64   32   33 1    
    65   32   34 1    
    66   32  155 1    
    67   33  156 1    
    68   33  157 1    
    69   33  158 1    
    70   34   35 am   BACKBONE|DICT|INTERRES
    71   34  159 1    
    72   35   36 2    
    73   35   37 1    
    74   37   38 1    
    75   37   39 1    
    76   37  160 1    
    77   38  161 1    
    78   38  162 1    
    79   38  163 1    
    80   39   40 am   BACKBONE|DICT|INTERRES
    81   39  164 1    
    82   40   41 2    
    83   40   42 1    
    84   42   43 1    
    85   42   44 1    
    86   42  165 1    
    87   43  166 1    
    88   43  167 1    
    89   43  168 1    
    90   44   45 am   BACKBONE|DICT|INTERRES
    91   44  169 1    
    92   45   46 2    
    93   45   47 1    
    94   47   48 1    
    95   47   49 1    
    96   47  170 1    
    97   48  171 1    
    98   48  172 1    
    99   48  173 1    
   100   49   50 am   BACKBONE|DICT|INTERRES
   101   49  174 1    
   102   50   51 2    
   103   50   52 1    
   104   52   53 1    
   105   52   54 1    
   106   52  175 1    
   107   53  176 1    
   108   53  177 1    
   109   53  178 1    
   110   54   55 am   BACKBONE|DICT|INTERRES
   111   54  179 1    
   112   55   56 2    
   113   55   57 1    
   114   57   58 1    
   115   57   59 1    
   116   57  180 1    
   117   58  181 1    
   118   58  182 1    
   119   58  183 1    
   120   59   60 am   BACKBONE|DICT|INTERRES
   121   59  184 1    
   122   60   61 2    
   123   60   62 1    
   124   62   63 1    
   125   62   64 1    
   126   62  185 1    
   127   63  186 1    
   128   63  187 1    
   129   63  188 1    
   130   64   65 am   BACKBONE|DICT|INTERRES
   131   64  189 1    
   132   65   66 2    
   133   67   68 2    
   134   67   69 am   BACKBONE|DICT|INTERRES
   135   69   70 1    
   136   69  190 1    
   137   70   71 1    
   138   70   72 1    
   139   70  191 1    
   140   71  192 1    
   141   71  193 1    
   142   71  194 1    
   143   72   73 2    
   144   72   74 am   BACKBONE|DICT|INTERRES
   145   74   75 1    
   146   74  195 1    
   147   75   76 1    
   148   75   77 1    
   149   75  196 1    
   150   76  197 1    
   151   76  198 1    
   152   76  199 1    
   153   77   78 2    
   154   77   79 am   BACKBONE|DICT|INTERRES
   155   79   80 1    
   156   79  200 1    
   157   80   81 1    
   158   80   82 1    
   159   80  201 1    
   160   81  202 1    
   161   81  203 1    
   162   81  204 1    
   163   82   83 2    
   164   82   84 am   BACKBONE|DICT|INTERRES
   165   84   85 1    
   166   84  205 1    
   167   85   86 1    
   168   85   87 1    
   169   85  206 1    
   170   86  207 1    
   171   86  208 1    
   172   86  209 1    
   173   87   88 2    
   174   87   89 am   BACKBONE|DICT|INTERRES
   175   89   90 1    
   176   89  210 1    
   177   90   91 1    
   178   90   92 1    
   179   90  211 1    
   180   91  212 1    
   181   91  213 1    
   182   91  214 1    
   183   92   93 2    
   184   92   94 am   BACKBONE|DICT|INTERRES
   185   94   95 1    
   186   94  215 1    
   187   95   96 1    
   188   95   97 1    
   189   95  216 1    
   190   96  217 1    
   191   96  218 1    
   192   96  219 1    
   193   97   98 2    
   194   97   99 am   BACKBONE|DICT|INTERRES
   195   99  100 1    
   196   99  220 1    
   197  100  101 1    
   198  100  102 1    
   199  100  221 1    
   200  101  222 1    
   201  101  223 1    
   202  101  224 1    
   203  102  103 2    
   204  102  104 am   BACKBONE|DICT|INTERRES
   205  104  105 1    
   206  104  225 1    
   207  105  106 1    
   208  105  107 1    
   209  105  226 1    
   210  106  227 1    
   211  106  228 1    
   212  106  229 1    
   213  107  108 2    
   214  107  109 am   BACKBONE|DICT|INTERRES
   215  109  110 1    
   216  109  230 1    
   217  110  111 1    
   218  110  112 1    
   219  110  231 1    
   220  111  232 1    
   221  111  233 1    
   222  111  234 1    
   223  112  113 2    
   224  112  114 am   BACKBONE|DICT|INTERRES
   225  114  115 1    
   226  114  235 1    
   227  115  116 1    
   228  115  117 1    
   229  115  236 1    
   230  116  237 1    
   231  116  238 1    
   232  116  239 1    
   233  117  118 2    
   234  117  119 am   BACKBONE|DICT|INTERRES
   235  119  120 1    
   236  119  240 1    
   237  120  121 1    
   238  120  124 1    
   239  120  241 1    
   240  121  122 am   BACKBONE|DICT|INTERRES
   241  121  123 2    
   242  122  242 1    
   243  122  243 1    
   244  124  125 1    
   245  124  244 1    
   246  124  245 1    
   247  125  126 1    
   248  126  246 1    
   249  126  247 1    
@<TRIPOS>SUBSTRUCTURE
     1 UNK         1 GROUP             0       ****    0 ROOT    
