@<TRIPOS>MOLECULE
3R540
247   249    1
SMALL
USER_CHARGES


@<TRIPOS>ATOM
      1 CA          2.7367  -10.0518  -51.9128 C.3       0 UNK        -0.1800 
      2 C           3.1224  -11.3092  -51.1459 C.2       0 UNK         0.5000 
      3 O           4.2958  -11.6813  -51.1303 O.2       0 UNK        -0.5000 
      4 N           2.1425  -11.9603  -50.5107 N.am      1 UNK        -0.5000 
      5 CA          2.3286  -13.1616  -49.6951 C.3       1 UNK         0.1400 
      6 C6          2.5247  -14.4456  -50.5465 C.3       23 UNK        -0.0398 
      7 S7          3.0693  -15.8812  -49.5577 S.3       23 UNK        -0.2404 
      8 C8          1.4941  -16.7562  -49.2965 C.3       23 UNK        -0.0205 
      9 C9          1.3392  -17.9455  -50.2307 C.ar      23 UNK        -0.0193 
     10 C10         0.9602  -17.7639  -51.5628 C.ar      23 UNK        -0.1150 
     11 C11         0.7977  -18.8651  -52.4076 C.ar      23 UNK        -0.0193 
     12 C12         0.9833  -20.1547  -51.9016 C.ar      23 UNK        -0.1150 
     13 C13         1.3485  -20.3569  -50.5665 C.ar      23 UNK        -0.0193 
     14 C14         1.5418  -19.2388  -49.7447 C.ar      23 UNK        -0.1150 
     15 C15         1.4750  -21.7919  -50.0499 C.3       23 UNK        -0.0205 
     16 S16         2.6813  -22.0437  -48.7003 S.3       23 UNK        -0.2404 
     17 C17         1.7100  -21.5743  -47.2265 C.3       23 UNK        -0.0398 
     18 CA          1.1783  -22.7863  -46.4286 C.3       11 UNK         0.1400 
     19 N           0.8516  -22.4205  -45.0506 N.am      11 UNK        -0.5000 
     20 C           0.4979  -23.2804  -44.0859 C.2       10 UNK         0.5000 
     21 O           0.4760  -24.5034  -44.2301 O.2       10 UNK        -0.5000 
     22 CA          0.0398  -22.6592  -42.7530 C.3       10 UNK         0.1400 
     23 CB          1.2440  -22.2561  -41.8891 C.3       10 UNK        -0.1800 
     24 N          -0.8357  -21.5009  -42.9496 N.am      10 UNK        -0.5000 
     25 C          -2.0447  -21.5627  -43.5274 C.2       9 UNK         0.5000 
     26 O          -2.5657  -22.6108  -43.9100 O.2       9 UNK        -0.5000 
     27 CA         -2.7796  -20.2290  -43.7525 C.3       9 UNK         0.1400 
     28 CB         -3.4630  -19.7629  -42.4586 C.3       9 UNK        -0.1800 
     29 N          -1.9038  -19.1716  -44.2622 N.am      9 UNK        -0.5000 
     30 C          -1.2780  -19.2110  -45.4475 C.2       8 UNK         0.5000 
     31 O          -1.3983  -20.1341  -46.2488 O.2       8 UNK        -0.5000 
     32 CA         -0.3023  -18.0675  -45.7742 C.3       8 UNK         0.1400 
     33 CB         -1.0425  -16.8101  -46.2526 C.3       8 UNK        -0.1800 
     34 N           0.5563  -17.7268  -44.6440 N.am      8 UNK        -0.5000 
     35 C           1.4268  -18.5615  -44.0611 C.2       7 UNK         0.5000 
     36 O           1.6314  -19.7145  -44.4387 O.2       7 UNK        -0.5000 
     37 CA          2.1505  -18.0317  -42.8140 C.3       7 UNK         0.1400 
     38 CB          3.3373  -17.1383  -43.2056 C.3       7 UNK        -0.1800 
     39 N           1.2409  -17.2915  -41.9405 N.am      7 UNK        -0.5000 
     40 C           0.2585  -17.8545  -41.2236 C.2       6 UNK         0.5000 
     41 O           0.0380  -19.0663  -41.1954 O.2       6 UNK        -0.5000 
     42 CA         -0.6511  -16.8930  -40.4364 C.3       6 UNK         0.1400 
     43 CB          0.0180  -16.4630  -39.1223 C.3       6 UNK        -0.1800 
     44 N          -1.0198  -15.7037  -41.2085 N.am      6 UNK        -0.5000 
     45 C          -1.8066  -15.7304  -42.2929 C.2       5 UNK         0.5000 
     46 O          -2.3022  -16.7590  -42.7493 O.2       5 UNK        -0.5000 
     47 CA         -2.0611  -14.3938  -43.0121 C.3       5 UNK         0.1400 
     48 CB         -3.2131  -13.6311  -42.3418 C.3       5 UNK        -0.1800 
     49 N          -0.8975  -13.5104  -43.1189 N.am      5 UNK        -0.5000 
     50 C           0.2958  -13.8345  -43.6342 C.2       4 UNK         0.5000 
     51 O           0.6261  -14.9820  -43.9339 O.2       4 UNK        -0.5000 
     52 CA          1.2438  -12.6557  -43.9167 C.3       4 UNK         0.1400 
     53 CB          2.6700  -13.1122  -44.2727 C.3       4 UNK        -0.1800 
     54 N           0.6995  -11.8729  -45.0251 N.am      4 UNK        -0.5000 
     55 C          -0.2185  -10.9027  -44.8995 C.2       3 UNK         0.5000 
     56 O          -0.6159  -10.4853  -43.8107 O.2       3 UNK        -0.5000 
     57 CA         -0.8310  -10.3316  -46.1953 C.3       3 UNK         0.1400 
     58 CB         -0.0592   -9.0838  -46.6504 C.3       3 UNK        -0.1800 
     59 N          -0.8649  -11.2978  -47.2945 N.am      3 UNK        -0.5000 
     60 C          -1.5755  -12.4350  -47.3062 C.2       2 UNK         0.5000 
     61 O          -2.3792  -12.7456  -46.4269 O.2       2 UNK        -0.5000 
     62 CA         -1.3304  -13.4061  -48.4815 C.3       2 UNK         0.1400 
     63 CB         -2.5059  -13.3775  -49.4700 C.3       2 UNK        -0.1800 
     64 N          -0.0809  -13.1921  -49.2251 N.am      2 UNK        -0.5000 
     65 C           1.1555  -13.2839  -48.7080 C.2       1 UNK         0.5000 
     66 O           1.3815  -13.4291  -47.5072 O.2       1 UNK        -0.5000 
     67 C          -0.0244  -23.4384  -47.1378 C.2       11 UNK         0.5000 
     68 O           0.1339  -24.4983  -47.7393 O.2       11 UNK        -0.5000 
     69 N          -1.2068  -22.8159  -47.0299 N.am      12 UNK        -0.5000 
     70 CA         -2.4572  -23.2864  -47.6244 C.3       12 UNK         0.1400 
     71 CB         -3.5672  -22.2507  -47.3898 C.3       12 UNK        -0.1800 
     72 C          -2.8934  -24.6665  -47.1081 C.2       12 UNK         0.5000 
     73 O          -3.3392  -25.4969  -47.8999 O.2       12 UNK        -0.5000 
     74 N          -2.7183  -24.9008  -45.8003 N.am      13 UNK        -0.5000 
     75 CA         -2.9713  -26.1849  -45.1475 C.3       13 UNK         0.1400 
     76 CB         -2.8522  -26.0150  -43.6256 C.3       13 UNK        -0.1800 
     77 C          -2.0411  -27.3070  -45.6474 C.2       13 UNK         0.5000 
     78 O          -2.4925  -28.4429  -45.7970 O.2       13 UNK        -0.5000 
     79 N          -0.7720  -26.9690  -45.9142 N.am      14 UNK        -0.5000 
     80 CA          0.2238  -27.8831  -46.4730 C.3       14 UNK         0.1400 
     81 CB          1.6319  -27.3256  -46.2116 C.3       14 UNK        -0.1800 
     82 C           0.0027  -28.1421  -47.9754 C.2       14 UNK         0.5000 
     83 O           0.0959  -29.2889  -48.4150 O.2       14 UNK        -0.5000 
     84 N          -0.2850  -27.0752  -48.7329 N.am      15 UNK        -0.5000 
     85 CA         -0.5095  -27.1026  -50.1795 C.3       15 UNK         0.1400 
     86 CB         -0.4374  -25.6658  -50.7229 C.3       15 UNK        -0.1800 
     87 C          -1.8451  -27.7513  -50.5868 C.2       15 UNK         0.5000 
     88 O          -1.9407  -28.2774  -51.6962 O.2       15 UNK        -0.5000 
     89 N          -2.8459  -27.6790  -49.6969 N.am      16 UNK        -0.5000 
     90 CA         -4.2424  -28.0829  -49.8897 C.3       16 UNK         0.1400 
     91 CB         -4.3624  -29.6039  -50.1208 C.3       16 UNK        -0.1800 
     92 C          -4.9505  -27.2359  -50.9700 C.2       16 UNK         0.5000 
     93 O          -5.7607  -27.7548  -51.7405 O.2       16 UNK        -0.5000 
     94 N          -4.6277  -25.9385  -51.0003 N.am      17 UNK        -0.5000 
     95 CA         -5.1694  -24.9322  -51.9061 C.3       17 UNK         0.1400 
     96 CB         -4.4042  -24.9603  -53.2402 C.3       17 UNK        -0.1800 
     97 C          -5.0358  -23.5670  -51.2211 C.2       17 UNK         0.5000 
     98 O          -4.0921  -23.3696  -50.4549 O.2       17 UNK        -0.5000 
     99 N          -5.9770  -22.6554  -51.4901 N.am      18 UNK        -0.5000 
    100 CA        -6.0390  -21.3307  -50.8732 C.3       18 UNK         0.1400 
    101 CB        -7.3957  -20.6835  -51.1974 C.3       18 UNK        -0.1800 
    102 C         -4.8825  -20.4198  -51.3233 C.2       18 UNK         0.5000 
    103 O         -4.8064  -20.0715  -52.5020 O.2       18 UNK        -0.5000 
    104 N         -4.0394  -20.0052  -50.3687 N.am      19 UNK        -0.5000 
    105 CA        -2.9381  -19.0587  -50.5774 C.3       19 UNK         0.1400 
    106 CB        -2.0859  -18.9963  -49.3031 C.3       19 UNK        -0.1800 
    107 C         -3.4214  -17.6490  -50.9724 C.2       19 UNK         0.5000 
    108 O         -2.7310  -16.9413  -51.7052 O.2       19 UNK        -0.5000 
    109 N         -4.6276  -17.2793  -50.5201 N.am      20 UNK        -0.5000 
    110 CA        -5.3033  -16.0234  -50.8519 C.3       20 UNK         0.1400 
    111 CB        -6.5486  -15.8833  -49.9635 C.3       20 UNK        -0.1800 
    112 C         -5.6835  -15.8901  -52.3415 C.2       20 UNK         0.5000 
    113 O         -5.8896  -14.7698  -52.8088 O.2       20 UNK        -0.5000 
    114 N         -5.7647  -17.0186  -53.0616 N.am      21 UNK        -0.5000 
    115 CA        -6.0566  -17.0634  -54.4943 C.3       21 UNK         0.1400 
    116 CB        -6.6925  -18.4216  -54.8318 C.3       21 UNK        -0.1800 
    117 C         -4.8157  -16.8113  -55.3748 C.2       21 UNK         0.5000 
    118 O         -4.9809  -16.5951  -56.5765 O.2       21 UNK        -0.5000 
    119 N         -3.6111  -16.8521  -54.7893 N.am      22 UNK        -0.5000 
    120 CA        -2.3276  -16.6963  -55.4933 C.3       22 UNK         0.1400 
    121 C         -1.3843  -15.6303  -54.8695 C.2       22 UNK         0.5000 
    122 N         -1.4865  -15.3024  -53.5879 N.am      22 UNK        -0.7600 
    123 O         -0.5504  -15.0684  -55.5742 O.2       22 UNK        -0.5000 
    124 C124       -1.6152  -18.0585  -55.7059 C.3       23 UNK        -0.0398 
    125 S125       -1.3331  -18.9931  -54.1606 S.3       23 UNK        -0.2404 
    126 C126        0.4294  -18.6600  -53.8678 C.3       23 UNK        -0.0205 
    127 H127        3.2777   -9.1914  -51.5188 H         1 UNK         0.0600 
    128 H128        1.6689   -9.8435  -51.8420 H         1 UNK         0.0600 
    129 H129        2.9919  -10.1626  -52.9668 H         1 UNK         0.0600 
    130 H130        1.2076  -11.5790  -50.5290 H         1 UNK         0.3000 
    131 H131        3.2274  -13.0128  -49.0917 H         1 UNK         0.0600 
    132 H132        3.2979  -14.2741  -51.2960 H         1 UNK         0.0800 
    133 H133        1.6230  -14.6885  -51.1098 H         1 UNK         0.0800 
    134 H134        1.4621  -17.0849  -48.2574 H         1 UNK         0.0800 
    135 H135        0.6436  -16.0851  -49.4185 H         1 UNK         0.0800 
    136 H136        0.7945  -16.7669  -51.9444 H         1 UNK         0.1150 
    137 H137        0.8320  -21.0043  -52.5527 H         1 UNK         0.1150 
    138 H138        1.8386  -19.3563  -48.7156 H         1 UNK         0.1150 
    139 H139        0.4904  -22.1406  -49.7367 H         1 UNK         0.0800 
    140 H140        1.7762  -22.4429  -50.8720 H         1 UNK         0.0800 
    141 H141        0.8934  -20.9027  -47.4932 H         1 UNK         0.0800 
    142 H142        2.3836  -20.9889  -46.6001 H         1 UNK         0.0800 
    143 H143        1.9726  -23.5338  -46.3710 H         1 UNK         0.0600 
    144 H144        0.8904  -21.4298  -44.8257 H         1 UNK         0.3000 
    145 H145       -0.5275  -23.4190  -42.2113 H         1 UNK         0.0600 
    146 H146        0.9227  -21.8802  -40.9176 H         1 UNK         0.0600 
    147 H147        1.8978  -23.1102  -41.7085 H         1 UNK         0.0600 
    148 H148        1.8422  -21.4791  -42.3654 H         1 UNK         0.0600 
    149 H149       -0.4867  -20.6032  -42.6340 H         1 UNK         0.3000 
    150 H150       -3.5567  -20.4030  -44.4993 H         1 UNK         0.0600 
    151 H151       -4.1125  -20.5412  -42.0558 H         1 UNK         0.0600 
    152 H152       -4.0825  -18.8838  -42.6363 H         1 UNK         0.0600 
    153 H153       -2.7349  -19.5087  -41.6874 H         1 UNK         0.0600 
    154 H154       -1.7978  -18.3497  -43.6735 H         1 UNK         0.3000 
    155 H155        0.3433  -18.4107  -46.5845 H         1 UNK         0.0600 
    156 H156       -0.3398  -16.0135  -46.4986 H         1 UNK         0.0600 
    157 H157       -1.6317  -17.0132  -47.1461 H         1 UNK         0.0600 
    158 H158       -1.7227  -16.4301  -45.4912 H         1 UNK         0.0600 
    159 H159        0.4862  -16.7753  -44.2882 H         1 UNK         0.3000 
    160 H160        2.5379  -18.8893  -42.2597 H         1 UNK         0.0600 
    161 H161        3.0176  -16.2633  -43.7722 H         1 UNK         0.0600 
    162 H162        4.0477  -17.6867  -43.8254 H         1 UNK         0.0600 
    163 H163        3.8761  -16.7893  -42.3247 H         1 UNK         0.0600 
    164 H164        1.3030  -16.2841  -41.9709 H         1 UNK         0.3000 
    165 H165       -1.5673  -17.4337  -40.1889 H         1 UNK         0.0600 
    166 H166       -0.6537  -15.8506  -38.5204 H         1 UNK         0.0600 
    167 H167        0.2904  -17.3316  -38.5213 H         1 UNK         0.0600 
    168 H168        0.9277  -15.8883  -39.3004 H         1 UNK         0.0600 
    169 H169       -0.6433  -14.8179  -40.9044 H         1 UNK         0.3000 
    170 H170       -2.3688  -14.6304  -44.0322 H         1 UNK         0.0600 
    171 H171       -4.1046  -14.2554  -42.2662 H         1 UNK         0.0600 
    172 H172       -2.9501  -13.3088  -41.3336 H         1 UNK         0.0600 
    173 H173       -3.4863  -12.7463  -42.9174 H         1 UNK         0.0600 
    174 H174       -1.0702  -12.5290  -42.9415 H         1 UNK         0.3000 
    175 H175        1.3037  -12.0415  -43.0159 H         1 UNK         0.0600 
    176 H176        3.1125  -13.6787  -43.4527 H         1 UNK         0.0600 
    177 H177        2.6847  -13.7502  -45.1572 H         1 UNK         0.0600 
    178 H178        3.3193  -12.2586  -44.4665 H         1 UNK         0.0600 
    179 H179        0.9214  -12.2203  -45.9530 H         1 UNK         0.3000 
    180 H180       -1.8592  -10.0386  -45.9731 H         1 UNK         0.0600 
    181 H181        0.9736   -9.3212  -46.9088 H         1 UNK         0.0600 
    182 H182       -0.0355   -8.3304  -45.8619 H         1 UNK         0.0600 
    183 H183       -0.5276   -8.6254  -47.5216 H         1 UNK         0.0600 
    184 H184       -0.2349  -11.1272  -48.0630 H         1 UNK         0.3000 
    185 H185       -1.2820  -14.4082  -48.0526 H         1 UNK         0.0600 
    186 H186       -3.4508  -13.5729  -48.9609 H         1 UNK         0.0600 
    187 H187       -2.5927  -12.4089  -49.9635 H         1 UNK         0.0600 
    188 H188       -2.3909  -14.1402  -50.2409 H         1 UNK         0.0600 
    189 H189       -0.1851  -13.0788  -50.2224 H         1 UNK         0.3000 
    190 H190       -1.2504  -21.9166  -46.5542 H         1 UNK         0.3000 
    191 H191       -2.2809  -23.3731  -48.6967 H         1 UNK         0.0600 
    192 H192       -3.7563  -22.0969  -46.3277 H         1 UNK         0.0600 
    193 H193       -4.5042  -22.5719  -47.8460 H         1 UNK         0.0600 
    194 H194       -3.3046  -21.2882  -47.8246 H         1 UNK         0.0600 
    195 H195       -2.3977  -24.1408  -45.2079 H         1 UNK         0.3000 
    196 H196       -3.9975  -26.4786  -45.3778 H         1 UNK         0.0600 
    197 H197       -3.0574  -26.9538  -43.1098 H         1 UNK         0.0600 
    198 H198       -3.5641  -25.2772  -43.2550 H         1 UNK         0.0600 
    199 H199       -1.8531  -25.6901  -43.3336 H         1 UNK         0.0600 
    200 H200       -0.4768  -26.0141  -45.7524 H         1 UNK         0.3000 
    201 H201        0.1427  -28.8406  -45.9539 H         1 UNK         0.0600 
    202 H202        1.8112  -27.1957  -45.1441 H         1 UNK         0.0600 
    203 H203        1.7828  -26.3594  -46.6935 H         1 UNK         0.0600 
    204 H204        2.3966  -28.0046  -46.5907 H         1 UNK         0.0600 
    205 H205       -0.2770  -26.1543  -48.2968 H         1 UNK         0.3000 
    206 H206        0.2943  -27.6825  -50.6376 H         1 UNK         0.0600 
    207 H207        0.5277  -25.2081  -50.5042 H         1 UNK         0.0600 
    208 H208       -0.5683  -25.6483  -51.8056 H         1 UNK         0.0600 
    209 H209       -1.2131  -25.0335  -50.2887 H         1 UNK         0.0600 
    210 H210       -2.6754  -27.1500  -48.8478 H         1 UNK         0.3000 
    211 H211       -4.7498  -27.8561  -48.9509 H         1 UNK         0.0600 
    212 H212       -3.9465  -29.9052  -51.0824 H         1 UNK         0.0600 
    213 H213       -5.4065  -29.9181  -50.1057 H         1 UNK         0.0600 
    214 H214       -3.8447  -30.1621  -49.3407 H         1 UNK         0.0600 
    215 H215       -3.9985  -25.5679  -50.2962 H         1 UNK         0.3000 
    216 H216       -6.2277  -25.1350  -52.0831 H         1 UNK         0.0600 
    217 H217       -3.3392  -24.7748  -53.0938 H         1 UNK         0.0600 
    218 H218       -4.7811  -24.1987  -53.9238 H         1 UNK         0.0600 
    219 H219       -4.5099  -25.9249  -53.7369 H         1 UNK         0.0600 
    220 H220       -6.6996  -22.8733  -52.1605 H         1 UNK         0.3000 
    221 H221       -5.9837  -21.4614  -49.7902 H         1 UNK         0.0600 
    222 H222       -8.2209  -21.2823  -50.8115 H         1 UNK         0.0600 
    223 H223       -7.5409  -20.5659  -52.2722 H         1 UNK         0.0600 
    224 H224       -7.4752  -19.6934  -50.7464 H         1 UNK         0.0600 
    225 H225       -4.1534  -20.3596  -49.4313 H         1 UNK         0.3000 
    226 H226       -2.3120  -19.4331  -51.3890 H         1 UNK         0.0600 
    227 H227       -1.5789  -19.9443  -49.1209 H         1 UNK         0.0600 
    228 H228       -1.3166  -18.2288  -49.3825 H         1 UNK         0.0600 
    229 H229       -2.6908  -18.7640  -48.4264 H         1 UNK         0.0600 
    230 H230       -5.1303  -17.9187  -49.9233 H         1 UNK         0.3000 
    231 H231       -4.6221  -15.2036  -50.6182 H         1 UNK         0.0600 
    232 H232       -7.2603  -16.6911  -50.1386 H         1 UNK         0.0600 
    233 H233       -7.0650  -14.9425  -50.1590 H         1 UNK         0.0600 
    234 H234       -6.2824  -15.8914  -48.9064 H         1 UNK         0.0600 
    235 H235       -5.5505  -17.9041  -52.6212 H         1 UNK         0.3000 
    236 H236       -6.7873  -16.2868  -54.7302 H         1 UNK         0.0600 
    237 H237       -7.5643  -18.6184  -54.2077 H         1 UNK         0.0600 
    238 H238       -7.0244  -18.4481  -55.8704 H         1 UNK         0.0600 
    239 H239       -5.9880  -19.2422  -54.6959 H         1 UNK         0.0600 
    240 H240       -3.5487  -17.0294  -53.7958 H         1 UNK         0.3000 
    241 H241       -2.5304  -16.3045  -56.4917 H         1 UNK         0.0600 
    242 H242       -0.8793  -14.5875  -53.2256 H         1 UNK         0.3800 
    243 H243       -2.0639  -15.8397  -52.9441 H         1 UNK         0.3800 
    244 H244       -0.6737  -17.9269  -56.2420 H         1 UNK         0.0800 
    245 H245       -2.2312  -18.6829  -56.3540 H         1 UNK         0.0800 
    246 H246        1.0305  -19.3161  -54.4989 H         1 UNK         0.0800 
    247 H247        0.6707  -17.6397  -54.1686 H         1 UNK         0.0800 
@<TRIPOS>BOND
     1    1    2 1    
     2    1  127 1    
     3    1  128 1    
     4    1  129 1    
     5    2    3 2    
     6    2    4 am   BACKBONE|DICT|INTERRES
     7    4    5 1    
     8    4  130 1    
     9    5    6 1    
    10    5   65 1    
    11    5  131 1    
    12    6    7 1    
    13    6  132 1    
    14    6  133 1    
    15    7    8 1    
    16    8    9 1    
    17    8  134 1    
    18    8  135 1    
    19    9   10 ar   
    20    9   14 ar   
    21   10   11 ar   
    22   10  136 1    
    23   11   12 ar   
    24   11  126 1    
    25   12   13 ar   
    26   12  137 1    
    27   13   14 ar   
    28   13   15 1    
    29   14  138 1    
    30   15   16 1    
    31   15  139 1    
    32   15  140 1    
    33   16   17 1    
    34   17   18 1    
    35   17  141 1    
    36   17  142 1    
    37   18   19 1    
    38   18   67 1    
    39   18  143 1    
    40   19   20 am   BACKBONE|DICT|INTERRES
    41   19  144 1    
    42   20   21 2    
    43   20   22 1    
    44   22   23 1    
    45   22   24 1    
    46   22  145 1    
    47   23  146 1    
    48   23  147 1    
    49   23  148 1    
    50   24   25 am   BACKBONE|DICT|INTERRES
    51   24  149 1    
    52   25   26 2    
    53   25   27 1    
    54   27   28 1    
    55   27   29 1    
    56   27  150 1    
    57   28  151 1    
    58   28  152 1    
    59   28  153 1    
    60   29   30 am   BACKBONE|DICT|INTERRES
    61   29  154 1    
    62   30   31 2    
    63   30   32 1    
    64   32   33 1    
    65   32   34 1    
    66   32  155 1    
    67   33  156 1    
    68   33  157 1    
    69   33  158 1    
    70   34   35 am   BACKBONE|DICT|INTERRES
    71   34  159 1    
    72   35   36 2    
    73   35   37 1    
    74   37   38 1    
    75   37   39 1    
    76   37  160 1    
    77   38  161 1    
    78   38  162 1    
    79   38  163 1    
    80   39   40 am   BACKBONE|DICT|INTERRES
    81   39  164 1    
    82   40   41 2    
    83   40   42 1    
    84   42   43 1    
    85   42   44 1    
    86   42  165 1    
    87   43  166 1    
    88   43  167 1    
    89   43  168 1    
    90   44   45 am   BACKBONE|DICT|INTERRES
    91   44  169 1    
    92   45   46 2    
    93   45   47 1    
    94   47   48 1    
    95   47   49 1    
    96   47  170 1    
    97   48  171 1    
    98   48  172 1    
    99   48  173 1    
   100   49   50 am   BACKBONE|DICT|INTERRES
   101   49  174 1    
   102   50   51 2    
   103   50   52 1    
   104   52   53 1    
   105   52   54 1    
   106   52  175 1    
   107   53  176 1    
   108   53  177 1    
   109   53  178 1    
   110   54   55 am   BACKBONE|DICT|INTERRES
   111   54  179 1    
   112   55   56 2    
   113   55   57 1    
   114   57   58 1    
   115   57   59 1    
   116   57  180 1    
   117   58  181 1    
   118   58  182 1    
   119   58  183 1    
   120   59   60 am   BACKBONE|DICT|INTERRES
   121   59  184 1    
   122   60   61 2    
   123   60   62 1    
   124   62   63 1    
   125   62   64 1    
   126   62  185 1    
   127   63  186 1    
   128   63  187 1    
   129   63  188 1    
   130   64   65 am   BACKBONE|DICT|INTERRES
   131   64  189 1    
   132   65   66 2    
   133   67   68 2    
   134   67   69 am   BACKBONE|DICT|INTERRES
   135   69   70 1    
   136   69  190 1    
   137   70   71 1    
   138   70   72 1    
   139   70  191 1    
   140   71  192 1    
   141   71  193 1    
   142   71  194 1    
   143   72   73 2    
   144   72   74 am   BACKBONE|DICT|INTERRES
   145   74   75 1    
   146   74  195 1    
   147   75   76 1    
   148   75   77 1    
   149   75  196 1    
   150   76  197 1    
   151   76  198 1    
   152   76  199 1    
   153   77   78 2    
   154   77   79 am   BACKBONE|DICT|INTERRES
   155   79   80 1    
   156   79  200 1    
   157   80   81 1    
   158   80   82 1    
   159   80  201 1    
   160   81  202 1    
   161   81  203 1    
   162   81  204 1    
   163   82   83 2    
   164   82   84 am   BACKBONE|DICT|INTERRES
   165   84   85 1    
   166   84  205 1    
   167   85   86 1    
   168   85   87 1    
   169   85  206 1    
   170   86  207 1    
   171   86  208 1    
   172   86  209 1    
   173   87   88 2    
   174   87   89 am   BACKBONE|DICT|INTERRES
   175   89   90 1    
   176   89  210 1    
   177   90   91 1    
   178   90   92 1    
   179   90  211 1    
   180   91  212 1    
   181   91  213 1    
   182   91  214 1    
   183   92   93 2    
   184   92   94 am   BACKBONE|DICT|INTERRES
   185   94   95 1    
   186   94  215 1    
   187   95   96 1    
   188   95   97 1    
   189   95  216 1    
   190   96  217 1    
   191   96  218 1    
   192   96  219 1    
   193   97   98 2    
   194   97   99 am   BACKBONE|DICT|INTERRES
   195   99  100 1    
   196   99  220 1    
   197  100  101 1    
   198  100  102 1    
   199  100  221 1    
   200  101  222 1    
   201  101  223 1    
   202  101  224 1    
   203  102  103 2    
   204  102  104 am   BACKBONE|DICT|INTERRES
   205  104  105 1    
   206  104  225 1    
   207  105  106 1    
   208  105  107 1    
   209  105  226 1    
   210  106  227 1    
   211  106  228 1    
   212  106  229 1    
   213  107  108 2    
   214  107  109 am   BACKBONE|DICT|INTERRES
   215  109  110 1    
   216  109  230 1    
   217  110  111 1    
   218  110  112 1    
   219  110  231 1    
   220  111  232 1    
   221  111  233 1    
   222  111  234 1    
   223  112  113 2    
   224  112  114 am   BACKBONE|DICT|INTERRES
   225  114  115 1    
   226  114  235 1    
   227  115  116 1    
   228  115  117 1    
   229  115  236 1    
   230  116  237 1    
   231  116  238 1    
   232  116  239 1    
   233  117  118 2    
   234  117  119 am   BACKBONE|DICT|INTERRES
   235  119  120 1    
   236  119  240 1    
   237  120  121 1    
   238  120  124 1    
   239  120  241 1    
   240  121  122 am   BACKBONE|DICT|INTERRES
   241  121  123 2    
   242  122  242 1    
   243  122  243 1    
   244  124  125 1    
   245  124  244 1    
   246  124  245 1    
   247  125  126 1    
   248  126  246 1    
   249  126  247 1    
@<TRIPOS>SUBSTRUCTURE
     1 UNK         1 GROUP             0       ****    0 ROOT    
