@<TRIPOS>MOLECULE
3R540
247   249    1
SMALL
USER_CHARGES


@<TRIPOS>ATOM
      1 CA         -0.2376  -15.8749  -53.1770 C.3       0 UNK        -0.1800 
      2 C          -0.2998  -14.9311  -51.9867 C.2       0 UNK         0.5000 
      3 O          -0.9372  -13.8813  -52.0673 O.2       0 UNK        -0.5000 
      4 N           0.3695  -15.2972  -50.8890 N.am      1 UNK        -0.5000 
      5 CA          0.3841  -14.5539  -49.6286 C.3       1 UNK         0.1400 
      6 C6          1.6656  -14.8366  -48.8026 C.3       23 UNK        -0.0398 
      7 S7          2.0166  -16.6099  -48.5280 S.3       23 UNK        -0.2404 
      8 C8          3.2030  -16.9791  -49.8654 C.3       23 UNK        -0.0205 
      9 C9          2.7882  -18.2073  -50.6640 C.ar      23 UNK        -0.0193 
     10 C10         2.5959  -18.1327  -52.0467 C.ar      23 UNK        -0.1150 
     11 C11         2.2430  -19.2728  -52.7765 C.ar      23 UNK        -0.0193 
     12 C12         2.0592  -20.4858  -52.1073 C.ar      23 UNK        -0.1150 
     13 C13         2.2435  -20.5780  -50.7245 C.ar      23 UNK        -0.0193 
     14 C14         2.6223  -19.4327  -50.0159 C.ar      23 UNK        -0.1150 
     15 C15         1.9945  -21.9203  -50.0403 C.3       23 UNK        -0.0205 
     16 S16         2.9783  -22.2352  -48.5329 S.3       23 UNK        -0.2404 
     17 C17         1.9735  -21.4655  -47.2143 C.3       23 UNK        -0.0398 
     18 CA          0.9668  -22.4632  -46.5880 C.3       11 UNK         0.1400 
     19 N           0.8779  -22.3507  -45.1297 N.am      11 UNK        -0.5000 
     20 C           0.2327  -23.2302  -44.3488 C.2       10 UNK         0.5000 
     21 O          -0.3076  -24.2513  -44.7736 O.2       10 UNK        -0.5000 
     22 CA          0.1182  -22.8835  -42.8543 C.3       10 UNK         0.1400 
     23 CB          1.4090  -23.2448  -42.1049 C.3       10 UNK        -0.1800 
     24 N          -0.2080  -21.4742  -42.6360 N.am      10 UNK        -0.5000 
     25 C          -1.3457  -20.8909  -43.0402 C.2       9 UNK         0.5000 
     26 O          -2.2704  -21.4992  -43.5790 O.2       9 UNK        -0.5000 
     27 CA         -1.4473  -19.3660  -42.8606 C.3       9 UNK         0.1400 
     28 CB         -1.8328  -19.0108  -41.4169 C.3       9 UNK        -0.1800 
     29 N          -0.2116  -18.6712  -43.2223 N.am      9 UNK        -0.5000 
     30 C           0.3392  -18.6632  -44.4447 C.2       8 UNK         0.5000 
     31 O          -0.1608  -19.2120  -45.4234 O.2       8 UNK        -0.5000 
     32 CA          1.7102  -17.9820  -44.5838 C.3       8 UNK         0.1400 
     33 CB          1.5629  -16.4623  -44.7331 C.3       8 UNK        -0.1800 
     34 N           2.5828  -18.2857  -43.4511 N.am      8 UNK        -0.5000 
     35 C           3.1080  -19.4947  -43.2095 C.2       7 UNK         0.5000 
     36 O           2.9363  -20.4732  -43.9368 O.2       7 UNK        -0.5000 
     37 CA          3.9250  -19.6400  -41.9132 C.3       7 UNK         0.1400 
     38 CB          5.3574  -19.1224  -42.1117 C.3       7 UNK        -0.1800 
     39 N           3.3065  -18.9427  -40.7839 N.am      7 UNK        -0.5000 
     40 C           2.1435  -19.3037  -40.2240 C.2       6 UNK         0.5000 
     41 O           1.4860  -20.2789  -40.5851 O.2       6 UNK        -0.5000 
     42 CA          1.6013  -18.3982  -39.1027 C.3       6 UNK         0.1400 
     43 CB          2.2125  -18.7911  -37.7496 C.3       6 UNK        -0.1800 
     44 N           1.8177  -16.9668  -39.3380 N.am      6 UNK        -0.5000 
     45 C           1.3343  -16.2837  -40.3831 C.2       5 UNK         0.5000 
     46 O           0.7129  -16.8020  -41.3144 O.2       5 UNK        -0.5000 
     47 CA          1.6172  -14.7775  -40.4132 C.3       5 UNK         0.1400 
     48 CB          3.0058  -14.4991  -41.0108 C.3       5 UNK        -0.1800 
     49 N           0.6031  -14.1440  -41.2471 N.am      5 UNK        -0.5000 
     50 C          -0.0678  -13.0234  -40.9637 C.2       4 UNK         0.5000 
     51 O           0.1480  -12.3307  -39.9682 O.2       4 UNK        -0.5000 
     52 CA         -1.1641  -12.5959  -41.9596 C.3       4 UNK         0.1400 
     53 CB         -0.6913  -11.3968  -42.7966 C.3       4 UNK        -0.1800 
     54 N          -1.5603  -13.6683  -42.8742 N.am      4 UNK        -0.5000 
     55 C          -2.4261  -14.6517  -42.6054 C.2       3 UNK         0.5000 
     56 O          -3.0010  -14.7622  -41.5216 O.2       3 UNK        -0.5000 
     57 CA         -2.6985  -15.6675  -43.7436 C.3       3 UNK         0.1400 
     58 CB         -3.8986  -16.5843  -43.4420 C.3       3 UNK        -0.1800 
     59 N          -2.9225  -15.0473  -45.0554 N.am      3 UNK        -0.5000 
     60 C          -1.9980  -14.4682  -45.8301 C.2       2 UNK         0.5000 
     61 O          -0.8185  -14.3316  -45.4969 O.2       2 UNK        -0.5000 
     62 CA         -2.4877  -13.8880  -47.1679 C.3       2 UNK         0.1400 
     63 CB         -3.0835  -12.4874  -46.9577 C.3       2 UNK        -0.1800 
     64 N          -1.3835  -13.7906  -48.1200 N.am      2 UNK        -0.5000 
     65 C          -0.8989  -14.8250  -48.8163 C.2       1 UNK         0.5000 
     66 O          -1.4186  -15.9439  -48.8272 O.2       1 UNK        -0.5000 
     67 C          -0.4182  -22.3486  -47.2554 C.2       11 UNK         0.5000 
     68 O          -0.7240  -23.1404  -48.1435 O.2       11 UNK        -0.5000 
     69 N          -1.2444  -21.3978  -46.7980 N.am      12 UNK        -0.5000 
     70 CA         -2.6112  -21.1898  -47.2744 C.3       12 UNK         0.1400 
     71 CB         -3.1886  -19.8993  -46.6734 C.3       12 UNK        -0.1800 
     72 C          -3.5346  -22.3916  -47.0059 C.2       12 UNK         0.5000 
     73 O          -4.3632  -22.7218  -47.8530 O.2       12 UNK        -0.5000 
     74 N          -3.3532  -23.0527  -45.8558 N.am      13 UNK        -0.5000 
     75 CA         -4.0344  -24.3009  -45.5178 C.3       13 UNK         0.1400 
     76 CB         -3.8382  -24.6013  -44.0239 C.3       13 UNK        -0.1800 
     77 C          -3.5617  -25.4850  -46.3848 C.2       13 UNK         0.5000 
     78 O          -4.3890  -26.2914  -46.8116 O.2       13 UNK        -0.5000 
     79 N          -2.2462  -25.5732  -46.6218 N.am      14 UNK        -0.5000 
     80 CA         -1.6096  -26.6672  -47.3537 C.3       14 UNK         0.1400 
     81 CB         -0.1180  -26.7156  -46.9866 C.3       14 UNK        -0.1800 
     82 C          -1.7756  -26.5807  -48.8821 C.2       14 UNK         0.5000 
     83 O          -2.0078  -27.6094  -49.5190 O.2       14 UNK        -0.5000 
     84 N          -1.6108  -25.3792  -49.4481 N.am      15 UNK        -0.5000 
     85 CA         -1.4434  -25.1511  -50.8839 C.3       15 UNK         0.1400 
     86 CB          0.0509  -25.2617  -51.2436 C.3       15 UNK        -0.1800 
     87 C          -2.0746  -23.8239  -51.3434 C.2       15 UNK         0.5000 
     88 O          -1.5515  -23.1786  -52.2538 O.2       15 UNK        -0.5000 
     89 N          -3.2056  -23.4548  -50.7264 N.am      16 UNK        -0.5000 
     90 CA         -4.1307  -22.3649  -51.0718 C.3       16 UNK         0.1400 
     91 CB         -4.7132  -22.5655  -52.4818 C.3       16 UNK        -0.1800 
     92 C          -3.5867  -20.9331  -50.8964 C.2       16 UNK         0.5000 
     93 O          -4.2661  -20.1066  -50.2864 O.2       16 UNK        -0.5000 
     94 N          -2.3838  -20.6575  -51.4149 N.am      17 UNK        -0.5000 
     95 CA         -1.7077  -19.3576  -51.4456 C.3       17 UNK         0.1400 
     96 CB         -1.1572  -19.0091  -50.0475 C.3       17 UNK        -0.1800 
     97 C          -2.6111  -18.2684  -52.0697 C.2       17 UNK         0.5000 
     98 O          -2.8689  -18.3244  -53.2707 O.2       17 UNK        -0.5000 
     99 N          -3.0993  -17.3129  -51.2670 N.am      18 UNK        -0.5000 
    100 CA        -4.0315  -16.2685  -51.7017 C.3       18 UNK         0.1400 
    101 CB        -4.1205  -15.1821  -50.6190 C.3       18 UNK        -0.1800 
    102 C         -5.4488  -16.7663  -52.0572 C.2       18 UNK         0.5000 
    103 O         -6.1695  -16.0420  -52.7466 O.2       18 UNK        -0.5000 
    104 N         -5.8515  -17.9534  -51.5786 N.am      19 UNK        -0.5000 
    105 CA        -7.1984  -18.5087  -51.7449 C.3       19 UNK         0.1400 
    106 CB        -7.4417  -19.5884  -50.6747 C.3       19 UNK        -0.1800 
    107 C         -7.4492  -19.0312  -53.1754 C.2       19 UNK         0.5000 
    108 O         -7.4604  -20.2420  -53.3981 O.2       19 UNK        -0.5000 
    109 N         -7.6528  -18.0941  -54.1117 N.am      20 UNK        -0.5000 
    110 CA        -7.8943  -18.2990  -55.5452 C.3       20 UNK         0.1400 
    111 CB        -9.2043  -19.0789  -55.7895 C.3       20 UNK        -0.1800 
    112 C         -6.6722  -18.9020  -56.2698 C.2       20 UNK         0.5000 
    113 O         -6.8233  -19.8010  -57.0996 O.2       20 UNK        -0.5000 
    114 N         -5.4916  -18.3559  -55.9423 N.am      21 UNK        -0.5000 
    115 CA        -4.1482  -18.7159  -56.4103 C.3       21 UNK         0.1400 
    116 CB        -4.0480  -18.6786  -57.9498 C.3       21 UNK        -0.1800 
    117 C         -3.6311  -20.0486  -55.8332 C.2       21 UNK         0.5000 
    118 O         -4.4007  -20.8674  -55.3288 O.2       21 UNK        -0.5000 
    119 N         -2.3073  -20.2186  -55.9118 N.am      22 UNK        -0.5000 
    120 CA        -1.4798  -21.2542  -55.2640 C.3       22 UNK         0.1400 
    121 C         -1.7119  -22.7246  -55.7446 C.2       22 UNK         0.5000 
    122 N         -2.9096  -23.0984  -56.1696 N.am      22 UNK        -0.7600 
    123 O         -0.7945  -23.5415  -55.7466 O.2       22 UNK        -0.5000 
    124 C124        0.0247  -20.8593  -55.3050 C.3       23 UNK        -0.0398 
    125 S125        0.3521  -19.1296  -54.8052 S.3       23 UNK        -0.2404 
    126 C126        2.0945  -19.2002  -54.2894 C.3       23 UNK        -0.0205 
    127 H127        0.0672  -16.8753  -52.8721 H         1 UNK         0.0600 
    128 H128        0.4755  -15.5079  -53.9147 H         1 UNK         0.0600 
    129 H129       -1.2144  -15.9522  -53.6543 H         1 UNK         0.0600 
    130 H130        0.8346  -16.1929  -50.8553 H         1 UNK         0.3000 
    131 H131        0.3951  -13.4889  -49.8719 H         1 UNK         0.0600 
    132 H132        1.6021  -14.3521  -47.8263 H         1 UNK         0.0800 
    133 H133        2.5232  -14.3725  -49.2906 H         1 UNK         0.0800 
    134 H134        3.3167  -16.1198  -50.5273 H         1 UNK         0.0800 
    135 H135        4.1852  -17.1564  -49.4254 H         1 UNK         0.0800 
    136 H136        2.7398  -17.1924  -52.5603 H         1 UNK         0.1150 
    137 H137        1.7759  -21.3656  -52.6667 H         1 UNK         0.1150 
    138 H138        2.7891  -19.4732  -48.9515 H         1 UNK         0.1150 
    139 H139        0.9305  -22.0119  -49.8274 H         1 UNK         0.0800 
    140 H140        2.2315  -22.7207  -50.7424 H         1 UNK         0.0800 
    141 H141        1.4800  -20.5595  -47.5700 H         1 UNK         0.0800 
    142 H142        2.6850  -21.1258  -46.4617 H         1 UNK         0.0800 
    143 H143        1.3245  -23.4776  -46.7787 H         1 UNK         0.0600 
    144 H144        1.3294  -21.5505  -44.7001 H         1 UNK         0.3000 
    145 H145       -0.6943  -23.4820  -42.4370 H         1 UNK         0.0600 
    146 H146        1.6620  -24.2960  -42.2475 H         1 UNK         0.0600 
    147 H147        2.2567  -22.6526  -42.4497 H         1 UNK         0.0600 
    148 H148        1.3005  -23.0790  -41.0329 H         1 UNK         0.0600 
    149 H149        0.4810  -20.9185  -42.1377 H         1 UNK         0.3000 
    150 H150       -2.2335  -19.0055  -43.5254 H         1 UNK         0.0600 
    151 H151       -1.8918  -17.9319  -41.2736 H         1 UNK         0.0600 
    152 H152       -1.1105  -19.3998  -40.6998 H         1 UNK         0.0600 
    153 H153       -2.8066  -19.4296  -41.1608 H         1 UNK         0.0600 
    154 H154        0.2497  -18.1512  -42.4795 H         1 UNK         0.3000 
    155 H155        2.1832  -18.3645  -45.4911 H         1 UNK         0.0600 
    156 H156        0.9781  -16.2252  -45.6219 H         1 UNK         0.0600 
    157 H157        2.5328  -15.9786  -44.8480 H         1 UNK         0.0600 
    158 H158        1.0589  -16.0113  -43.8784 H         1 UNK         0.0600 
    159 H159        2.7244  -17.5508  -42.7749 H         1 UNK         0.3000 
    160 H160        3.9771  -20.7035  -41.6703 H         1 UNK         0.0600 
    161 H161        5.8459  -19.6363  -42.9408 H         1 UNK         0.0600 
    162 H162        5.9645  -19.2929  -41.2224 H         1 UNK         0.0600 
    163 H163        5.3754  -18.0541  -42.3311 H         1 UNK         0.0600 
    164 H164        3.7825  -18.1271  -40.4279 H         1 UNK         0.3000 
    165 H165        0.5233  -18.5607  -39.0457 H         1 UNK         0.0600 
    166 H166        1.7604  -18.2270  -36.9336 H         1 UNK         0.0600 
    167 H167        2.0495  -19.8492  -37.5400 H         1 UNK         0.0600 
    168 H168        3.2884  -18.6136  -37.7258 H         1 UNK         0.0600 
    169 H169        2.3314  -16.4695  -38.6246 H         1 UNK         0.3000 
    170 H170        1.5700  -14.3943  -39.3918 H         1 UNK         0.0600 
    171 H171        3.2101  -13.4287  -41.0441 H         1 UNK         0.0600 
    172 H172        3.7922  -14.9608  -40.4126 H         1 UNK         0.0600 
    173 H173        3.0925  -14.8865  -42.0269 H         1 UNK         0.0600 
    174 H174        0.3061  -14.6961  -42.0397 H         1 UNK         0.3000 
    175 H175       -2.0351  -12.2860  -41.3785 H         1 UNK         0.0600 
    176 H176        0.1773  -11.6502  -43.4059 H         1 UNK         0.0600 
    177 H177       -1.4789  -11.0478  -43.4649 H         1 UNK         0.0600 
    178 H178       -0.4124  -10.5578  -42.1579 H         1 UNK         0.0600 
    179 H179       -1.1245  -13.6741  -43.7935 H         1 UNK         0.3000 
    180 H180       -1.8093  -16.2967  -43.8152 H         1 UNK         0.0600 
    181 H181       -4.0173  -17.3453  -44.2138 H         1 UNK         0.0600 
    182 H182       -4.8290  -16.0183  -43.3836 H         1 UNK         0.0600 
    183 H183       -3.7767  -17.1055  -42.4929 H         1 UNK         0.0600 
    184 H184       -3.8765  -15.0676  -45.3855 H         1 UNK         0.3000 
    185 H185       -3.2605  -14.5425  -47.5763 H         1 UNK         0.0600 
    186 H186       -2.3520  -11.7966  -46.5359 H         1 UNK         0.0600 
    187 H187       -3.4401  -12.0663  -47.8980 H         1 UNK         0.0600 
    188 H188       -3.9338  -12.5203  -46.2753 H         1 UNK         0.0600 
    189 H189       -0.8873  -12.9118  -48.1325 H         1 UNK         0.3000 
    190 H190       -0.8976  -20.7315  -46.1108 H         1 UNK         0.3000 
    191 H191       -2.5476  -21.0609  -48.3527 H         1 UNK         0.0600 
    192 H192       -3.2870  -19.9671  -45.5903 H         1 UNK         0.0600 
    193 H193       -4.1782  -19.6918  -47.0826 H         1 UNK         0.0600 
    194 H194       -2.5576  -19.0395  -46.8994 H         1 UNK         0.0600 
    195 H195       -2.7008  -22.6799  -45.1735 H         1 UNK         0.3000 
    196 H196       -5.1031  -24.1636  -45.6953 H         1 UNK         0.0600 
    197 H197       -4.3626  -25.5136  -43.7371 H         1 UNK         0.0600 
    198 H198       -4.2282  -23.7925  -43.4056 H         1 UNK         0.0600 
    199 H199       -2.7858  -24.7343  -43.7725 H         1 UNK         0.0600 
    200 H200       -1.6269  -24.8925  -46.1943 H         1 UNK         0.3000 
    201 H201       -2.0615  -27.6059  -47.0258 H         1 UNK         0.0600 
    202 H202        0.0195  -26.8702  -45.9163 H         1 UNK         0.0600 
    203 H203        0.3931  -25.7914  -47.2589 H         1 UNK         0.0600 
    204 H204        0.3865  -27.5345  -47.5011 H         1 UNK         0.0600 
    205 H205       -1.3979  -24.5756  -48.8547 H         1 UNK         0.3000 
    206 H206       -1.9782  -25.9253  -51.4376 H         1 UNK         0.0600 
    207 H207        0.2178  -25.1103  -52.3108 H         1 UNK         0.0600 
    208 H208        0.6409  -24.5207  -50.7052 H         1 UNK         0.0600 
    209 H209        0.4451  -26.2467  -50.9939 H         1 UNK         0.0600 
    210 H210       -3.5017  -24.0187  -49.9410 H         1 UNK         0.3000 
    211 H211       -4.9659  -22.4587  -50.3769 H         1 UNK         0.0600 
    212 H212       -3.9412  -22.5437  -53.2505 H         1 UNK         0.0600 
    213 H213       -5.4270  -21.7784  -52.7233 H         1 UNK         0.0600 
    214 H214       -5.2386  -23.5169  -52.5616 H         1 UNK         0.0600 
    215 H215       -1.9090  -21.4267  -51.8820 H         1 UNK         0.3000 
    216 H216       -0.8533  -19.4735  -52.1121 H         1 UNK         0.0600 
    217 H217       -1.9485  -18.8344  -49.3189 H         1 UNK         0.0600 
    218 H218       -0.5356  -18.1147  -50.0885 H         1 UNK         0.0600 
    219 H219       -0.5295  -19.8125  -49.6623 H         1 UNK         0.0600 
    220 H220       -2.8281  -17.3042  -50.2922 H         1 UNK         0.3000 
    221 H221       -3.6238  -15.8075  -52.6037 H         1 UNK         0.0600 
    222 H222       -4.3731  -15.6025  -49.6451 H         1 UNK         0.0600 
    223 H223       -3.1777  -14.6469  -50.5259 H         1 UNK         0.0600 
    224 H224       -4.8790  -14.4370  -50.8630 H         1 UNK         0.0600 
    225 H225       -5.1924  -18.5270  -51.0598 H         1 UNK         0.3000 
    226 H226       -7.9198  -17.7101  -51.5585 H         1 UNK         0.0600 
    227 H227       -7.2630  -19.2004  -49.6718 H         1 UNK         0.0600 
    228 H228       -8.4730  -19.9410  -50.7088 H         1 UNK         0.0600 
    229 H229       -6.7988  -20.4567  -50.8172 H         1 UNK         0.0600 
    230 H230       -7.5416  -17.1290  -53.8174 H         1 UNK         0.3000 
    231 H231       -8.0311  -17.3037  -55.9706 H         1 UNK         0.0600 
    232 H232       -9.4537  -19.0963  -56.8510 H         1 UNK         0.0600 
    233 H233       -9.1314  -20.1146  -55.4569 H         1 UNK         0.0600 
    234 H234      -10.0422  -18.6164  -55.2679 H         1 UNK         0.0600 
    235 H235       -5.5048  -17.6574  -55.2131 H         1 UNK         0.3000 
    236 H236       -3.4953  -17.9334  -56.0197 H         1 UNK         0.0600 
    237 H237       -4.5867  -19.5043  -58.4150 H         1 UNK         0.0600 
    238 H238       -4.4478  -17.7469  -58.3501 H         1 UNK         0.0600 
    239 H239       -3.0099  -18.7499  -58.2757 H         1 UNK         0.0600 
    240 H240       -1.7695  -19.4856  -56.3499 H         1 UNK         0.3000 
    241 H241       -1.7729  -21.2562  -54.2137 H         1 UNK         0.0600 
    242 H242       -3.0680  -24.0420  -56.4843 H         1 UNK         0.3800 
    243 H243       -3.6816  -22.4439  -56.0792 H         1 UNK         0.3800 
    244 H244        0.5964  -21.5259  -54.6584 H         1 UNK         0.0800 
    245 H245        0.4229  -20.9956  -56.3118 H         1 UNK         0.0800 
    246 H246        2.6004  -18.3120  -54.6708 H         1 UNK         0.0800 
    247 H247        2.5946  -20.0505  -54.7554 H         1 UNK         0.0800 
@<TRIPOS>BOND
     1    1    2 1    
     2    1  127 1    
     3    1  128 1    
     4    1  129 1    
     5    2    3 2    
     6    2    4 am   BACKBONE|DICT|INTERRES
     7    4    5 1    
     8    4  130 1    
     9    5    6 1    
    10    5   65 1    
    11    5  131 1    
    12    6    7 1    
    13    6  132 1    
    14    6  133 1    
    15    7    8 1    
    16    8    9 1    
    17    8  134 1    
    18    8  135 1    
    19    9   10 ar   
    20    9   14 ar   
    21   10   11 ar   
    22   10  136 1    
    23   11   12 ar   
    24   11  126 1    
    25   12   13 ar   
    26   12  137 1    
    27   13   14 ar   
    28   13   15 1    
    29   14  138 1    
    30   15   16 1    
    31   15  139 1    
    32   15  140 1    
    33   16   17 1    
    34   17   18 1    
    35   17  141 1    
    36   17  142 1    
    37   18   19 1    
    38   18   67 1    
    39   18  143 1    
    40   19   20 am   BACKBONE|DICT|INTERRES
    41   19  144 1    
    42   20   21 2    
    43   20   22 1    
    44   22   23 1    
    45   22   24 1    
    46   22  145 1    
    47   23  146 1    
    48   23  147 1    
    49   23  148 1    
    50   24   25 am   BACKBONE|DICT|INTERRES
    51   24  149 1    
    52   25   26 2    
    53   25   27 1    
    54   27   28 1    
    55   27   29 1    
    56   27  150 1    
    57   28  151 1    
    58   28  152 1    
    59   28  153 1    
    60   29   30 am   BACKBONE|DICT|INTERRES
    61   29  154 1    
    62   30   31 2    
    63   30   32 1    
    64   32   33 1    
    65   32   34 1    
    66   32  155 1    
    67   33  156 1    
    68   33  157 1    
    69   33  158 1    
    70   34   35 am   BACKBONE|DICT|INTERRES
    71   34  159 1    
    72   35   36 2    
    73   35   37 1    
    74   37   38 1    
    75   37   39 1    
    76   37  160 1    
    77   38  161 1    
    78   38  162 1    
    79   38  163 1    
    80   39   40 am   BACKBONE|DICT|INTERRES
    81   39  164 1    
    82   40   41 2    
    83   40   42 1    
    84   42   43 1    
    85   42   44 1    
    86   42  165 1    
    87   43  166 1    
    88   43  167 1    
    89   43  168 1    
    90   44   45 am   BACKBONE|DICT|INTERRES
    91   44  169 1    
    92   45   46 2    
    93   45   47 1    
    94   47   48 1    
    95   47   49 1    
    96   47  170 1    
    97   48  171 1    
    98   48  172 1    
    99   48  173 1    
   100   49   50 am   BACKBONE|DICT|INTERRES
   101   49  174 1    
   102   50   51 2    
   103   50   52 1    
   104   52   53 1    
   105   52   54 1    
   106   52  175 1    
   107   53  176 1    
   108   53  177 1    
   109   53  178 1    
   110   54   55 am   BACKBONE|DICT|INTERRES
   111   54  179 1    
   112   55   56 2    
   113   55   57 1    
   114   57   58 1    
   115   57   59 1    
   116   57  180 1    
   117   58  181 1    
   118   58  182 1    
   119   58  183 1    
   120   59   60 am   BACKBONE|DICT|INTERRES
   121   59  184 1    
   122   60   61 2    
   123   60   62 1    
   124   62   63 1    
   125   62   64 1    
   126   62  185 1    
   127   63  186 1    
   128   63  187 1    
   129   63  188 1    
   130   64   65 am   BACKBONE|DICT|INTERRES
   131   64  189 1    
   132   65   66 2    
   133   67   68 2    
   134   67   69 am   BACKBONE|DICT|INTERRES
   135   69   70 1    
   136   69  190 1    
   137   70   71 1    
   138   70   72 1    
   139   70  191 1    
   140   71  192 1    
   141   71  193 1    
   142   71  194 1    
   143   72   73 2    
   144   72   74 am   BACKBONE|DICT|INTERRES
   145   74   75 1    
   146   74  195 1    
   147   75   76 1    
   148   75   77 1    
   149   75  196 1    
   150   76  197 1    
   151   76  198 1    
   152   76  199 1    
   153   77   78 2    
   154   77   79 am   BACKBONE|DICT|INTERRES
   155   79   80 1    
   156   79  200 1    
   157   80   81 1    
   158   80   82 1    
   159   80  201 1    
   160   81  202 1    
   161   81  203 1    
   162   81  204 1    
   163   82   83 2    
   164   82   84 am   BACKBONE|DICT|INTERRES
   165   84   85 1    
   166   84  205 1    
   167   85   86 1    
   168   85   87 1    
   169   85  206 1    
   170   86  207 1    
   171   86  208 1    
   172   86  209 1    
   173   87   88 2    
   174   87   89 am   BACKBONE|DICT|INTERRES
   175   89   90 1    
   176   89  210 1    
   177   90   91 1    
   178   90   92 1    
   179   90  211 1    
   180   91  212 1    
   181   91  213 1    
   182   91  214 1    
   183   92   93 2    
   184   92   94 am   BACKBONE|DICT|INTERRES
   185   94   95 1    
   186   94  215 1    
   187   95   96 1    
   188   95   97 1    
   189   95  216 1    
   190   96  217 1    
   191   96  218 1    
   192   96  219 1    
   193   97   98 2    
   194   97   99 am   BACKBONE|DICT|INTERRES
   195   99  100 1    
   196   99  220 1    
   197  100  101 1    
   198  100  102 1    
   199  100  221 1    
   200  101  222 1    
   201  101  223 1    
   202  101  224 1    
   203  102  103 2    
   204  102  104 am   BACKBONE|DICT|INTERRES
   205  104  105 1    
   206  104  225 1    
   207  105  106 1    
   208  105  107 1    
   209  105  226 1    
   210  106  227 1    
   211  106  228 1    
   212  106  229 1    
   213  107  108 2    
   214  107  109 am   BACKBONE|DICT|INTERRES
   215  109  110 1    
   216  109  230 1    
   217  110  111 1    
   218  110  112 1    
   219  110  231 1    
   220  111  232 1    
   221  111  233 1    
   222  111  234 1    
   223  112  113 2    
   224  112  114 am   BACKBONE|DICT|INTERRES
   225  114  115 1    
   226  114  235 1    
   227  115  116 1    
   228  115  117 1    
   229  115  236 1    
   230  116  237 1    
   231  116  238 1    
   232  116  239 1    
   233  117  118 2    
   234  117  119 am   BACKBONE|DICT|INTERRES
   235  119  120 1    
   236  119  240 1    
   237  120  121 1    
   238  120  124 1    
   239  120  241 1    
   240  121  122 am   BACKBONE|DICT|INTERRES
   241  121  123 2    
   242  122  242 1    
   243  122  243 1    
   244  124  125 1    
   245  124  244 1    
   246  124  245 1    
   247  125  126 1    
   248  126  246 1    
   249  126  247 1    
@<TRIPOS>SUBSTRUCTURE
     1 UNK         1 GROUP             0       ****    0 ROOT    
