@<TRIPOS>MOLECULE
3R540
247   249    1
SMALL
USER_CHARGES


@<TRIPOS>ATOM
      1 CA          6.3292  -11.3613  -48.5268 C.3       0 UNK        -0.1800 
      2 C           6.0076  -12.8350  -48.7320 C.2       0 UNK         0.5000 
      3 O           6.8306  -13.5722  -49.2759 O.2       0 UNK        -0.5000 
      4 N           4.8117  -13.2615  -48.3090 N.am      1 UNK        -0.5000 
      5 CA          4.3386  -14.6486  -48.3698 C.3       1 UNK         0.1400 
      6 C6          2.8140  -14.7504  -48.1029 C.3       23 UNK        -0.0398 
      7 S7          1.8031  -13.6921  -49.2027 S.3       23 UNK        -0.2404 
      8 C8          1.9628  -14.5005  -50.8307 C.3       23 UNK        -0.0205 
      9 C9          1.2703  -15.8522  -50.8605 C.ar      23 UNK        -0.0193 
     10 C10        -0.0811  -15.9484  -51.2063 C.ar      23 UNK        -0.1150 
     11 C11        -0.7305  -17.1857  -51.1759 C.ar      23 UNK        -0.0193 
     12 C12        -0.0232  -18.3260  -50.7855 C.ar      23 UNK        -0.1150 
     13 C13         1.3279  -18.2393  -50.4423 C.ar      23 UNK        -0.0193 
     14 C14         1.9767  -17.0060  -50.5133 C.ar      23 UNK        -0.1150 
     15 C15         2.0727  -19.4626  -49.9337 C.3       23 UNK        -0.0205 
     16 S16         2.4729  -19.3191  -48.1588 S.3       23 UNK        -0.2404 
     17 C17         0.8343  -19.0595  -47.3991 C.3       23 UNK        -0.0398 
     18 CA          0.2094  -20.3613  -46.8481 C.3       11 UNK         0.1400 
     19 N          -0.7391  -20.0806  -45.7698 N.am      11 UNK        -0.5000 
     20 C          -1.3071  -21.0097  -44.9900 C.2       10 UNK         0.5000 
     21 O          -1.0356  -22.2080  -45.0409 O.2       10 UNK        -0.5000 
     22 CA         -2.4002  -20.5200  -44.0286 C.3       10 UNK         0.1400 
     23 CB         -1.7795  -20.0420  -42.7125 C.3       10 UNK        -0.1800 
     24 N          -3.2008  -19.4475  -44.6222 N.am      10 UNK        -0.5000 
     25 C          -4.0896  -19.6454  -45.6071 C.2       9 UNK         0.5000 
     26 O          -4.3543  -20.7559  -46.0675 O.2       9 UNK        -0.5000 
     27 CA         -4.7605  -18.3955  -46.2088 C.3       9 UNK         0.1400 
     28 CB         -5.9633  -17.9641  -45.3570 C.3       9 UNK        -0.1800 
     29 N          -3.8400  -17.2662  -46.3532 N.am      9 UNK        -0.5000 
     30 C          -2.7680  -17.2555  -47.1581 C.2       8 UNK         0.5000 
     31 O          -2.4684  -18.1876  -47.9009 O.2       8 UNK        -0.5000 
     32 CA         -1.8464  -16.0219  -47.0943 C.3       8 UNK         0.1400 
     33 CB         -2.2004  -15.0260  -48.2076 C.3       8 UNK        -0.1800 
     34 N          -1.8668  -15.3246  -45.8053 N.am      8 UNK        -0.5000 
     35 C          -1.5155  -15.8597  -44.6282 C.2       7 UNK         0.5000 
     36 O          -1.1564  -17.0330  -44.5011 O.2       7 UNK        -0.5000 
     37 CA         -1.6040  -14.9033  -43.4214 C.3       7 UNK         0.1400 
     38 CB         -3.0625  -14.4952  -43.1237 C.3       7 UNK        -0.1800 
     39 N          -0.9282  -15.4049  -42.2217 N.am      7 UNK        -0.5000 
     40 C          -1.2848  -16.4079  -41.4040 C.2       6 UNK         0.5000 
     41 O          -2.3481  -17.0227  -41.4923 O.2       6 UNK        -0.5000 
     42 CA         -0.2933  -16.7766  -40.2778 C.3       6 UNK         0.1400 
     43 CB          0.0005  -18.2858  -40.2503 C.3       6 UNK        -0.1800 
     44 N           0.9793  -16.0687  -40.4223 N.am      6 UNK        -0.5000 
     45 C           1.4244  -15.0864  -39.6281 C.2       5 UNK         0.5000 
     46 O           0.8298  -14.6969  -38.6224 O.2       5 UNK        -0.5000 
     47 CA          2.7519  -14.4061  -40.0293 C.3       5 UNK         0.1400 
     48 CB          3.9198  -14.9953  -39.2236 C.3       5 UNK        -0.1800 
     49 N           3.0660  -14.5051  -41.4581 N.am      5 UNK        -0.5000 
     50 C           2.3339  -13.9745  -42.4475 C.2       4 UNK         0.5000 
     51 O           1.3226  -13.2988  -42.2592 O.2       4 UNK        -0.5000 
     52 CA          2.7635  -14.2963  -43.8926 C.3       4 UNK         0.1400 
     53 CB          3.6839  -13.1809  -44.4131 C.3       4 UNK        -0.1800 
     54 N           3.4092  -15.6059  -44.0817 N.am      4 UNK        -0.5000 
     55 C           2.9101  -16.7930  -43.6921 C.2       3 UNK         0.5000 
     56 O           1.8557  -16.9083  -43.0688 O.2       3 UNK        -0.5000 
     57 CA          3.7251  -18.0523  -44.0402 C.3       3 UNK         0.1400 
     58 CB          2.8767  -19.3381  -44.0196 C.3       3 UNK        -0.1800 
     59 N           4.3636  -17.9059  -45.3469 N.am      3 UNK        -0.5000 
     60 C           5.6605  -18.1178  -45.6010 C.2       2 UNK         0.5000 
     61 O           6.4621  -18.5388  -44.7660 O.2       2 UNK        -0.5000 
     62 CA          6.1643  -17.7777  -47.0199 C.3       2 UNK         0.1400 
     63 CB          6.3352  -19.0539  -47.8585 C.3       2 UNK        -0.1800 
     64 N           5.3341  -16.8181  -47.7610 N.am      2 UNK        -0.5000 
     65 C           5.1324  -15.5447  -47.3930 C.2       1 UNK         0.5000 
     66 O           5.5270  -15.0819  -46.3199 O.2       1 UNK        -0.5000 
     67 C          -0.4404  -21.2151  -47.9599 C.2       11 UNK         0.5000 
     68 O           0.1427  -22.2136  -48.3801 O.2       11 UNK        -0.5000 
     69 N          -1.6619  -20.8450  -48.3716 N.am      12 UNK        -0.5000 
     70 CA         -2.4924  -21.5923  -49.3161 C.3       12 UNK         0.1400 
     71 CB         -3.7596  -20.7883  -49.6351 C.3       12 UNK        -0.1800 
     72 C          -2.8591  -22.9955  -48.8038 C.2       12 UNK         0.5000 
     73 O          -2.7906  -23.9556  -49.5704 O.2       12 UNK        -0.5000 
     74 N          -3.2074  -23.1027  -47.5137 N.am      13 UNK        -0.5000 
     75 CA         -3.4824  -24.3730  -46.8421 C.3       13 UNK         0.1400 
     76 CB         -4.0687  -24.1146  -45.4474 C.3       13 UNK        -0.1800 
     77 C          -2.2469  -25.2888  -46.7705 C.2       13 UNK         0.5000 
     78 O          -2.3654  -26.4792  -47.0598 O.2       13 UNK        -0.5000 
     79 N          -1.0774  -24.7167  -46.4494 N.am      14 UNK        -0.5000 
     80 CA          0.2173  -25.4051  -46.4501 C.3       14 UNK         0.1400 
     81 CB          1.2876  -24.4891  -45.8370 C.3       14 UNK        -0.1800 
     82 C           0.6437  -25.8842  -47.8523 C.2       14 UNK         0.5000 
     83 O           1.2284  -26.9607  -47.9764 O.2       14 UNK        -0.5000 
     84 N           0.3025  -25.1002  -48.8835 N.am      15 UNK        -0.5000 
     85 CA          0.4801  -25.4323  -50.2988 C.3       15 UNK         0.1400 
     86 CB          0.4378  -24.1317  -51.1185 C.3       15 UNK        -0.1800 
     87 C          -0.5537  -26.4485  -50.8349 C.2       15 UNK         0.5000 
     88 O          -0.4223  -26.8791  -51.9814 O.2       15 UNK        -0.5000 
     89 N          -1.5553  -26.8069  -50.0155 N.am      16 UNK        -0.5000 
     90 CA         -2.6790  -27.7033  -50.3067 C.3       16 UNK         0.1400 
     91 CB         -2.1883  -29.1427  -50.5685 C.3       16 UNK        -0.1800 
     92 C          -3.6088  -27.1617  -51.4135 C.2       16 UNK         0.5000 
     93 O          -4.1208  -27.9318  -52.2284 O.2       16 UNK        -0.5000 
     94 N          -3.8174  -25.8407  -51.4125 N.am      17 UNK        -0.5000 
     95 CA         -4.6461  -25.1031  -52.3612 C.3       17 UNK         0.1400 
     96 CB         -3.7459  -24.5024  -53.4570 C.3       17 UNK        -0.1800 
     97 C          -5.4598  -24.0402  -51.6039 C.2       17 UNK         0.5000 
     98 O          -5.5205  -22.8888  -52.0317 O.2       17 UNK        -0.5000 
     99 N          -6.0621  -24.4458  -50.4753 N.am      18 UNK        -0.5000 
    100 CA        -6.7341  -23.5996  -49.4778 C.3       18 UNK         0.1400 
    101 CB        -7.2689  -24.5026  -48.3546 C.3       18 UNK        -0.1800 
    102 C         -7.8657  -22.6880  -50.0010 C.2       18 UNK         0.5000 
    103 O         -8.2218  -21.7244  -49.3226 O.2       18 UNK        -0.5000 
    104 N         -8.4145  -23.0011  -51.1821 N.am      19 UNK        -0.5000 
    105 CA        -9.4079  -22.1882  -51.8850 C.3       19 UNK         0.1400 
    106 CB       -10.0372  -23.0352  -53.0021 C.3       19 UNK        -0.1800 
    107 C         -8.8362  -20.8750  -52.4619 C.2       19 UNK         0.5000 
    108 O         -9.6058  -19.9441  -52.7022 O.2       19 UNK        -0.5000 
    109 N         -7.5161  -20.8195  -52.6886 N.am      20 UNK        -0.5000 
    110 CA        -6.7974  -19.6403  -53.1692 C.3       20 UNK         0.1400 
    111 CB        -5.4120  -20.0978  -53.6519 C.3       20 UNK        -0.1800 
    112 C         -6.6787  -18.5827  -52.0441 C.2       20 UNK         0.5000 
    113 O         -6.3834  -18.9700  -50.9137 O.2       20 UNK        -0.5000 
    114 N         -6.8725  -17.2716  -52.2711 N.am      21 UNK        -0.5000 
    115 CA        -7.2067  -16.5266  -53.4937 C.3       21 UNK         0.1400 
    116 CB        -8.6632  -16.7740  -53.9408 C.3       21 UNK        -0.1800 
    117 C         -6.1593  -16.6833  -54.6120 C.2       21 UNK         0.5000 
    118 O         -6.5065  -16.9699  -55.7585 O.2       21 UNK        -0.5000 
    119 N         -4.8863  -16.5351  -54.2292 N.am      22 UNK        -0.5000 
    120 CA        -3.7139  -16.6430  -55.1110 C.3       22 UNK         0.1400 
    121 C         -3.6228  -15.4800  -56.1378 C.2       22 UNK         0.5000 
    122 N         -3.1203  -15.7411  -57.3369 N.am      22 UNK        -0.7600 
    123 O         -3.9643  -14.3360  -55.8446 O.2       22 UNK        -0.5000 
    124 C124       -2.3960  -16.7573  -54.3012 C.3       23 UNK        -0.0398 
    125 S125       -2.4303  -18.1503  -53.1202 S.3       23 UNK        -0.2404 
    126 C126       -2.2032  -17.3009  -51.5280 C.3       23 UNK        -0.0205 
    127 H127        5.5085  -10.8307  -48.0431 H         1 UNK         0.0600 
    128 H128        6.5250  -10.8824  -49.4861 H         1 UNK         0.0600 
    129 H129        7.2168  -11.2547  -47.9032 H         1 UNK         0.0600 
    130 H130        4.1792  -12.6057  -47.8750 H         1 UNK         0.3000 
    131 H131        4.5356  -15.0150  -49.3787 H         1 UNK         0.0600 
    132 H132        2.4671  -15.7807  -48.1788 H         1 UNK         0.0800 
    133 H133        2.5894  -14.4505  -47.0789 H         1 UNK         0.0800 
    134 H134        1.5229  -13.8483  -51.5866 H         1 UNK         0.0800 
    135 H135        3.0144  -14.6010  -51.1006 H         1 UNK         0.0800 
    136 H136       -0.6293  -15.0578  -51.4797 H         1 UNK         0.1150 
    137 H137       -0.5350  -19.2768  -50.7316 H         1 UNK         0.1150 
    138 H138        3.0211  -16.9394  -50.2465 H         1 UNK         0.1150 
    139 H139        1.4934  -20.3712  -50.1040 H         1 UNK         0.0800 
    140 H140        2.9988  -19.5813  -50.4976 H         1 UNK         0.0800 
    141 H141        0.9903  -18.3514  -46.5844 H         1 UNK         0.0800 
    142 H142        0.1563  -18.5497  -48.0808 H         1 UNK         0.0800 
    143 H143        1.0076  -20.9607  -46.4043 H         1 UNK         0.0600 
    144 H144       -1.0169  -19.1169  -45.6384 H         1 UNK         0.3000 
    145 H145       -3.0581  -21.3623  -43.8057 H         1 UNK         0.0600 
    146 H146       -2.5480  -19.7370  -42.0024 H         1 UNK         0.0600 
    147 H147       -1.1964  -20.8348  -42.2423 H         1 UNK         0.0600 
    148 H148       -1.1126  -19.1951  -42.8736 H         1 UNK         0.0600 
    149 H149       -2.9882  -18.5046  -44.3232 H         1 UNK         0.3000 
    150 H150       -5.1240  -18.6615  -47.2038 H         1 UNK         0.0600 
    151 H151       -6.6757  -18.7828  -45.2460 H         1 UNK         0.0600 
    152 H152       -6.4955  -17.1323  -45.8188 H         1 UNK         0.0600 
    153 H153       -5.6592  -17.6550  -44.3560 H         1 UNK         0.0600 
    154 H154       -4.0119  -16.4592  -45.7727 H         1 UNK         0.3000 
    155 H155       -0.8262  -16.3710  -47.2654 H         1 UNK         0.0600 
    156 H156       -1.4693  -14.2190  -48.2621 H         1 UNK         0.0600 
    157 H157       -3.1849  -14.5825  -48.0547 H         1 UNK         0.0600 
    158 H158       -2.2108  -15.5156  -49.1808 H         1 UNK         0.0600 
    159 H159       -2.1535  -14.3567  -45.8321 H         1 UNK         0.3000 
    160 H160       -1.0577  -14.0006  -43.6985 H         1 UNK         0.0600 
    161 H161       -3.7060  -15.3608  -42.9642 H         1 UNK         0.0600 
    162 H162       -3.4891  -13.9259  -43.9498 H         1 UNK         0.0600 
    163 H163       -3.1222  -13.8648  -42.2364 H         1 UNK         0.0600 
    164 H164       -0.0360  -14.9654  -42.0362 H         1 UNK         0.3000 
    165 H165       -0.7759  -16.5094  -39.3358 H         1 UNK         0.0600 
    166 H166        0.4798  -18.6165  -41.1723 H         1 UNK         0.0600 
    167 H167        0.6615  -18.5411  -39.4220 H         1 UNK         0.0600 
    168 H168       -0.9145  -18.8649  -40.1221 H         1 UNK         0.0600 
    169 H169        1.5106  -16.3130  -41.2540 H         1 UNK         0.3000 
    170 H170        2.6633  -13.3467  -39.7802 H         1 UNK         0.0600 
    171 H171        3.7364  -14.9127  -38.1514 H         1 UNK         0.0600 
    172 H172        4.0717  -16.0514  -39.4501 H         1 UNK         0.0600 
    173 H173        4.8507  -14.4682  -39.4336 H         1 UNK         0.0600 
    174 H174        3.8770  -15.0522  -41.7064 H         1 UNK         0.3000 
    175 H175        1.8552  -14.2980  -44.4985 H         1 UNK         0.0600 
    176 H176        4.6628  -13.2116  -43.9333 H         1 UNK         0.0600 
    177 H177        3.8360  -13.2547  -45.4876 H         1 UNK         0.0600 
    178 H178        3.2563  -12.1952  -44.2238 H         1 UNK         0.0600 
    179 H179        4.2869  -15.5953  -44.5888 H         1 UNK         0.3000 
    180 H180        4.4824  -18.1393  -43.2588 H         1 UNK         0.0600 
    181 H181        2.0326  -19.2747  -44.7039 H         1 UNK         0.0600 
    182 H182        2.4737  -19.5258  -43.0237 H         1 UNK         0.0600 
    183 H183        3.4703  -20.2087  -44.2984 H         1 UNK         0.0600 
    184 H184        3.7790  -17.5697  -46.0981 H         1 UNK         0.3000 
    185 H185        7.1507  -17.3243  -46.9014 H         1 UNK         0.0600 
    186 H186        6.7747  -18.8328  -48.8312 H         1 UNK         0.0600 
    187 H187        6.9973  -19.7627  -47.3593 H         1 UNK         0.0600 
    188 H188        5.3851  -19.5599  -48.0258 H         1 UNK         0.0600 
    189 H189        4.9711  -17.1430  -48.6449 H         1 UNK         0.3000 
    190 H190       -2.0506  -19.9699  -48.0268 H         1 UNK         0.3000 
    191 H191       -1.9227  -21.7110  -50.2396 H         1 UNK         0.0600 
    192 H192       -4.3836  -21.3079  -50.3598 H         1 UNK         0.0600 
    193 H193       -3.5164  -19.8197  -50.0650 H         1 UNK         0.0600 
    194 H194       -4.3682  -20.6143  -48.7482 H         1 UNK         0.0600 
    195 H195       -3.3041  -22.2589  -46.9585 H         1 UNK         0.3000 
    196 H196       -4.2362  -24.8968  -47.4312 H         1 UNK         0.0600 
    197 H197       -4.3277  -25.0522  -44.9542 H         1 UNK         0.0600 
    198 H198       -4.9780  -23.5161  -45.5072 H         1 UNK         0.0600 
    199 H199       -3.3636  -23.5900  -44.8035 H         1 UNK         0.0600 
    200 H200       -1.0703  -23.7387  -46.1706 H         1 UNK         0.3000 
    201 H201        0.1233  -26.2882  -45.8150 H         1 UNK         0.0600 
    202 H202        1.0268  -24.2066  -44.8169 H         1 UNK         0.0600 
    203 H203        1.4143  -23.5733  -46.4145 H         1 UNK         0.0600 
    204 H204        2.2555  -24.9901  -45.7988 H         1 UNK         0.0600 
    205 H205       -0.1062  -24.1926  -48.6832 H         1 UNK         0.3000 
    206 H206        1.4679  -25.8795  -50.4255 H         1 UNK         0.0600 
    207 H207        1.1894  -23.4217  -50.7728 H         1 UNK         0.0600 
    208 H208        0.6355  -24.3252  -52.1735 H         1 UNK         0.0600 
    209 H209       -0.5359  -23.6466  -51.0523 H         1 UNK         0.0600 
    210 H210       -1.5776  -26.3847  -49.0956 H         1 UNK         0.3000 
    211 H211       -3.2831  -27.7283  -49.3989 H         1 UNK         0.0600 
    212 H212       -1.6310  -29.2198  -51.5023 H         1 UNK         0.0600 
    213 H213       -3.0281  -29.8355  -50.6326 H         1 UNK         0.0600 
    214 H214       -1.5429  -29.4910  -49.7621 H         1 UNK         0.0600 
    215 H215       -3.3662  -25.2677  -50.6991 H         1 UNK         0.3000 
    216 H216       -5.3692  -25.7713  -52.8327 H         1 UNK         0.0600 
    217 H217       -4.3353  -23.9643  -54.2003 H         1 UNK         0.0600 
    218 H218       -3.1924  -25.2810  -53.9822 H         1 UNK         0.0600 
    219 H219       -3.0217  -23.8024  -53.0380 H         1 UNK         0.0600 
    220 H220       -5.9632  -25.4190  -50.2262 H         1 UNK         0.3000 
    221 H221       -5.9728  -22.9433  -49.0523 H         1 UNK         0.0600 
    222 H222       -8.0454  -25.1759  -48.7199 H         1 UNK         0.0600 
    223 H223       -6.4800  -25.1121  -47.9168 H         1 UNK         0.0600 
    224 H224       -7.7019  -23.9093  -47.5480 H         1 UNK         0.0600 
    225 H225       -8.0598  -23.8095  -51.6707 H         1 UNK         0.3000 
    226 H226      -10.1942  -21.9198  -51.1763 H         1 UNK         0.0600 
    227 H227      -10.5100  -23.9314  -52.5998 H         1 UNK         0.0600 
    228 H228      -10.8074  -22.4731  -53.5320 H         1 UNK         0.0600 
    229 H229       -9.2942  -23.3469  -53.7372 H         1 UNK         0.0600 
    230 H230       -6.9356  -21.6075  -52.4157 H         1 UNK         0.3000 
    231 H231       -7.3353  -19.2522  -54.0295 H         1 UNK         0.0600 
    232 H232       -4.9084  -19.3101  -54.2070 H         1 UNK         0.0600 
    233 H233       -5.4865  -20.9564  -54.3195 H         1 UNK         0.0600 
    234 H234       -4.7655  -20.3797  -52.8196 H         1 UNK         0.0600 
    235 H235       -6.7627  -16.6748  -51.4644 H         1 UNK         0.3000 
    236 H236       -7.1544  -15.4753  -53.2061 H         1 UNK         0.0600 
    237 H237       -9.3567  -16.6314  -53.1119 H         1 UNK         0.0600 
    238 H238       -8.9474  -16.0668  -54.7208 H         1 UNK         0.0600 
    239 H239       -8.8327  -17.7699  -54.3438 H         1 UNK         0.0600 
    240 H240       -4.6935  -16.3096  -53.2653 H         1 UNK         0.3000 
    241 H241       -3.8320  -17.5683  -55.6788 H         1 UNK         0.0600 
    242 H242       -2.8271  -16.6699  -57.5991 H         1 UNK         0.3800 
    243 H243       -3.0421  -14.9925  -58.0082 H         1 UNK         0.3800 
    244 H244       -1.5516  -16.9184  -54.9735 H         1 UNK         0.0800 
    245 H245       -2.1858  -15.8249  -53.7748 H         1 UNK         0.0800 
    246 H246       -2.7080  -17.8641  -50.7445 H         1 UNK         0.0800 
    247 H247       -2.6854  -16.3229  -51.5455 H         1 UNK         0.0800 
@<TRIPOS>BOND
     1    1    2 1    
     2    1  127 1    
     3    1  128 1    
     4    1  129 1    
     5    2    3 2    
     6    2    4 am   BACKBONE|DICT|INTERRES
     7    4    5 1    
     8    4  130 1    
     9    5    6 1    
    10    5   65 1    
    11    5  131 1    
    12    6    7 1    
    13    6  132 1    
    14    6  133 1    
    15    7    8 1    
    16    8    9 1    
    17    8  134 1    
    18    8  135 1    
    19    9   10 ar   
    20    9   14 ar   
    21   10   11 ar   
    22   10  136 1    
    23   11   12 ar   
    24   11  126 1    
    25   12   13 ar   
    26   12  137 1    
    27   13   14 ar   
    28   13   15 1    
    29   14  138 1    
    30   15   16 1    
    31   15  139 1    
    32   15  140 1    
    33   16   17 1    
    34   17   18 1    
    35   17  141 1    
    36   17  142 1    
    37   18   19 1    
    38   18   67 1    
    39   18  143 1    
    40   19   20 am   BACKBONE|DICT|INTERRES
    41   19  144 1    
    42   20   21 2    
    43   20   22 1    
    44   22   23 1    
    45   22   24 1    
    46   22  145 1    
    47   23  146 1    
    48   23  147 1    
    49   23  148 1    
    50   24   25 am   BACKBONE|DICT|INTERRES
    51   24  149 1    
    52   25   26 2    
    53   25   27 1    
    54   27   28 1    
    55   27   29 1    
    56   27  150 1    
    57   28  151 1    
    58   28  152 1    
    59   28  153 1    
    60   29   30 am   BACKBONE|DICT|INTERRES
    61   29  154 1    
    62   30   31 2    
    63   30   32 1    
    64   32   33 1    
    65   32   34 1    
    66   32  155 1    
    67   33  156 1    
    68   33  157 1    
    69   33  158 1    
    70   34   35 am   BACKBONE|DICT|INTERRES
    71   34  159 1    
    72   35   36 2    
    73   35   37 1    
    74   37   38 1    
    75   37   39 1    
    76   37  160 1    
    77   38  161 1    
    78   38  162 1    
    79   38  163 1    
    80   39   40 am   BACKBONE|DICT|INTERRES
    81   39  164 1    
    82   40   41 2    
    83   40   42 1    
    84   42   43 1    
    85   42   44 1    
    86   42  165 1    
    87   43  166 1    
    88   43  167 1    
    89   43  168 1    
    90   44   45 am   BACKBONE|DICT|INTERRES
    91   44  169 1    
    92   45   46 2    
    93   45   47 1    
    94   47   48 1    
    95   47   49 1    
    96   47  170 1    
    97   48  171 1    
    98   48  172 1    
    99   48  173 1    
   100   49   50 am   BACKBONE|DICT|INTERRES
   101   49  174 1    
   102   50   51 2    
   103   50   52 1    
   104   52   53 1    
   105   52   54 1    
   106   52  175 1    
   107   53  176 1    
   108   53  177 1    
   109   53  178 1    
   110   54   55 am   BACKBONE|DICT|INTERRES
   111   54  179 1    
   112   55   56 2    
   113   55   57 1    
   114   57   58 1    
   115   57   59 1    
   116   57  180 1    
   117   58  181 1    
   118   58  182 1    
   119   58  183 1    
   120   59   60 am   BACKBONE|DICT|INTERRES
   121   59  184 1    
   122   60   61 2    
   123   60   62 1    
   124   62   63 1    
   125   62   64 1    
   126   62  185 1    
   127   63  186 1    
   128   63  187 1    
   129   63  188 1    
   130   64   65 am   BACKBONE|DICT|INTERRES
   131   64  189 1    
   132   65   66 2    
   133   67   68 2    
   134   67   69 am   BACKBONE|DICT|INTERRES
   135   69   70 1    
   136   69  190 1    
   137   70   71 1    
   138   70   72 1    
   139   70  191 1    
   140   71  192 1    
   141   71  193 1    
   142   71  194 1    
   143   72   73 2    
   144   72   74 am   BACKBONE|DICT|INTERRES
   145   74   75 1    
   146   74  195 1    
   147   75   76 1    
   148   75   77 1    
   149   75  196 1    
   150   76  197 1    
   151   76  198 1    
   152   76  199 1    
   153   77   78 2    
   154   77   79 am   BACKBONE|DICT|INTERRES
   155   79   80 1    
   156   79  200 1    
   157   80   81 1    
   158   80   82 1    
   159   80  201 1    
   160   81  202 1    
   161   81  203 1    
   162   81  204 1    
   163   82   83 2    
   164   82   84 am   BACKBONE|DICT|INTERRES
   165   84   85 1    
   166   84  205 1    
   167   85   86 1    
   168   85   87 1    
   169   85  206 1    
   170   86  207 1    
   171   86  208 1    
   172   86  209 1    
   173   87   88 2    
   174   87   89 am   BACKBONE|DICT|INTERRES
   175   89   90 1    
   176   89  210 1    
   177   90   91 1    
   178   90   92 1    
   179   90  211 1    
   180   91  212 1    
   181   91  213 1    
   182   91  214 1    
   183   92   93 2    
   184   92   94 am   BACKBONE|DICT|INTERRES
   185   94   95 1    
   186   94  215 1    
   187   95   96 1    
   188   95   97 1    
   189   95  216 1    
   190   96  217 1    
   191   96  218 1    
   192   96  219 1    
   193   97   98 2    
   194   97   99 am   BACKBONE|DICT|INTERRES
   195   99  100 1    
   196   99  220 1    
   197  100  101 1    
   198  100  102 1    
   199  100  221 1    
   200  101  222 1    
   201  101  223 1    
   202  101  224 1    
   203  102  103 2    
   204  102  104 am   BACKBONE|DICT|INTERRES
   205  104  105 1    
   206  104  225 1    
   207  105  106 1    
   208  105  107 1    
   209  105  226 1    
   210  106  227 1    
   211  106  228 1    
   212  106  229 1    
   213  107  108 2    
   214  107  109 am   BACKBONE|DICT|INTERRES
   215  109  110 1    
   216  109  230 1    
   217  110  111 1    
   218  110  112 1    
   219  110  231 1    
   220  111  232 1    
   221  111  233 1    
   222  111  234 1    
   223  112  113 2    
   224  112  114 am   BACKBONE|DICT|INTERRES
   225  114  115 1    
   226  114  235 1    
   227  115  116 1    
   228  115  117 1    
   229  115  236 1    
   230  116  237 1    
   231  116  238 1    
   232  116  239 1    
   233  117  118 2    
   234  117  119 am   BACKBONE|DICT|INTERRES
   235  119  120 1    
   236  119  240 1    
   237  120  121 1    
   238  120  124 1    
   239  120  241 1    
   240  121  122 am   BACKBONE|DICT|INTERRES
   241  121  123 2    
   242  122  242 1    
   243  122  243 1    
   244  124  125 1    
   245  124  244 1    
   246  124  245 1    
   247  125  126 1    
   248  126  246 1    
   249  126  247 1    
@<TRIPOS>SUBSTRUCTURE
     1 UNK         1 GROUP             0       ****    0 ROOT    
