@<TRIPOS>MOLECULE
3R540
247   249    1
SMALL
USER_CHARGES


@<TRIPOS>ATOM
      1 CA         -0.4719  -15.8908  -50.9985 C.3       0 UNK        -0.1800 
      2 C           0.6188  -15.0285  -50.3776 C.2       0 UNK         0.5000 
      3 O           1.0067  -15.2676  -49.2367 O.2       0 UNK        -0.5000 
      4 N           1.0853  -14.0071  -51.1089 N.am      1 UNK        -0.5000 
      5 CA          2.1092  -13.0096  -50.7487 C.3       1 UNK         0.1400 
      6 C6          3.5184  -13.5993  -50.4693 C.3       23 UNK        -0.0398 
      7 S7          4.3250  -14.1969  -51.9942 S.3       23 UNK        -0.2404 
      8 C8          5.0683  -15.7688  -51.4535 C.3       23 UNK        -0.0205 
      9 C9          4.0180  -16.8499  -51.2633 C.ar      23 UNK        -0.0193 
     10 C10         3.3773  -17.4020  -52.3742 C.ar      23 UNK        -0.1150 
     11 C11         2.3722  -18.3580  -52.2123 C.ar      23 UNK        -0.0193 
     12 C12         2.0232  -18.7791  -50.9257 C.ar      23 UNK        -0.1150 
     13 C13         2.6788  -18.2540  -49.8060 C.ar      23 UNK        -0.0193 
     14 C14         3.6749  -17.2892  -49.9828 C.ar      23 UNK        -0.1150 
     15 C15         2.2951  -18.6912  -48.4006 C.3       23 UNK        -0.0205 
     16 S16         2.4453  -20.4927  -48.1738 S.3       23 UNK        -0.2404 
     17 C17         0.6965  -21.0113  -48.0651 C.3       23 UNK        -0.0398 
     18 CA          0.4774  -22.0498  -46.9372 C.3       11 UNK         0.1400 
     19 N           0.8784  -21.5327  -45.6231 N.am      11 UNK        -0.5000 
     20 C           1.5590  -22.2222  -44.6985 C.2       10 UNK         0.5000 
     21 O           1.9124  -23.3934  -44.8358 O.2       10 UNK        -0.5000 
     22 CA          1.8716  -21.4847  -43.3844 C.3       10 UNK         0.1400 
     23 CB          3.1064  -20.5860  -43.5428 C.3       10 UNK        -0.1800 
     24 N           0.7402  -20.6833  -42.9173 N.am      10 UNK        -0.5000 
     25 C          -0.3905  -21.1930  -42.4083 C.2       9 UNK         0.5000 
     26 O          -0.5754  -22.3980  -42.2434 O.2       9 UNK        -0.5000 
     27 CA         -1.5090  -20.2043  -42.0355 C.3       9 UNK         0.1400 
     28 CB         -1.5089  -19.9216  -40.5244 C.3       9 UNK        -0.1800 
     29 N          -1.3830  -18.9477  -42.7790 N.am      9 UNK        -0.5000 
     30 C          -2.0072  -18.7160  -43.9423 C.2       8 UNK         0.5000 
     31 O          -2.7998  -19.5047  -44.4542 O.2       8 UNK        -0.5000 
     32 CA         -1.7006  -17.3980  -44.6755 C.3       8 UNK         0.1400 
     33 CB         -2.6852  -16.2982  -44.2541 C.3       8 UNK        -0.1800 
     34 N          -0.3304  -16.9107  -44.5161 N.am      8 UNK        -0.5000 
     35 C           0.7548  -17.5245  -45.0071 C.2       7 UNK         0.5000 
     36 O           0.7302  -18.6552  -45.4923 O.2       7 UNK        -0.5000 
     37 CA          2.0872  -16.7611  -44.9286 C.3       7 UNK         0.1400 
     38 CB          2.1191  -15.6091  -45.9426 C.3       7 UNK        -0.1800 
     39 N           2.2854  -16.2236  -43.5872 N.am      7 UNK        -0.5000 
     40 C           3.2421  -16.6185  -42.7369 C.2       6 UNK         0.5000 
     41 O           4.1612  -17.3786  -43.0421 O.2       6 UNK        -0.5000 
     42 CA          3.1545  -16.0973  -41.2858 C.3       6 UNK         0.1400 
     43 CB          4.1087  -14.9099  -41.0858 C.3       6 UNK        -0.1800 
     44 N           1.8092  -15.6951  -40.8648 N.am      6 UNK        -0.5000 
     45 C           0.7180  -16.4734  -40.8805 C.2       5 UNK         0.5000 
     46 O           0.7224  -17.6529  -41.2298 O.2       5 UNK        -0.5000 
     47 CA         -0.6221  -15.8002  -40.5305 C.3       5 UNK         0.1400 
     48 CB         -0.9340  -15.9740  -39.0374 C.3       5 UNK        -0.1800 
     49 N          -0.7017  -14.3767  -40.8825 N.am      5 UNK        -0.5000 
     50 C          -0.4967  -13.8581  -42.1017 C.2       4 UNK         0.5000 
     51 O          -0.1106  -14.5136  -43.0736 O.2       4 UNK        -0.5000 
     52 CA         -0.7089  -12.3420  -42.2446 C.3       4 UNK         0.1400 
     53 CB          0.6190  -11.6008  -42.0262 C.3       4 UNK        -0.1800 
     54 N          -1.2291  -11.9946  -43.5653 N.am      4 UNK        -0.5000 
     55 C          -2.4402  -12.3266  -44.0354 C.2       3 UNK         0.5000 
     56 O          -3.2980  -12.8992  -43.3623 O.2       3 UNK        -0.5000 
     57 CA         -2.7590  -11.9393  -45.4944 C.3       3 UNK         0.1400 
     58 CB         -3.7939  -10.8035  -45.5358 C.3       3 UNK        -0.1800 
     59 N          -1.5700  -11.5177  -46.2408 N.am      3 UNK        -0.5000 
     60 C          -0.7203  -12.3517  -46.8519 C.2       2 UNK         0.5000 
     61 O          -0.8743  -13.5728  -46.9128 O.2       2 UNK        -0.5000 
     62 CA          0.5270  -11.7008  -47.4623 C.3       2 UNK         0.1400 
     63 CB          1.6372  -11.5470  -46.4066 C.3       2 UNK        -0.1800 
     64 N           1.0144  -12.5034  -48.5789 N.am      2 UNK        -0.5000 
     65 C           1.6875  -12.0274  -49.6310 C.2       1 UNK         0.5000 
     66 O           1.9784  -10.8361  -49.7548 O.2       1 UNK        -0.5000 
     67 C          -0.9660  -22.6044  -46.9226 C.2       11 UNK         0.5000 
     68 O          -1.5199  -22.8885  -47.9875 O.2       11 UNK        -0.5000 
     69 N          -1.5545  -22.7696  -45.7296 N.am      12 UNK        -0.5000 
     70 CA         -2.7670  -23.5534  -45.5176 C.3       12 UNK         0.1400 
     71 CB         -3.4851  -23.0740  -44.2473 C.3       12 UNK        -0.1800 
     72 C          -2.3643  -25.0334  -45.4111 C.2       12 UNK         0.5000 
     73 O          -1.5469  -25.3853  -44.5579 O.2       12 UNK        -0.5000 
     74 N          -2.9188  -25.8623  -46.2957 N.am      13 UNK        -0.5000 
     75 CA         -2.6116  -27.2783  -46.4708 C.3       13 UNK         0.1400 
     76 CB         -1.2117  -27.4384  -47.1033 C.3       13 UNK        -0.1800 
     77 C          -3.6988  -27.8842  -47.3712 C.2       13 UNK         0.5000 
     78 O          -4.5997  -27.1615  -47.8066 O.2       13 UNK        -0.5000 
     79 N          -3.5753  -29.1797  -47.6898 N.am      14 UNK        -0.5000 
     80 CA         -4.4600  -29.9055  -48.6119 C.3       14 UNK         0.1400 
     81 CB         -4.0656  -31.3902  -48.6207 C.3       14 UNK        -0.1800 
     82 C          -4.4685  -29.3401  -50.0496 C.2       14 UNK         0.5000 
     83 O          -5.4695  -29.4827  -50.7524 O.2       14 UNK        -0.5000 
     84 N          -3.3685  -28.6831  -50.4464 N.am      15 UNK        -0.5000 
     85 CA         -3.2395  -27.9359  -51.6998 C.3       15 UNK         0.1400 
     86 CB         -1.7494  -27.6617  -51.9579 C.3       15 UNK        -0.1800 
     87 C          -4.0329  -26.6116  -51.7070 C.2       15 UNK         0.5000 
     88 O          -4.3255  -26.0971  -52.7866 O.2       15 UNK        -0.5000 
     89 N          -4.3540  -26.0875  -50.5121 N.am      16 UNK        -0.5000 
     90 CA         -5.1311  -24.8737  -50.2371 C.3       16 UNK         0.1400 
     91 CB         -6.6075  -25.0900  -50.6280 C.3       16 UNK        -0.1800 
     92 C          -4.5350  -23.5901  -50.8522 C.2       16 UNK         0.5000 
     93 O          -5.2873  -22.6899  -51.2234 O.2       16 UNK        -0.5000 
     94 N          -3.1988  -23.5218  -50.9493 N.am      17 UNK        -0.5000 
     95 CA         -2.4533  -22.4716  -51.6507 C.3       17 UNK         0.1400 
     96 CB         -0.9518  -22.7909  -51.6071 C.3       17 UNK        -0.1800 
     97 C          -2.7283  -21.0425  -51.1483 C.2       17 UNK         0.5000 
     98 O          -2.8374  -20.1311  -51.9692 O.2       17 UNK        -0.5000 
     99 N          -2.8751  -20.8765  -49.8261 N.am      18 UNK        -0.5000 
    100 CA        -3.2547  -19.6083  -49.1980 C.3       18 UNK         0.1400 
    101 CB        -3.1482  -19.7300  -47.6706 C.3       18 UNK        -0.1800 
    102 C         -4.6689  -19.1415  -49.5922 C.2       18 UNK         0.5000 
    103 O         -4.8525  -17.9731  -49.9332 O.2       18 UNK        -0.5000 
    104 N         -5.6370  -20.0671  -49.5495 N.am      19 UNK        -0.5000 
    105 CA        -7.0446  -19.8147  -49.8670 C.3       19 UNK         0.1400 
    106 CB        -7.8999  -20.9744  -49.3351 C.3       19 UNK        -0.1800 
    107 C         -7.2816  -19.6093  -51.3733 C.2       19 UNK         0.5000 
    108 O         -8.0945  -18.7679  -51.7568 O.2       19 UNK        -0.5000 
    109 N         -6.5433  -20.3635  -52.1962 N.am      20 UNK        -0.5000 
    110 CA        -6.5469  -20.2850  -53.6562 C.3       20 UNK         0.1400 
    111 CB        -5.9493  -21.5871  -54.2147 C.3       20 UNK        -0.1800 
    112 C         -5.7805  -19.0679  -54.2110 C.2       20 UNK         0.5000 
    113 O         -5.8070  -18.8561  -55.4243 O.2       20 UNK        -0.5000 
    114 N         -5.0788  -18.3228  -53.3411 N.am      21 UNK        -0.5000 
    115 CA        -4.2061  -17.1835  -53.6492 C.3       21 UNK         0.1400 
    116 CB        -5.0412  -15.9645  -54.0907 C.3       21 UNK        -0.1800 
    117 C         -3.1018  -17.5648  -54.6572 C.2       21 UNK         0.5000 
    118 O         -2.8829  -16.8638  -55.6468 O.2       21 UNK        -0.5000 
    119 N         -2.4683  -18.7128  -54.3904 N.am      22 UNK        -0.5000 
    120 CA        -1.4583  -19.3924  -55.2173 C.3       22 UNK         0.1400 
    121 C         -2.0173  -20.0797  -56.5004 C.2       22 UNK         0.5000 
    122 N         -3.3197  -20.0744  -56.7617 N.am      22 UNK        -0.7600 
    123 O         -1.2543  -20.6634  -57.2653 O.2       22 UNK        -0.5000 
    124 C124       -0.2014  -18.5297  -55.5280 C.3       23 UNK        -0.0398 
    125 S125        0.4806  -17.6705  -54.0707 S.3       23 UNK        -0.2404 
    126 C126        1.6503  -18.9037  -53.4320 C.3       23 UNK        -0.0205 
    127 H127       -0.1617  -16.9349  -51.0171 H         1 UNK         0.0600 
    128 H128       -0.6987  -15.5863  -52.0204 H         1 UNK         0.0600 
    129 H129       -1.3866  -15.8196  -50.4102 H         1 UNK         0.0600 
    130 H130        0.6960  -13.8756  -52.0316 H         1 UNK         0.3000 
    131 H131        2.1985  -12.3853  -51.6396 H         1 UNK         0.0600 
    132 H132        4.1811  -12.8406  -50.0484 H         1 UNK         0.0800 
    133 H133        3.4663  -14.3938  -49.7247 H         1 UNK         0.0800 
    134 H134        5.6392  -15.6079  -50.5376 H         1 UNK         0.0800 
    135 H135        5.7851  -16.0976  -52.2072 H         1 UNK         0.0800 
    136 H136        3.6371  -17.0604  -53.3665 H         1 UNK         0.1150 
    137 H137        1.2376  -19.5093  -50.7928 H         1 UNK         0.1150 
    138 H138        4.1686  -16.8627  -49.1211 H         1 UNK         0.1150 
    139 H139        2.9420  -18.2132  -47.6644 H         1 UNK         0.0800 
    140 H140        1.2870  -18.3370  -48.1854 H         1 UNK         0.0800 
    141 H141        0.4160  -21.4208  -49.0358 H         1 UNK         0.0800 
    142 H142        0.0585  -20.1439  -47.9029 H         1 UNK         0.0800 
    143 H143        1.1053  -22.9085  -47.1835 H         1 UNK         0.0600 
    144 H144        0.6822  -20.5484  -45.4556 H         1 UNK         0.3000 
    145 H145        2.0963  -22.2351  -42.6234 H         1 UNK         0.0600 
    146 H146        2.9526  -19.8146  -44.2975 H         1 UNK         0.0600 
    147 H147        3.3574  -20.0915  -42.6043 H         1 UNK         0.0600 
    148 H148        3.9764  -21.1695  -43.8460 H         1 UNK         0.0600 
    149 H149        0.8134  -19.6824  -43.0245 H         1 UNK         0.3000 
    150 H150       -2.4620  -20.6813  -42.2738 H         1 UNK         0.0600 
    151 H151       -1.7679  -20.8220  -39.9665 H         1 UNK         0.0600 
    152 H152       -2.2394  -19.1558  -40.2630 H         1 UNK         0.0600 
    153 H153       -0.5332  -19.5946  -40.1668 H         1 UNK         0.0600 
    154 H154       -0.7147  -18.2760  -42.4168 H         1 UNK         0.3000 
    155 H155       -1.8505  -17.5835  -45.7409 H         1 UNK         0.0600 
    156 H156       -3.7172  -16.6154  -44.4087 H         1 UNK         0.0600 
    157 H157       -2.5759  -16.0373  -43.2016 H         1 UNK         0.0600 
    158 H158       -2.5332  -15.3916  -44.8403 H         1 UNK         0.0600 
    159 H159       -0.2340  -15.9834  -44.1078 H         1 UNK         0.3000 
    160 H160        2.8837  -17.4608  -45.1890 H         1 UNK         0.0600 
    161 H161        3.0694  -15.0765  -45.9070 H         1 UNK         0.0600 
    162 H162        1.9961  -15.9853  -46.9572 H         1 UNK         0.0600 
    163 H163        1.3225  -14.8868  -45.7609 H         1 UNK         0.0600 
    164 H164        1.5645  -15.5967  -43.2461 H         1 UNK         0.3000 
    165 H165        3.4730  -16.9107  -40.6308 H         1 UNK         0.0600 
    166 H166        4.1302  -14.5907  -40.0436 H         1 UNK         0.0600 
    167 H167        5.1295  -15.1768  -41.3630 H         1 UNK         0.0600 
    168 H168        3.8162  -14.0535  -41.6949 H         1 UNK         0.0600 
    169 H169        1.6976  -14.7334  -40.5806 H         1 UNK         0.3000 
    170 H170       -1.3979  -16.3172  -41.0976 H         1 UNK         0.0600 
    171 H171       -0.9060  -17.0268  -38.7521 H         1 UNK         0.0600 
    172 H172       -0.2146  -15.4446  -38.4115 H         1 UNK         0.0600 
    173 H173       -1.9295  -15.6012  -38.7956 H         1 UNK         0.0600 
    174 H174       -0.9927  -13.7570  -40.1399 H         1 UNK         0.3000 
    175 H175       -1.4294  -12.0098  -41.4944 H         1 UNK         0.0600 
    176 H176        1.3705  -11.8962  -42.7600 H         1 UNK         0.0600 
    177 H177        0.4854  -10.5213  -42.0987 H         1 UNK         0.0600 
    178 H178        1.0271  -11.8101  -41.0365 H         1 UNK         0.0600 
    179 H179       -0.5828  -11.5525  -44.1992 H         1 UNK         0.3000 
    180 H180       -3.1965  -12.8159  -45.9771 H         1 UNK         0.0600 
    181 H181       -3.4185   -9.8981  -45.0573 H         1 UNK         0.0600 
    182 H182       -4.7114  -11.0907  -45.0203 H         1 UNK         0.0600 
    183 H183       -4.0648  -10.5543  -46.5619 H         1 UNK         0.0600 
    184 H184       -1.3764  -10.5262  -46.2469 H         1 UNK         0.3000 
    185 H185        0.2418  -10.7124  -47.8294 H         1 UNK         0.0600 
    186 H186        2.5149  -11.0540  -46.8247 H         1 UNK         0.0600 
    187 H187        1.3002  -10.9430  -45.5637 H         1 UNK         0.0600 
    188 H188        1.9539  -12.5132  -46.0131 H         1 UNK         0.0600 
    189 H189        0.7937  -13.4974  -48.5413 H         1 UNK         0.3000 
    190 H190       -1.0170  -22.5537  -44.9024 H         1 UNK         0.3000 
    191 H191       -3.4462  -23.4140  -46.3617 H         1 UNK         0.0600 
    192 H192       -2.8692  -23.2048  -43.3577 H         1 UNK         0.0600 
    193 H193       -4.4082  -23.6329  -44.0903 H         1 UNK         0.0600 
    194 H194       -3.7522  -22.0201  -44.3201 H         1 UNK         0.0600 
    195 H195       -3.6366  -25.5299  -46.9278 H         1 UNK         0.3000 
    196 H196       -2.6470  -27.7796  -45.5018 H         1 UNK         0.0600 
    197 H197       -0.9479  -28.4881  -47.2344 H         1 UNK         0.0600 
    198 H198       -0.4364  -26.9980  -46.4764 H         1 UNK         0.0600 
    199 H199       -1.1570  -26.9587  -48.0815 H         1 UNK         0.0600 
    200 H200       -2.8124  -29.7103  -47.2941 H         1 UNK         0.3000 
    201 H201       -5.4784  -29.8243  -48.2262 H         1 UNK         0.0600 
    202 H202       -4.1431  -31.8256  -47.6242 H         1 UNK         0.0600 
    203 H203       -3.0431  -31.5329  -48.9723 H         1 UNK         0.0600 
    204 H204       -4.7213  -31.9651  -49.2762 H         1 UNK         0.0600 
    205 H205       -2.5842  -28.6431  -49.8130 H         1 UNK         0.3000 
    206 H206       -3.6219  -28.5553  -52.5138 H         1 UNK         0.0600 
    207 H207       -1.1830  -28.5907  -52.0246 H         1 UNK         0.0600 
    208 H208       -1.6071  -27.1282  -52.8988 H         1 UNK         0.0600 
    209 H209       -1.3079  -27.0542  -51.1668 H         1 UNK         0.0600 
    210 H210       -4.1197  -26.6241  -49.6851 H         1 UNK         0.3000 
    211 H211       -5.0969  -24.7288  -49.1567 H         1 UNK         0.0600 
    212 H212       -6.7303  -25.1743  -51.7082 H         1 UNK         0.0600 
    213 H213       -7.2306  -24.2614  -50.2914 H         1 UNK         0.0600 
    214 H214       -7.0052  -25.9972  -50.1730 H         1 UNK         0.0600 
    215 H215       -2.6563  -24.2908  -50.5858 H         1 UNK         0.3000 
    216 H216       -2.7686  -22.5028  -52.6956 H         1 UNK         0.0600 
    217 H217       -0.3667  -22.0038  -52.0851 H         1 UNK         0.0600 
    218 H218       -0.5924  -22.8954  -50.5838 H         1 UNK         0.0600 
    219 H219       -0.7338  -23.7210  -52.1323 H         1 UNK         0.0600 
    220 H220       -2.7178  -21.6727  -49.2180 H         1 UNK         0.3000 
    221 H221       -2.5496  -18.8423  -49.5284 H         1 UNK         0.0600 
    222 H222       -3.7277  -20.5705  -47.2868 H         1 UNK         0.0600 
    223 H223       -2.1177  -19.8632  -47.3492 H         1 UNK         0.0600 
    224 H224       -3.5179  -18.8290  -47.1793 H         1 UNK         0.0600 
    225 H225       -5.3868  -21.0189  -49.3254 H         1 UNK         0.3000 
    226 H226       -7.3533  -18.9016  -49.3534 H         1 UNK         0.0600 
    227 H227       -7.7840  -21.0888  -48.2572 H         1 UNK         0.0600 
    228 H228       -8.9586  -20.8003  -49.5316 H         1 UNK         0.0600 
    229 H229       -7.6307  -21.9206  -49.8047 H         1 UNK         0.0600 
    230 H230       -5.9481  -21.0828  -51.7890 H         1 UNK         0.3000 
    231 H231       -7.5807  -20.2060  -53.9982 H         1 UNK         0.0600 
    232 H232       -5.9871  -21.6040  -55.3046 H         1 UNK         0.0600 
    233 H233       -6.4982  -22.4590  -53.8579 H         1 UNK         0.0600 
    234 H234       -4.9058  -21.7061  -53.9203 H         1 UNK         0.0600 
    235 H235       -5.0910  -18.6087  -52.3714 H         1 UNK         0.3000 
    236 H236       -3.6987  -16.9214  -52.7193 H         1 UNK         0.0600 
    237 H237       -4.4088  -15.0858  -54.2220 H         1 UNK         0.0600 
    238 H238       -5.7946  -15.7135  -53.3440 H         1 UNK         0.0600 
    239 H239       -5.5532  -16.1440  -55.0365 H         1 UNK         0.0600 
    240 H240       -2.7178  -19.2057  -53.5346 H         1 UNK         0.3000 
    241 H241       -1.1212  -20.2216  -54.5947 H         1 UNK         0.0600 
    242 H242       -3.6535  -20.5357  -57.5930 H         1 UNK         0.3800 
    243 H243       -3.9743  -19.5725  -56.1750 H         1 UNK         0.3800 
    244 H244       -0.4414  -17.7713  -56.2745 H         1 UNK         0.0800 
    245 H245        0.5838  -19.1436  -55.9721 H         1 UNK         0.0800 
    246 H246        2.3771  -19.1594  -54.2046 H         1 UNK         0.0800 
    247 H247        1.1143  -19.8214  -53.1852 H         1 UNK         0.0800 
@<TRIPOS>BOND
     1    1    2 1    
     2    1  127 1    
     3    1  128 1    
     4    1  129 1    
     5    2    3 2    
     6    2    4 am   BACKBONE|DICT|INTERRES
     7    4    5 1    
     8    4  130 1    
     9    5    6 1    
    10    5   65 1    
    11    5  131 1    
    12    6    7 1    
    13    6  132 1    
    14    6  133 1    
    15    7    8 1    
    16    8    9 1    
    17    8  134 1    
    18    8  135 1    
    19    9   10 ar   
    20    9   14 ar   
    21   10   11 ar   
    22   10  136 1    
    23   11   12 ar   
    24   11  126 1    
    25   12   13 ar   
    26   12  137 1    
    27   13   14 ar   
    28   13   15 1    
    29   14  138 1    
    30   15   16 1    
    31   15  139 1    
    32   15  140 1    
    33   16   17 1    
    34   17   18 1    
    35   17  141 1    
    36   17  142 1    
    37   18   19 1    
    38   18   67 1    
    39   18  143 1    
    40   19   20 am   BACKBONE|DICT|INTERRES
    41   19  144 1    
    42   20   21 2    
    43   20   22 1    
    44   22   23 1    
    45   22   24 1    
    46   22  145 1    
    47   23  146 1    
    48   23  147 1    
    49   23  148 1    
    50   24   25 am   BACKBONE|DICT|INTERRES
    51   24  149 1    
    52   25   26 2    
    53   25   27 1    
    54   27   28 1    
    55   27   29 1    
    56   27  150 1    
    57   28  151 1    
    58   28  152 1    
    59   28  153 1    
    60   29   30 am   BACKBONE|DICT|INTERRES
    61   29  154 1    
    62   30   31 2    
    63   30   32 1    
    64   32   33 1    
    65   32   34 1    
    66   32  155 1    
    67   33  156 1    
    68   33  157 1    
    69   33  158 1    
    70   34   35 am   BACKBONE|DICT|INTERRES
    71   34  159 1    
    72   35   36 2    
    73   35   37 1    
    74   37   38 1    
    75   37   39 1    
    76   37  160 1    
    77   38  161 1    
    78   38  162 1    
    79   38  163 1    
    80   39   40 am   BACKBONE|DICT|INTERRES
    81   39  164 1    
    82   40   41 2    
    83   40   42 1    
    84   42   43 1    
    85   42   44 1    
    86   42  165 1    
    87   43  166 1    
    88   43  167 1    
    89   43  168 1    
    90   44   45 am   BACKBONE|DICT|INTERRES
    91   44  169 1    
    92   45   46 2    
    93   45   47 1    
    94   47   48 1    
    95   47   49 1    
    96   47  170 1    
    97   48  171 1    
    98   48  172 1    
    99   48  173 1    
   100   49   50 am   BACKBONE|DICT|INTERRES
   101   49  174 1    
   102   50   51 2    
   103   50   52 1    
   104   52   53 1    
   105   52   54 1    
   106   52  175 1    
   107   53  176 1    
   108   53  177 1    
   109   53  178 1    
   110   54   55 am   BACKBONE|DICT|INTERRES
   111   54  179 1    
   112   55   56 2    
   113   55   57 1    
   114   57   58 1    
   115   57   59 1    
   116   57  180 1    
   117   58  181 1    
   118   58  182 1    
   119   58  183 1    
   120   59   60 am   BACKBONE|DICT|INTERRES
   121   59  184 1    
   122   60   61 2    
   123   60   62 1    
   124   62   63 1    
   125   62   64 1    
   126   62  185 1    
   127   63  186 1    
   128   63  187 1    
   129   63  188 1    
   130   64   65 am   BACKBONE|DICT|INTERRES
   131   64  189 1    
   132   65   66 2    
   133   67   68 2    
   134   67   69 am   BACKBONE|DICT|INTERRES
   135   69   70 1    
   136   69  190 1    
   137   70   71 1    
   138   70   72 1    
   139   70  191 1    
   140   71  192 1    
   141   71  193 1    
   142   71  194 1    
   143   72   73 2    
   144   72   74 am   BACKBONE|DICT|INTERRES
   145   74   75 1    
   146   74  195 1    
   147   75   76 1    
   148   75   77 1    
   149   75  196 1    
   150   76  197 1    
   151   76  198 1    
   152   76  199 1    
   153   77   78 2    
   154   77   79 am   BACKBONE|DICT|INTERRES
   155   79   80 1    
   156   79  200 1    
   157   80   81 1    
   158   80   82 1    
   159   80  201 1    
   160   81  202 1    
   161   81  203 1    
   162   81  204 1    
   163   82   83 2    
   164   82   84 am   BACKBONE|DICT|INTERRES
   165   84   85 1    
   166   84  205 1    
   167   85   86 1    
   168   85   87 1    
   169   85  206 1    
   170   86  207 1    
   171   86  208 1    
   172   86  209 1    
   173   87   88 2    
   174   87   89 am   BACKBONE|DICT|INTERRES
   175   89   90 1    
   176   89  210 1    
   177   90   91 1    
   178   90   92 1    
   179   90  211 1    
   180   91  212 1    
   181   91  213 1    
   182   91  214 1    
   183   92   93 2    
   184   92   94 am   BACKBONE|DICT|INTERRES
   185   94   95 1    
   186   94  215 1    
   187   95   96 1    
   188   95   97 1    
   189   95  216 1    
   190   96  217 1    
   191   96  218 1    
   192   96  219 1    
   193   97   98 2    
   194   97   99 am   BACKBONE|DICT|INTERRES
   195   99  100 1    
   196   99  220 1    
   197  100  101 1    
   198  100  102 1    
   199  100  221 1    
   200  101  222 1    
   201  101  223 1    
   202  101  224 1    
   203  102  103 2    
   204  102  104 am   BACKBONE|DICT|INTERRES
   205  104  105 1    
   206  104  225 1    
   207  105  106 1    
   208  105  107 1    
   209  105  226 1    
   210  106  227 1    
   211  106  228 1    
   212  106  229 1    
   213  107  108 2    
   214  107  109 am   BACKBONE|DICT|INTERRES
   215  109  110 1    
   216  109  230 1    
   217  110  111 1    
   218  110  112 1    
   219  110  231 1    
   220  111  232 1    
   221  111  233 1    
   222  111  234 1    
   223  112  113 2    
   224  112  114 am   BACKBONE|DICT|INTERRES
   225  114  115 1    
   226  114  235 1    
   227  115  116 1    
   228  115  117 1    
   229  115  236 1    
   230  116  237 1    
   231  116  238 1    
   232  116  239 1    
   233  117  118 2    
   234  117  119 am   BACKBONE|DICT|INTERRES
   235  119  120 1    
   236  119  240 1    
   237  120  121 1    
   238  120  124 1    
   239  120  241 1    
   240  121  122 am   BACKBONE|DICT|INTERRES
   241  121  123 2    
   242  122  242 1    
   243  122  243 1    
   244  124  125 1    
   245  124  244 1    
   246  124  245 1    
   247  125  126 1    
   248  126  246 1    
   249  126  247 1    
@<TRIPOS>SUBSTRUCTURE
     1 UNK         1 GROUP             0       ****    0 ROOT    
