@<TRIPOS>MOLECULE
3R540
247   249    1
SMALL
USER_CHARGES


@<TRIPOS>ATOM
      1 CA         -1.8703   -9.4142  -47.7706 C.3       0 UNK        -0.1800 
      2 C          -0.9677  -10.6281  -47.6018 C.2       0 UNK         0.5000 
      3 O           0.2311  -10.4712  -47.3740 O.2       0 UNK        -0.5000 
      4 N          -1.5397  -11.8347  -47.7142 N.am      1 UNK        -0.5000 
      5 CA         -0.8366  -13.1127  -47.5383 C.3       1 UNK         0.1400 
      6 C6         -1.6270  -14.2798  -48.1862 C.3       23 UNK        -0.0398 
      7 S7         -0.5497  -15.6715  -48.6646 S.3       23 UNK        -0.2404 
      8 C8         -1.2885  -16.2208  -50.2330 C.3       23 UNK        -0.0205 
      9 C9         -2.6678  -16.8289  -50.0282 C.ar      23 UNK        -0.0193 
     10 C10        -3.7990  -16.2091  -50.5679 C.ar      23 UNK        -0.1150 
     11 C11        -5.0683  -16.7618  -50.3778 C.ar      23 UNK        -0.0193 
     12 C12        -5.2016  -17.9368  -49.6340 C.ar      23 UNK        -0.1150 
     13 C13        -4.0808  -18.5614  -49.0835 C.ar      23 UNK        -0.0193 
     14 C14        -2.8138  -18.0097  -49.2923 C.ar      23 UNK        -0.1150 
     15 C15        -4.2542  -19.8103  -48.2374 C.3       23 UNK        -0.0205 
     16 S16        -4.8472  -19.3596  -46.5759 S.3       23 UNK        -0.2404 
     17 C17        -5.1537  -20.9421  -45.7062 C.3       23 UNK        -0.0398 
     18 CA         -4.3250  -22.1672  -46.1611 C.3       11 UNK         0.1400 
     19 N          -2.8767  -21.9402  -46.0677 N.am      11 UNK        -0.5000 
     20 C          -1.9434  -22.7744  -46.5526 C.2       10 UNK         0.5000 
     21 O          -2.2199  -23.8439  -47.0967 O.2       10 UNK        -0.5000 
     22 CA         -0.4641  -22.3686  -46.4216 C.3       10 UNK         0.1400 
     23 CB         -0.0064  -21.6971  -47.7253 C.3       10 UNK        -0.1800 
     24 N          -0.1873  -21.4690  -45.3021 N.am      10 UNK        -0.5000 
     25 C          -0.4035  -21.7396  -44.0042 C.2       9 UNK         0.5000 
     26 O          -0.7877  -22.8346  -43.5931 O.2       9 UNK        -0.5000 
     27 CA         -0.2227  -20.5744  -43.0034 C.3       9 UNK         0.1400 
     28 CB          1.1679  -20.6333  -42.3550 C.3       9 UNK        -0.1800 
     29 N          -0.4075  -19.2516  -43.6087 N.am      9 UNK        -0.5000 
     30 C          -1.5098  -18.8515  -44.2605 C.2       8 UNK         0.5000 
     31 O          -2.5538  -19.5011  -44.2563 O.2       8 UNK        -0.5000 
     32 CA         -1.4218  -17.5680  -45.1161 C.3       8 UNK         0.1400 
     33 CB         -2.2660  -16.4483  -44.4914 C.3       8 UNK        -0.1800 
     34 N          -0.0595  -17.0726  -45.3470 N.am      8 UNK        -0.5000 
     35 C           0.9488  -17.7417  -45.9286 C.2       7 UNK         0.5000 
     36 O           0.8328  -18.8759  -46.3920 O.2       7 UNK        -0.5000 
     37 CA          2.3353  -17.0683  -45.9191 C.3       7 UNK         0.1400 
     38 CB          2.7090  -16.5135  -47.3010 C.3       7 UNK        -0.1800 
     39 N           2.4318  -15.9923  -44.9334 N.am      7 UNK        -0.5000 
     40 C           2.5362  -16.1580  -43.6093 C.2       6 UNK         0.5000 
     41 O           2.5929  -17.2659  -43.0728 O.2       6 UNK        -0.5000 
     42 CA          2.5319  -14.8761  -42.7445 C.3       6 UNK         0.1400 
     43 CB          3.3343  -15.0408  -41.4381 C.3       6 UNK        -0.1800 
     44 N           2.9538  -13.6610  -43.4541 N.am      6 UNK        -0.5000 
     45 C           4.1381  -13.4269  -44.0397 C.2       5 UNK         0.5000 
     46 O           5.0582  -14.2426  -44.1055 O.2       5 UNK        -0.5000 
     47 CA          4.3279  -12.0193  -44.6274 C.3       5 UNK         0.1400 
     48 CB          3.5723  -11.8668  -45.9581 C.3       5 UNK        -0.1800 
     49 N           3.8982  -10.9868  -43.6815 N.am      5 UNK        -0.5000 
     50 C           4.6101  -10.6204  -42.6042 C.2       4 UNK         0.5000 
     51 O           5.7204  -11.0821  -42.3365 O.2       4 UNK        -0.5000 
     52 CA          4.0084   -9.5514  -41.6703 C.3       4 UNK         0.1400 
     53 CB          4.6488   -8.1811  -41.9431 C.3       4 UNK        -0.1800 
     54 N           2.5565   -9.4213  -41.7856 N.am      4 UNK        -0.5000 
     55 C           1.6651  -10.2714  -41.2604 C.2       3 UNK         0.5000 
     56 O           1.9761  -11.2603  -40.5936 O.2       3 UNK        -0.5000 
     57 CA          0.1700   -9.9803  -41.5277 C.3       3 UNK         0.1400 
     58 CB         -0.0853   -8.7232  -42.3911 C.3       3 UNK        -0.1800 
     59 N          -0.5333  -11.1274  -42.1123 N.am      3 UNK        -0.5000 
     60 C          -0.1807  -11.8132  -43.2093 C.2       2 UNK         0.5000 
     61 O           0.8613  -11.6014  -43.8326 O.2       2 UNK        -0.5000 
     62 CA         -1.1386  -12.9256  -43.6895 C.3       2 UNK         0.1400 
     63 CB         -2.5248  -12.8971  -43.0150 C.3       2 UNK        -0.1800 
     64 N          -1.3235  -12.8477  -45.1376 N.am      2 UNK        -0.5000 
     65 C          -0.5127  -13.3975  -46.0523 C.2       1 UNK         0.5000 
     66 O           0.4516  -14.1047  -45.7603 O.2       1 UNK        -0.5000 
     67 C          -4.7718  -23.4345  -45.4003 C.2       11 UNK         0.5000 
     68 O          -5.7011  -24.1084  -45.8453 O.2       11 UNK        -0.5000 
     69 N          -4.0606  -23.7761  -44.3152 N.am      12 UNK        -0.5000 
     70 CA         -4.2501  -25.0052  -43.5397 C.3       12 UNK         0.1400 
     71 CB         -3.4696  -24.8844  -42.2221 C.3       12 UNK        -0.1800 
     72 C          -3.8323  -26.2826  -44.2993 C.2       12 UNK         0.5000 
     73 O          -4.2758  -27.3722  -43.9365 O.2       12 UNK        -0.5000 
     74 N          -3.0089  -26.1264  -45.3438 N.am      13 UNK        -0.5000 
     75 CA         -2.5394  -27.1823  -46.2384 C.3       13 UNK         0.1400 
     76 CB         -1.0087  -27.0696  -46.3620 C.3       13 UNK        -0.1800 
     77 C          -3.2397  -27.0979  -47.6105 C.2       13 UNK         0.5000 
     78 O          -2.6526  -27.4964  -48.6170 O.2       13 UNK        -0.5000 
     79 N          -4.4699  -26.5593  -47.6387 N.am      14 UNK        -0.5000 
     80 CA         -5.3189  -26.3552  -48.8195 C.3       14 UNK         0.1400 
     81 CB         -5.7673  -27.7075  -49.4127 C.3       14 UNK        -0.1800 
     82 C          -4.6524  -25.4322  -49.8591 C.2       14 UNK         0.5000 
     83 O          -4.5424  -25.7873  -51.0344 O.2       14 UNK        -0.5000 
     84 N          -4.1689  -24.2782  -49.3760 N.am      15 UNK        -0.5000 
     85 CA         -3.3901  -23.2754  -50.1124 C.3       15 UNK         0.1400 
     86 CB         -4.2501  -22.6154  -51.2136 C.3       15 UNK        -0.1800 
     87 C          -2.0565  -23.8581  -50.6249 C.2       15 UNK         0.5000 
     88 O          -1.6678  -23.6038  -51.7639 O.2       15 UNK        -0.5000 
     89 N          -1.4055  -24.6653  -49.7726 N.am      16 UNK        -0.5000 
     90 CA         -0.2107  -25.4743  -50.0424 C.3       16 UNK         0.1400 
     91 CB          1.0363  -24.5747  -50.1706 C.3       16 UNK        -0.1800 
     92 C          -0.4089  -26.4201  -51.2461 C.2       16 UNK         0.5000 
     93 O           0.4201  -26.4493  -52.1545 O.2       16 UNK        -0.5000 
     94 N          -1.5429  -27.1358  -51.2477 N.am      17 UNK        -0.5000 
     95 CA         -2.0697  -27.9572  -52.3440 C.3       17 UNK         0.1400 
     96 CB         -1.2043  -29.2180  -52.5472 C.3       17 UNK        -0.1800 
     97 C          -2.2733  -27.1388  -53.6396 C.2       17 UNK         0.5000 
     98 O          -1.8733  -27.5704  -54.7226 O.2       17 UNK        -0.5000 
     99 N          -2.8788  -25.9535  -53.4804 N.am      18 UNK        -0.5000 
    100 CA        -3.1473  -24.9325  -54.4989 C.3       18 UNK         0.1400 
    101 CB        -4.1858  -25.4428  -55.5193 C.3       18 UNK        -0.1800 
    102 C         -1.8847  -24.3393  -55.1676 C.2       18 UNK         0.5000 
    103 O         -1.9613  -23.8778  -56.3079 O.2       18 UNK        -0.5000 
    104 N         -0.7508  -24.3390  -54.4535 N.am      19 UNK        -0.5000 
    105 CA         0.4905  -23.6888  -54.8776 C.3       19 UNK         0.1400 
    106 CB         1.6951  -24.4268  -54.2768 C.3       19 UNK        -0.1800 
    107 C          0.5289  -22.1988  -54.4906 C.2       19 UNK         0.5000 
    108 O          1.1953  -21.4208  -55.1758 O.2       19 UNK        -0.5000 
    109 N         -0.1742  -21.8191  -53.4128 N.am      20 UNK        -0.5000 
    110 CA        -0.3566  -20.4286  -52.9939 C.3       20 UNK         0.1400 
    111 CB        -0.7817  -20.3898  -51.5165 C.3       20 UNK        -0.1800 
    112 C         -1.3736  -19.7021  -53.8976 C.2       20 UNK         0.5000 
    113 O         -2.1035  -20.3482  -54.6540 O.2       20 UNK        -0.5000 
    114 N         -1.3955  -18.3658  -53.7984 N.am      21 UNK        -0.5000 
    115 CA        -2.0823  -17.4318  -54.7008 C.3       21 UNK         0.1400 
    116 CB        -1.9201  -16.0046  -54.1552 C.3       21 UNK        -0.1800 
    117 C         -3.5687  -17.7206  -54.9949 C.2       21 UNK         0.5000 
    118 O         -4.0110  -17.4719  -56.1178 O.2       21 UNK        -0.5000 
    119 N         -4.2999  -18.2404  -54.0022 N.am      22 UNK        -0.5000 
    120 CA        -5.7176  -18.6256  -54.1253 C.3       22 UNK         0.1400 
    121 C         -5.9324  -20.1534  -54.3395 C.2       22 UNK         0.5000 
    122 N         -4.8968  -20.9631  -54.5242 N.am      22 UNK        -0.7600 
    123 O         -7.0688  -20.6186  -54.3586 O.2       22 UNK        -0.5000 
    124 C124       -6.5772  -18.0849  -52.9532 C.3       23 UNK        -0.0398 
    125 S125       -6.4340  -16.2719  -52.7576 S.3       23 UNK        -0.2404 
    126 C126       -6.3016  -16.0800  -50.9517 C.3       23 UNK        -0.0205 
    127 H127       -1.5201   -8.7987  -48.5992 H         1 UNK         0.0600 
    128 H128       -1.8559   -8.8081  -46.8647 H         1 UNK         0.0600 
    129 H129       -2.9029   -9.7001  -47.9722 H         1 UNK         0.0600 
    130 H130       -2.5275  -11.8953  -47.9174 H         1 UNK         0.3000 
    131 H131        0.1201  -13.0229  -48.0582 H         1 UNK         0.0600 
    132 H132       -2.1255  -13.9265  -49.0899 H         1 UNK         0.0800 
    133 H133       -2.4216  -14.6459  -47.5335 H         1 UNK         0.0800 
    134 H134       -0.6336  -16.9657  -50.6850 H         1 UNK         0.0800 
    135 H135       -1.3245  -15.3816  -50.9292 H         1 UNK         0.0800 
    136 H136       -3.6973  -15.2947  -51.1352 H         1 UNK         0.1150 
    137 H137       -6.1821  -18.3600  -49.4660 H         1 UNK         0.1150 
    138 H138       -1.9415  -18.4820  -48.8621 H         1 UNK         0.1150 
    139 H139       -4.9676  -20.4820  -48.7166 H         1 UNK         0.0800 
    140 H140       -3.3056  -20.3416  -48.1687 H         1 UNK         0.0800 
    141 H141       -6.2187  -21.1560  -45.8145 H         1 UNK         0.0800 
    142 H142       -4.9958  -20.7600  -44.6416 H         1 UNK         0.0800 
    143 H143       -4.5566  -22.3522  -47.2104 H         1 UNK         0.0600 
    144 H144       -2.5925  -21.0874  -45.5968 H         1 UNK         0.3000 
    145 H145        0.1159  -23.2817  -46.2747 H         1 UNK         0.0600 
    146 H146       -0.5170  -20.7470  -47.8885 H         1 UNK         0.0600 
    147 H147        1.0661  -21.5024  -47.7143 H         1 UNK         0.0600 
    148 H148       -0.2142  -22.3250  -48.5908 H         1 UNK         0.0600 
    149 H149        0.1425  -20.5418  -45.5552 H         1 UNK         0.3000 
    150 H150       -0.9761  -20.6920  -42.2221 H         1 UNK         0.0600 
    151 H151        1.3346  -21.5970  -41.8720 H         1 UNK         0.0600 
    152 H152        1.2805  -19.8632  -41.5915 H         1 UNK         0.0600 
    153 H153        1.9603  -20.4917  -43.0915 H         1 UNK         0.0600 
    154 H154        0.4108  -18.6604  -43.6512 H         1 UNK         0.3000 
    155 H155       -1.8476  -17.8104  -46.0921 H         1 UNK         0.0600 
    156 H156       -3.2876  -16.7839  -44.3072 H         1 UNK         0.0600 
    157 H157       -2.3302  -15.5875  -45.1549 H         1 UNK         0.0600 
    158 H158       -1.8520  -16.1161  -43.5391 H         1 UNK         0.0600 
    159 H159        0.1287  -16.1166  -45.0722 H         1 UNK         0.3000 
    160 H160        3.0617  -17.8414  -45.6603 H         1 UNK         0.0600 
    161 H161        3.7606  -16.2285  -47.3344 H         1 UNK         0.0600 
    162 H162        2.1214  -15.6310  -47.5522 H         1 UNK         0.0600 
    163 H163        2.5469  -17.2557  -48.0838 H         1 UNK         0.0600 
    164 H164        2.2697  -15.0541  -45.2808 H         1 UNK         0.3000 
    165 H165        1.4906  -14.7113  -42.4669 H         1 UNK         0.0600 
    166 H166        4.3828  -15.2673  -41.6337 H         1 UNK         0.0600 
    167 H167        3.2937  -14.1329  -40.8357 H         1 UNK         0.0600 
    168 H168        2.9325  -15.8509  -40.8285 H         1 UNK         0.0600 
    169 H169        2.2612  -12.9191  -43.5087 H         1 UNK         0.3000 
    170 H170        5.3916  -11.8821  -44.8339 H         1 UNK         0.0600 
    171 H171        2.4961  -11.9917  -45.8380 H         1 UNK         0.0600 
    172 H172        3.7453  -10.8851  -46.3990 H         1 UNK         0.0600 
    173 H173        3.9058  -12.6118  -46.6814 H         1 UNK         0.0600 
    174 H174        2.9646  -10.6170  -43.8044 H         1 UNK         0.3000 
    175 H175        4.2502   -9.8399  -40.6450 H         1 UNK         0.0600 
    176 H176        4.4355   -7.8311  -42.9539 H         1 UNK         0.0600 
    177 H177        4.2855   -7.4289  -41.2426 H         1 UNK         0.0600 
    178 H178        5.7332   -8.2272  -41.8339 H         1 UNK         0.0600 
    179 H179        2.2152   -8.6414  -42.3284 H         1 UNK         0.3000 
    180 H180       -0.2809   -9.8059  -40.5498 H         1 UNK         0.0600 
    181 H181        0.3378   -8.8200  -43.3920 H         1 UNK         0.0600 
    182 H182        0.3367   -7.8295  -41.9296 H         1 UNK         0.0600 
    183 H183       -1.1544   -8.5432  -42.5055 H         1 UNK         0.0600 
    184 H184       -1.3831  -11.3994  -41.6392 H         1 UNK         0.3000 
    185 H185       -0.6684  -13.8778  -43.4385 H         1 UNK         0.0600 
    186 H186       -3.1670  -13.6840  -43.4110 H         1 UNK         0.0600 
    187 H187       -2.4496  -13.0657  -41.9401 H         1 UNK         0.0600 
    188 H188       -3.0351  -11.9461  -43.1740 H         1 UNK         0.0600 
    189 H189       -2.0619  -12.2424  -45.4633 H         1 UNK         0.3000 
    190 H190       -3.2841  -23.1888  -44.0412 H         1 UNK         0.3000 
    191 H191       -5.3119  -25.0974  -43.3022 H         1 UNK         0.0600 
    192 H192       -2.3973  -24.7899  -42.3978 H         1 UNK         0.0600 
    193 H193       -3.7938  -24.0159  -41.6485 H         1 UNK         0.0600 
    194 H194       -3.6229  -25.7633  -41.5945 H         1 UNK         0.0600 
    195 H195       -2.7288  -25.1884  -45.6047 H         1 UNK         0.3000 
    196 H196       -2.7728  -28.1652  -45.8250 H         1 UNK         0.0600 
    197 H197       -0.5305  -27.1539  -45.3861 H         1 UNK         0.0600 
    198 H198       -0.7088  -26.1161  -46.7971 H         1 UNK         0.0600 
    199 H199       -0.6014  -27.8634  -46.9892 H         1 UNK         0.0600 
    200 H200       -4.8549  -26.2260  -46.7650 H         1 UNK         0.3000 
    201 H201       -6.2127  -25.8341  -48.4732 H         1 UNK         0.0600 
    202 H202       -6.4825  -27.5587  -50.2226 H         1 UNK         0.0600 
    203 H203       -6.2548  -28.3258  -48.6591 H         1 UNK         0.0600 
    204 H204       -4.9290  -28.2738  -49.8197 H         1 UNK         0.0600 
    205 H205       -4.2295  -24.1361  -48.3782 H         1 UNK         0.3000 
    206 H206       -3.1197  -22.4963  -49.4002 H         1 UNK         0.0600 
    207 H207       -5.1384  -22.1492  -50.7879 H         1 UNK         0.0600 
    208 H208       -4.5830  -23.3347  -51.9604 H         1 UNK         0.0600 
    209 H209       -3.7049  -21.8368  -51.7445 H         1 UNK         0.0600 
    210 H210       -1.8037  -24.7688  -48.8457 H         1 UNK         0.3000 
    211 H211       -0.0634  -26.1197  -49.1759 H         1 UNK         0.0600 
    212 H212        1.2333  -24.0446  -49.2399 H         1 UNK         0.0600 
    213 H213        1.9268  -25.1637  -50.3929 H         1 UNK         0.0600 
    214 H214        0.9256  -23.8338  -50.9624 H         1 UNK         0.0600 
    215 H215       -2.1320  -27.0830  -50.4201 H         1 UNK         0.3000 
    216 H216       -3.0618  -28.2843  -52.0294 H         1 UNK         0.0600 
    217 H217       -1.6570  -29.8873  -53.2795 H         1 UNK         0.0600 
    218 H218       -0.2040  -28.9715  -52.9043 H         1 UNK         0.0600 
    219 H219       -1.1004  -29.7772  -51.6174 H         1 UNK         0.0600 
    220 H220       -3.2031  -25.7228  -52.5459 H         1 UNK         0.3000 
    221 H221       -3.6037  -24.0998  -53.9643 H         1 UNK         0.0600 
    222 H222       -3.7818  -26.2408  -56.1427 H         1 UNK         0.0600 
    223 H223       -5.0750  -25.8251  -55.0179 H         1 UNK         0.0600 
    224 H224       -4.5106  -24.6415  -56.1839 H         1 UNK         0.0600 
    225 H225       -0.7769  -24.7048  -53.5093 H         1 UNK         0.3000 
    226 H226        0.5747  -23.7520  -55.9645 H         1 UNK         0.0600 
    227 H227        1.6794  -25.4857  -54.5355 H         1 UNK         0.0600 
    228 H228        2.6316  -24.0129  -54.6522 H         1 UNK         0.0600 
    229 H229        1.7158  -24.3458  -53.1903 H         1 UNK         0.0600 
    230 H230       -0.7246  -22.5151  -52.9149 H         1 UNK         0.3000 
    231 H231        0.6034  -19.9157  -53.0834 H         1 UNK         0.0600 
    232 H232       -0.7819  -19.3694  -51.1347 H         1 UNK         0.0600 
    233 H233       -0.0979  -20.9663  -50.8930 H         1 UNK         0.0600 
    234 H234       -1.7827  -20.7885  -51.3708 H         1 UNK         0.0600 
    235 H235       -0.7756  -17.9352  -53.1290 H         1 UNK         0.3000 
    236 H236       -1.5576  -17.4857  -55.6567 H         1 UNK         0.0600 
    237 H237       -0.8692  -15.7358  -54.0469 H         1 UNK         0.0600 
    238 H238       -2.3727  -15.2746  -54.8277 H         1 UNK         0.0600 
    239 H239       -2.3997  -15.8929  -53.1831 H         1 UNK         0.0600 
    240 H240       -3.8581  -18.4234  -53.1138 H         1 UNK         0.3000 
    241 H241       -6.1271  -18.1708  -55.0288 H         1 UNK         0.0600 
    242 H242       -3.9426  -20.6113  -54.5636 H         1 UNK         0.3800 
    243 H243       -5.0712  -21.9412  -54.6793 H         1 UNK         0.3800 
    244 H244       -7.6321  -18.3101  -53.1184 H         1 UNK         0.0800 
    245 H245       -6.3052  -18.5932  -52.0295 H         1 UNK         0.0800 
    246 H246       -7.2096  -16.4651  -50.4850 H         1 UNK         0.0800 
    247 H247       -6.2656  -15.0163  -50.7129 H         1 UNK         0.0800 
@<TRIPOS>BOND
     1    1    2 1    
     2    1  127 1    
     3    1  128 1    
     4    1  129 1    
     5    2    3 2    
     6    2    4 am   BACKBONE|DICT|INTERRES
     7    4    5 1    
     8    4  130 1    
     9    5    6 1    
    10    5   65 1    
    11    5  131 1    
    12    6    7 1    
    13    6  132 1    
    14    6  133 1    
    15    7    8 1    
    16    8    9 1    
    17    8  134 1    
    18    8  135 1    
    19    9   10 ar   
    20    9   14 ar   
    21   10   11 ar   
    22   10  136 1    
    23   11   12 ar   
    24   11  126 1    
    25   12   13 ar   
    26   12  137 1    
    27   13   14 ar   
    28   13   15 1    
    29   14  138 1    
    30   15   16 1    
    31   15  139 1    
    32   15  140 1    
    33   16   17 1    
    34   17   18 1    
    35   17  141 1    
    36   17  142 1    
    37   18   19 1    
    38   18   67 1    
    39   18  143 1    
    40   19   20 am   BACKBONE|DICT|INTERRES
    41   19  144 1    
    42   20   21 2    
    43   20   22 1    
    44   22   23 1    
    45   22   24 1    
    46   22  145 1    
    47   23  146 1    
    48   23  147 1    
    49   23  148 1    
    50   24   25 am   BACKBONE|DICT|INTERRES
    51   24  149 1    
    52   25   26 2    
    53   25   27 1    
    54   27   28 1    
    55   27   29 1    
    56   27  150 1    
    57   28  151 1    
    58   28  152 1    
    59   28  153 1    
    60   29   30 am   BACKBONE|DICT|INTERRES
    61   29  154 1    
    62   30   31 2    
    63   30   32 1    
    64   32   33 1    
    65   32   34 1    
    66   32  155 1    
    67   33  156 1    
    68   33  157 1    
    69   33  158 1    
    70   34   35 am   BACKBONE|DICT|INTERRES
    71   34  159 1    
    72   35   36 2    
    73   35   37 1    
    74   37   38 1    
    75   37   39 1    
    76   37  160 1    
    77   38  161 1    
    78   38  162 1    
    79   38  163 1    
    80   39   40 am   BACKBONE|DICT|INTERRES
    81   39  164 1    
    82   40   41 2    
    83   40   42 1    
    84   42   43 1    
    85   42   44 1    
    86   42  165 1    
    87   43  166 1    
    88   43  167 1    
    89   43  168 1    
    90   44   45 am   BACKBONE|DICT|INTERRES
    91   44  169 1    
    92   45   46 2    
    93   45   47 1    
    94   47   48 1    
    95   47   49 1    
    96   47  170 1    
    97   48  171 1    
    98   48  172 1    
    99   48  173 1    
   100   49   50 am   BACKBONE|DICT|INTERRES
   101   49  174 1    
   102   50   51 2    
   103   50   52 1    
   104   52   53 1    
   105   52   54 1    
   106   52  175 1    
   107   53  176 1    
   108   53  177 1    
   109   53  178 1    
   110   54   55 am   BACKBONE|DICT|INTERRES
   111   54  179 1    
   112   55   56 2    
   113   55   57 1    
   114   57   58 1    
   115   57   59 1    
   116   57  180 1    
   117   58  181 1    
   118   58  182 1    
   119   58  183 1    
   120   59   60 am   BACKBONE|DICT|INTERRES
   121   59  184 1    
   122   60   61 2    
   123   60   62 1    
   124   62   63 1    
   125   62   64 1    
   126   62  185 1    
   127   63  186 1    
   128   63  187 1    
   129   63  188 1    
   130   64   65 am   BACKBONE|DICT|INTERRES
   131   64  189 1    
   132   65   66 2    
   133   67   68 2    
   134   67   69 am   BACKBONE|DICT|INTERRES
   135   69   70 1    
   136   69  190 1    
   137   70   71 1    
   138   70   72 1    
   139   70  191 1    
   140   71  192 1    
   141   71  193 1    
   142   71  194 1    
   143   72   73 2    
   144   72   74 am   BACKBONE|DICT|INTERRES
   145   74   75 1    
   146   74  195 1    
   147   75   76 1    
   148   75   77 1    
   149   75  196 1    
   150   76  197 1    
   151   76  198 1    
   152   76  199 1    
   153   77   78 2    
   154   77   79 am   BACKBONE|DICT|INTERRES
   155   79   80 1    
   156   79  200 1    
   157   80   81 1    
   158   80   82 1    
   159   80  201 1    
   160   81  202 1    
   161   81  203 1    
   162   81  204 1    
   163   82   83 2    
   164   82   84 am   BACKBONE|DICT|INTERRES
   165   84   85 1    
   166   84  205 1    
   167   85   86 1    
   168   85   87 1    
   169   85  206 1    
   170   86  207 1    
   171   86  208 1    
   172   86  209 1    
   173   87   88 2    
   174   87   89 am   BACKBONE|DICT|INTERRES
   175   89   90 1    
   176   89  210 1    
   177   90   91 1    
   178   90   92 1    
   179   90  211 1    
   180   91  212 1    
   181   91  213 1    
   182   91  214 1    
   183   92   93 2    
   184   92   94 am   BACKBONE|DICT|INTERRES
   185   94   95 1    
   186   94  215 1    
   187   95   96 1    
   188   95   97 1    
   189   95  216 1    
   190   96  217 1    
   191   96  218 1    
   192   96  219 1    
   193   97   98 2    
   194   97   99 am   BACKBONE|DICT|INTERRES
   195   99  100 1    
   196   99  220 1    
   197  100  101 1    
   198  100  102 1    
   199  100  221 1    
   200  101  222 1    
   201  101  223 1    
   202  101  224 1    
   203  102  103 2    
   204  102  104 am   BACKBONE|DICT|INTERRES
   205  104  105 1    
   206  104  225 1    
   207  105  106 1    
   208  105  107 1    
   209  105  226 1    
   210  106  227 1    
   211  106  228 1    
   212  106  229 1    
   213  107  108 2    
   214  107  109 am   BACKBONE|DICT|INTERRES
   215  109  110 1    
   216  109  230 1    
   217  110  111 1    
   218  110  112 1    
   219  110  231 1    
   220  111  232 1    
   221  111  233 1    
   222  111  234 1    
   223  112  113 2    
   224  112  114 am   BACKBONE|DICT|INTERRES
   225  114  115 1    
   226  114  235 1    
   227  115  116 1    
   228  115  117 1    
   229  115  236 1    
   230  116  237 1    
   231  116  238 1    
   232  116  239 1    
   233  117  118 2    
   234  117  119 am   BACKBONE|DICT|INTERRES
   235  119  120 1    
   236  119  240 1    
   237  120  121 1    
   238  120  124 1    
   239  120  241 1    
   240  121  122 am   BACKBONE|DICT|INTERRES
   241  121  123 2    
   242  122  242 1    
   243  122  243 1    
   244  124  125 1    
   245  124  244 1    
   246  124  245 1    
   247  125  126 1    
   248  126  246 1    
   249  126  247 1    
@<TRIPOS>SUBSTRUCTURE
     1 UNK         1 GROUP             0       ****    0 ROOT    
