@<TRIPOS>MOLECULE
3R540
247   249    1
SMALL
USER_CHARGES


@<TRIPOS>ATOM
      1 CA         -2.0101  -10.9164  -45.5826 C.3       0 UNK        -0.1800 
      2 C          -1.0013  -11.2129  -46.6836 C.2       0 UNK         0.5000 
      3 O          -0.1398  -10.3802  -46.9679 O.2       0 UNK        -0.5000 
      4 N          -1.1124  -12.3914  -47.3070 N.am      1 UNK        -0.5000 
      5 CA         -0.1840  -12.9131  -48.3137 C.3       1 UNK         0.1400 
      6 C6         -0.7671  -14.1473  -49.0546 C.3       23 UNK        -0.0398 
      7 S7         -1.4323  -15.4445  -47.9491 S.3       23 UNK        -0.2404 
      8 C8         -2.5694  -16.3245  -49.0620 C.3       23 UNK        -0.0205 
      9 C9         -1.8314  -17.3680  -49.8826 C.ar      23 UNK        -0.0193 
     10 C10        -1.4004  -17.0840  -51.1809 C.ar      23 UNK        -0.1150 
     11 C11        -0.7118  -18.0493  -51.9222 C.ar      23 UNK        -0.0193 
     12 C12        -0.4520  -19.2993  -51.3533 C.ar      23 UNK        -0.1150 
     13 C13        -0.8752  -19.5940  -50.0548 C.ar      23 UNK        -0.0193 
     14 C14        -1.5738  -18.6243  -49.3296 C.ar      23 UNK        -0.1150 
     15 C15        -0.5747  -20.9590  -49.4507 C.3       23 UNK        -0.0205 
     16 S16         0.8444  -20.9064  -48.3183 S.3       23 UNK        -0.2404 
     17 C17         0.0354  -20.4555  -46.7467 C.3       23 UNK        -0.0398 
     18 CA          0.1363  -21.5773  -45.6878 C.3       11 UNK         0.1400 
     19 N           0.1926  -21.0254  -44.3290 N.am      11 UNK        -0.5000 
     20 C           0.5831  -21.6998  -43.2379 C.2       10 UNK         0.5000 
     21 O           0.8919  -22.8916  -43.2492 O.2       10 UNK        -0.5000 
     22 CA          0.5820  -20.9251  -41.9115 C.3       10 UNK         0.1400 
     23 CB          1.8579  -20.0825  -41.7660 C.3       10 UNK        -0.1800 
     24 N          -0.5989  -20.0668  -41.8042 N.am      10 UNK        -0.5000 
     25 C          -1.7719  -20.4711  -41.2968 C.2       9 UNK         0.5000 
     26 O          -1.9545  -21.5813  -40.7970 O.2       9 UNK        -0.5000 
     27 CA         -2.9490  -19.4806  -41.3776 C.3       9 UNK         0.1400 
     28 CB         -2.9890  -18.5852  -40.1302 C.3       9 UNK        -0.1800 
     29 N          -2.9142  -18.6470  -42.5812 N.am      9 UNK        -0.5000 
     30 C          -3.1327  -19.1114  -43.8208 C.2       8 UNK         0.5000 
     31 O          -3.3970  -20.2862  -44.0676 O.2       8 UNK        -0.5000 
     32 CA         -3.0043  -18.1172  -44.9922 C.3       8 UNK         0.1400 
     33 CB         -4.3795  -17.5448  -45.3669 C.3       8 UNK        -0.1800 
     34 N          -2.0828  -17.0066  -44.7506 N.am      8 UNK        -0.5000 
     35 C          -0.7870  -17.1166  -44.4325 C.2       7 UNK         0.5000 
     36 O          -0.2199  -18.1996  -44.2649 O.2       7 UNK        -0.5000 
     37 CA          0.0060  -15.8086  -44.2324 C.3       7 UNK         0.1400 
     38 CB         -0.8644  -14.5295  -44.2178 C.3       7 UNK        -0.1800 
     39 N           0.8367  -15.8701  -43.0287 N.am      7 UNK        -0.5000 
     40 C           0.4113  -16.0743  -41.7722 C.2       6 UNK         0.5000 
     41 O          -0.7753  -16.2143  -41.4709 O.2       6 UNK        -0.5000 
     42 CA          1.4886  -16.1567  -40.6749 C.3       6 UNK         0.1400 
     43 CB          1.0701  -17.0905  -39.5241 C.3       6 UNK        -0.1800 
     44 N           2.7708  -16.6026  -41.2294 N.am      6 UNK        -0.5000 
     45 C           3.8880  -15.8665  -41.2656 C.2       5 UNK         0.5000 
     46 O           3.9855  -14.7406  -40.7761 O.2       5 UNK        -0.5000 
     47 CA          5.1073  -16.4809  -41.9822 C.3       5 UNK         0.1400 
     48 CB          5.9887  -17.2359  -40.9752 C.3       5 UNK        -0.1800 
     49 N           4.7989  -17.3749  -43.1059 N.am      5 UNK        -0.5000 
     50 C           4.1200  -17.0395  -44.2114 C.2       4 UNK         0.5000 
     51 O           3.5276  -15.9669  -44.3573 O.2       4 UNK        -0.5000 
     52 CA          4.1040  -18.0825  -45.3395 C.3       4 UNK         0.1400 
     53 CB          3.2214  -19.2908  -44.9885 C.3       4 UNK        -0.1800 
     54 N           3.6241  -17.4537  -46.5648 N.am      4 UNK        -0.5000 
     55 C           3.8911  -17.8754  -47.8059 C.2       3 UNK         0.5000 
     56 O           4.5423  -18.8909  -48.0549 O.2       3 UNK        -0.5000 
     57 CA          3.3640  -17.0183  -48.9740 C.3       3 UNK         0.1400 
     58 CB          2.0482  -17.5939  -49.5142 C.3       3 UNK        -0.1800 
     59 N           3.1497  -15.6076  -48.6493 N.am      3 UNK        -0.5000 
     60 C           4.0979  -14.7206  -48.3175 C.2       2 UNK         0.5000 
     61 O           5.2860  -15.0175  -48.1858 O.2       2 UNK        -0.5000 
     62 CA          3.6568  -13.2511  -48.1342 C.3       2 UNK         0.1400 
     63 CB          4.5466  -12.2999  -48.9531 C.3       2 UNK        -0.1800 
     64 N           2.2583  -13.0125  -48.5105 N.am      2 UNK        -0.5000 
     65 C           1.2058  -13.2121  -47.7081 C.2       1 UNK         0.5000 
     66 O           1.3041  -13.6426  -46.5584 O.2       1 UNK        -0.5000 
     67 C          -0.9524  -22.6650  -45.8683 C.2       11 UNK         0.5000 
     68 O          -0.9281  -23.3969  -46.8579 O.2       11 UNK        -0.5000 
     69 N          -1.8463  -22.8198  -44.8806 N.am      12 UNK        -0.5000 
     70 CA         -2.7687  -23.9483  -44.7340 C.3       12 UNK         0.1400 
     71 CB         -3.6319  -23.7337  -43.4826 C.3       12 UNK        -0.1800 
     72 C          -2.0649  -25.3196  -44.6781 C.2       12 UNK         0.5000 
     73 O          -2.6608  -26.3128  -45.0935 O.2       12 UNK        -0.5000 
     74 N          -0.7959  -25.3492  -44.2407 N.am      13 UNK        -0.5000 
     75 CA          0.0746  -26.5271  -44.2817 C.3       13 UNK         0.1400 
     76 CB          1.3667  -26.2225  -43.5094 C.3       13 UNK        -0.1800 
     77 C           0.4037  -27.0048  -45.7130 C.2       13 UNK         0.5000 
     78 O           0.6775  -28.1906  -45.9006 O.2       13 UNK        -0.5000 
     79 N           0.3512  -26.0926  -46.6958 N.am      14 UNK        -0.5000 
     80 CA          0.5101  -26.3923  -48.1212 C.3       14 UNK         0.1400 
     81 CB          1.1546  -25.1817  -48.8184 C.3       14 UNK        -0.1800 
     82 C          -0.8275  -26.7597  -48.7973 C.2       14 UNK         0.5000 
     83 O          -0.8164  -27.1587  -49.9622 O.2       14 UNK        -0.5000 
     84 N          -1.9471  -26.6113  -48.0690 N.am      15 UNK        -0.5000 
     85 CA         -3.3309  -26.8742  -48.4821 C.3       15 UNK         0.1400 
     86 CB         -3.5486  -28.3818  -48.7273 C.3       15 UNK        -0.1800 
     87 C          -3.8028  -25.9960  -49.6623 C.2       15 UNK         0.5000 
     88 O          -4.6392  -26.4301  -50.4565 O.2       15 UNK        -0.5000 
     89 N          -3.2635  -24.7733  -49.7514 N.am      16 UNK        -0.5000 
     90 CA         -3.5212  -23.8165  -50.8305 C.3       16 UNK         0.1400 
     91 CB         -2.3546  -23.8668  -51.8346 C.3       16 UNK        -0.1800 
     92 C          -3.7658  -22.3981  -50.2841 C.2       16 UNK         0.5000 
     93 O          -3.5248  -21.4235  -50.9969 O.2       16 UNK        -0.5000 
     94 N          -4.2151  -22.3049  -49.0229 N.am      17 UNK        -0.5000 
     95 CA         -4.4869  -21.0722  -48.2796 C.3       17 UNK         0.1400 
     96 CB         -4.9793  -21.4383  -46.8709 C.3       17 UNK        -0.1800 
     97 C          -5.4817  -20.1429  -49.0007 C.2       17 UNK         0.5000 
     98 O          -6.6914  -20.3626  -48.9175 O.2       17 UNK        -0.5000 
     99 N          -4.9347  -19.1465  -49.7125 N.am      18 UNK        -0.5000 
    100 CA        -5.6342  -18.1758  -50.5586 C.3       18 UNK         0.1400 
    101 CB        -6.4944  -17.2222  -49.7031 C.3       18 UNK        -0.1800 
    102 C         -6.4156  -18.8479  -51.7087 C.2       18 UNK         0.5000 
    103 O         -7.5648  -18.4879  -51.9735 O.2       18 UNK        -0.5000 
    104 N         -5.7715  -19.8274  -52.3613 N.am      19 UNK        -0.5000 
    105 CA        -6.2791  -20.5526  -53.5285 C.3       19 UNK         0.1400 
    106 CB        -5.2563  -21.6328  -53.9162 C.3       19 UNK        -0.1800 
    107 C         -6.5648  -19.6394  -54.7376 C.2       19 UNK         0.5000 
    108 O         -6.0033  -18.5459  -54.8378 O.2       19 UNK        -0.5000 
    109 N         -7.3967  -20.1286  -55.6672 N.am      20 UNK        -0.5000 
    110 CA        -7.8367  -19.4171  -56.8748 C.3       20 UNK         0.1400 
    111 CB        -8.8717  -20.2810  -57.6119 C.3       20 UNK        -0.1800 
    112 C         -6.7007  -19.0032  -57.8344 C.2       20 UNK         0.5000 
    113 O         -6.8637  -18.0388  -58.5825 O.2       20 UNK        -0.5000 
    114 N         -5.5692  -19.7194  -57.7827 N.am      21 UNK        -0.5000 
    115 CA        -4.3392  -19.3875  -58.5042 C.3       21 UNK         0.1400 
    116 CB        -3.4117  -20.6126  -58.4912 C.3       21 UNK        -0.1800 
    117 C         -3.6100  -18.1567  -57.9251 C.2       21 UNK         0.5000 
    118 O         -2.8858  -17.4852  -58.6614 O.2       21 UNK        -0.5000 
    119 N         -3.8074  -17.8905  -56.6287 N.am      22 UNK        -0.5000 
    120 CA        -3.2364  -16.7529  -55.8944 C.3       22 UNK         0.1400 
    121 C         -4.2421  -15.5772  -55.7768 C.2       22 UNK         0.5000 
    122 N         -5.5243  -15.8381  -55.5546 N.am      22 UNK        -0.7600 
    123 O         -3.8562  -14.4175  -55.8936 O.2       22 UNK        -0.5000 
    124 C124       -2.7440  -17.1791  -54.4891 C.3       23 UNK        -0.0398 
    125 S125       -1.3867  -18.3964  -54.5796 S.3       23 UNK        -0.2404 
    126 C126       -0.2311  -17.7483  -53.3327 C.3       23 UNK        -0.0205 
    127 H127       -2.7173  -11.7355  -45.4494 H         1 UNK         0.0600 
    128 H128       -2.5742  -10.0149  -45.8218 H         1 UNK         0.0600 
    129 H129       -1.4942  -10.7570  -44.6357 H         1 UNK         0.0600 
    130 H130       -1.8274  -13.0421  -47.0167 H         1 UNK         0.3000 
    131 H131       -0.0477  -12.1238  -49.0563 H         1 UNK         0.0600 
    132 H132       -1.5761  -13.8073  -49.7022 H         1 UNK         0.0800 
    133 H133       -0.0295  -14.5955  -49.7227 H         1 UNK         0.0800 
    134 H134       -3.0971  -15.6210  -49.7074 H         1 UNK         0.0800 
    135 H135       -3.3365  -16.8132  -48.4610 H         1 UNK         0.0800 
    136 H136       -1.5949  -16.1115  -51.6099 H         1 UNK         0.1150 
    137 H137        0.0840  -20.0438  -51.9247 H         1 UNK         0.1150 
    138 H138       -1.9057  -18.8279  -48.3248 H         1 UNK         0.1150 
    139 H139       -1.4454  -21.3495  -48.9273 H         1 UNK         0.0800 
    140 H140       -0.3556  -21.6758  -50.2427 H         1 UNK         0.0800 
    141 H141       -1.0029  -20.1668  -46.8952 H         1 UNK         0.0800 
    142 H142        0.5445  -19.5550  -46.4036 H         1 UNK         0.0800 
    143 H143        1.0913  -22.0867  -45.8350 H         1 UNK         0.0600 
    144 H144       -0.0304  -20.0367  -44.2391 H         1 UNK         0.3000 
    145 H145        0.5815  -21.6614  -41.1047 H         1 UNK         0.0600 
    146 H146        1.9934  -19.7556  -40.7364 H         1 UNK         0.0600 
    147 H147        2.7440  -20.6623  -42.0275 H         1 UNK         0.0600 
    148 H148        1.8330  -19.1996  -42.4035 H         1 UNK         0.0600 
    149 H149       -0.5515  -19.1584  -42.2473 H         1 UNK         0.3000 
    150 H150       -3.8711  -20.0655  -41.4012 H         1 UNK         0.0600 
    151 H151       -3.0952  -19.1849  -39.2254 H         1 UNK         0.0600 
    152 H152       -3.8328  -17.8959  -40.1640 H         1 UNK         0.0600 
    153 H153       -2.0776  -17.9969  -40.0247 H         1 UNK         0.0600 
    154 H154       -2.6607  -17.6758  -42.4582 H         1 UNK         0.3000 
    155 H155       -2.6239  -18.6754  -45.8490 H         1 UNK         0.0600 
    156 H156       -5.0944  -18.3391  -45.5811 H         1 UNK         0.0600 
    157 H157       -4.3196  -16.9164  -46.2551 H         1 UNK         0.0600 
    158 H158       -4.7952  -16.9420  -44.5585 H         1 UNK         0.0600 
    159 H159       -2.4675  -16.0790  -44.8502 H         1 UNK         0.3000 
    160 H160        0.6915  -15.7433  -45.0775 H         1 UNK         0.0600 
    161 H161       -1.6043  -14.5399  -43.4170 H         1 UNK         0.0600 
    162 H162       -1.3944  -14.3972  -45.1598 H         1 UNK         0.0600 
    163 H163       -0.2444  -13.6431  -44.0824 H         1 UNK         0.0600 
    164 H164        1.8339  -15.7939  -43.1980 H         1 UNK         0.3000 
    165 H165        1.5811  -15.1497  -40.2641 H         1 UNK         0.0600 
    166 H166        1.8825  -17.2343  -38.8117 H         1 UNK         0.0600 
    167 H167        0.2280  -16.6701  -38.9731 H         1 UNK         0.0600 
    168 H168        0.7573  -18.0689  -39.8857 H         1 UNK         0.0600 
    169 H169        2.7825  -17.5097  -41.6711 H         1 UNK         0.3000 
    170 H170        5.6908  -15.6503  -42.3848 H         1 UNK         0.0600 
    171 H171        6.2622  -16.5951  -40.1356 H         1 UNK         0.0600 
    172 H172        5.4764  -18.1087  -40.5683 H         1 UNK         0.0600 
    173 H173        6.9162  -17.5747  -41.4370 H         1 UNK         0.0600 
    174 H174        5.2378  -18.2838  -43.0714 H         1 UNK         0.3000 
    175 H175        5.1315  -18.4182  -45.4950 H         1 UNK         0.0600 
    176 H176        2.2053  -18.9791  -44.7553 H         1 UNK         0.0600 
    177 H177        3.1700  -20.0043  -45.8110 H         1 UNK         0.0600 
    178 H178        3.6156  -19.8273  -44.1263 H         1 UNK         0.0600 
    179 H179        3.1414  -16.5747  -46.4259 H         1 UNK         0.3000 
    180 H180        4.1083  -17.0632  -49.7716 H         1 UNK         0.0600 
    181 H181        1.2612  -17.5819  -48.7586 H         1 UNK         0.0600 
    182 H182        2.1786  -18.6277  -49.8356 H         1 UNK         0.0600 
    183 H183        1.6924  -17.0321  -50.3777 H         1 UNK         0.0600 
    184 H184        2.2013  -15.2734  -48.7171 H         1 UNK         0.3000 
    185 H185        3.7893  -13.0081  -47.0777 H         1 UNK         0.0600 
    186 H186        5.5935  -12.3876  -48.6597 H         1 UNK         0.0600 
    187 H187        4.4859  -12.5121  -50.0212 H         1 UNK         0.0600 
    188 H188        4.2575  -11.2599  -48.7999 H         1 UNK         0.0600 
    189 H189        2.1067  -12.6675  -49.4479 H         1 UNK         0.3000 
    190 H190       -1.8516  -22.1399  -44.1329 H         1 UNK         0.3000 
    191 H191       -3.4226  -23.9638  -45.6071 H         1 UNK         0.0600 
    192 H192       -4.2263  -22.8238  -43.5649 H         1 UNK         0.0600 
    193 H193       -4.3276  -24.5614  -43.3386 H         1 UNK         0.0600 
    194 H194       -3.0212  -23.6552  -42.5821 H         1 UNK         0.0600 
    195 H195       -0.3691  -24.4887  -43.9151 H         1 UNK         0.3000 
    196 H196       -0.4431  -27.3434  -43.7738 H         1 UNK         0.0600 
    197 H197        2.0182  -27.0966  -43.4759 H         1 UNK         0.0600 
    198 H198        1.1534  -25.9359  -42.4794 H         1 UNK         0.0600 
    199 H199        1.9291  -25.4109  -43.9730 H         1 UNK         0.0600 
    200 H200        0.0848  -25.1394  -46.4757 H         1 UNK         0.3000 
    201 H201        1.1825  -27.2442  -48.2407 H         1 UNK         0.0600 
    202 H202        2.0868  -24.8940  -48.3322 H         1 UNK         0.0600 
    203 H203        0.4963  -24.3129  -48.8217 H         1 UNK         0.0600 
    204 H204        1.3894  -25.4119  -49.8583 H         1 UNK         0.0600 
    205 H205       -1.8424  -26.3109  -47.1083 H         1 UNK         0.3000 
    206 H206       -3.9553  -26.5904  -47.6340 H         1 UNK         0.0600 
    207 H207       -3.2189  -28.9709  -47.8714 H         1 UNK         0.0600 
    208 H208       -4.6043  -28.6053  -48.8849 H         1 UNK         0.0600 
    209 H209       -3.0059  -28.7325  -49.6056 H         1 UNK         0.0600 
    210 H210       -2.5784  -24.4964  -49.0607 H         1 UNK         0.3000 
    211 H211       -4.4360  -24.0867  -51.3611 H         1 UNK         0.0600 
    212 H212       -2.2338  -24.8696  -52.2446 H         1 UNK         0.0600 
    213 H213       -1.4116  -23.5833  -51.3668 H         1 UNK         0.0600 
    214 H214       -2.5236  -23.1929  -52.6756 H         1 UNK         0.0600 
    215 H215       -4.4201  -23.1658  -48.5390 H         1 UNK         0.3000 
    216 H216       -3.5452  -20.5359  -48.1627 H         1 UNK         0.0600 
    217 H217       -5.2960  -20.5531  -46.3199 H         1 UNK         0.0600 
    218 H218       -4.1862  -21.9034  -46.2897 H         1 UNK         0.0600 
    219 H219       -5.8271  -22.1236  -46.9009 H         1 UNK         0.0600 
    220 H220       -3.9267  -19.1282  -49.7896 H         1 UNK         0.3000 
    221 H221       -4.8589  -17.5748  -51.0362 H         1 UNK         0.0600 
    222 H222       -7.3279  -17.7414  -49.2294 H         1 UNK         0.0600 
    223 H223       -5.9020  -16.7531  -48.9176 H         1 UNK         0.0600 
    224 H224       -6.9134  -16.4219  -50.3142 H         1 UNK         0.0600 
    225 H225       -4.8497  -20.0967  -52.0364 H         1 UNK         0.3000 
    226 H226       -7.2138  -21.0367  -53.2393 H         1 UNK         0.0600 
    227 H227       -5.1256  -22.3552  -53.1116 H         1 UNK         0.0600 
    228 H228       -5.5780  -22.1917  -54.7958 H         1 UNK         0.0600 
    229 H229       -4.2800  -21.1997  -54.1395 H         1 UNK         0.0600 
    230 H230       -7.7997  -21.0434  -55.5232 H         1 UNK         0.3000 
    231 H231       -8.3297  -18.4987  -56.5495 H         1 UNK         0.0600 
    232 H232       -8.4453  -21.2321  -57.9332 H         1 UNK         0.0600 
    233 H233       -9.2450  -19.7716  -58.5014 H         1 UNK         0.0600 
    234 H234       -9.7324  -20.4944  -56.9777 H         1 UNK         0.0600 
    235 H235       -5.5289  -20.5048  -57.1506 H         1 UNK         0.3000 
    236 H236       -4.5963  -19.1636  -59.5417 H         1 UNK         0.0600 
    237 H237       -3.8896  -21.4752  -58.9558 H         1 UNK         0.0600 
    238 H238       -2.4937  -20.4129  -59.0456 H         1 UNK         0.0600 
    239 H239       -3.1271  -20.8907  -57.4754 H         1 UNK         0.0600 
    240 H240       -4.4736  -18.4486  -56.1086 H         1 UNK         0.3000 
    241 H241       -2.3707  -16.3704  -56.4390 H         1 UNK         0.0600 
    242 H242       -5.8271  -16.7936  -55.3813 H         1 UNK         0.3800 
    243 H243       -6.1840  -15.0803  -55.4843 H         1 UNK         0.3800 
    244 H244       -2.4015  -16.3046  -53.9342 H         1 UNK         0.0800 
    245 H245       -3.5576  -17.6118  -53.9042 H         1 UNK         0.0800 
    246 H246        0.7457  -18.2089  -53.4877 H         1 UNK         0.0800 
    247 H247       -0.0843  -16.6766  -53.4750 H         1 UNK         0.0800 
@<TRIPOS>BOND
     1    1    2 1    
     2    1  127 1    
     3    1  128 1    
     4    1  129 1    
     5    2    3 2    
     6    2    4 am   BACKBONE|DICT|INTERRES
     7    4    5 1    
     8    4  130 1    
     9    5    6 1    
    10    5   65 1    
    11    5  131 1    
    12    6    7 1    
    13    6  132 1    
    14    6  133 1    
    15    7    8 1    
    16    8    9 1    
    17    8  134 1    
    18    8  135 1    
    19    9   10 ar   
    20    9   14 ar   
    21   10   11 ar   
    22   10  136 1    
    23   11   12 ar   
    24   11  126 1    
    25   12   13 ar   
    26   12  137 1    
    27   13   14 ar   
    28   13   15 1    
    29   14  138 1    
    30   15   16 1    
    31   15  139 1    
    32   15  140 1    
    33   16   17 1    
    34   17   18 1    
    35   17  141 1    
    36   17  142 1    
    37   18   19 1    
    38   18   67 1    
    39   18  143 1    
    40   19   20 am   BACKBONE|DICT|INTERRES
    41   19  144 1    
    42   20   21 2    
    43   20   22 1    
    44   22   23 1    
    45   22   24 1    
    46   22  145 1    
    47   23  146 1    
    48   23  147 1    
    49   23  148 1    
    50   24   25 am   BACKBONE|DICT|INTERRES
    51   24  149 1    
    52   25   26 2    
    53   25   27 1    
    54   27   28 1    
    55   27   29 1    
    56   27  150 1    
    57   28  151 1    
    58   28  152 1    
    59   28  153 1    
    60   29   30 am   BACKBONE|DICT|INTERRES
    61   29  154 1    
    62   30   31 2    
    63   30   32 1    
    64   32   33 1    
    65   32   34 1    
    66   32  155 1    
    67   33  156 1    
    68   33  157 1    
    69   33  158 1    
    70   34   35 am   BACKBONE|DICT|INTERRES
    71   34  159 1    
    72   35   36 2    
    73   35   37 1    
    74   37   38 1    
    75   37   39 1    
    76   37  160 1    
    77   38  161 1    
    78   38  162 1    
    79   38  163 1    
    80   39   40 am   BACKBONE|DICT|INTERRES
    81   39  164 1    
    82   40   41 2    
    83   40   42 1    
    84   42   43 1    
    85   42   44 1    
    86   42  165 1    
    87   43  166 1    
    88   43  167 1    
    89   43  168 1    
    90   44   45 am   BACKBONE|DICT|INTERRES
    91   44  169 1    
    92   45   46 2    
    93   45   47 1    
    94   47   48 1    
    95   47   49 1    
    96   47  170 1    
    97   48  171 1    
    98   48  172 1    
    99   48  173 1    
   100   49   50 am   BACKBONE|DICT|INTERRES
   101   49  174 1    
   102   50   51 2    
   103   50   52 1    
   104   52   53 1    
   105   52   54 1    
   106   52  175 1    
   107   53  176 1    
   108   53  177 1    
   109   53  178 1    
   110   54   55 am   BACKBONE|DICT|INTERRES
   111   54  179 1    
   112   55   56 2    
   113   55   57 1    
   114   57   58 1    
   115   57   59 1    
   116   57  180 1    
   117   58  181 1    
   118   58  182 1    
   119   58  183 1    
   120   59   60 am   BACKBONE|DICT|INTERRES
   121   59  184 1    
   122   60   61 2    
   123   60   62 1    
   124   62   63 1    
   125   62   64 1    
   126   62  185 1    
   127   63  186 1    
   128   63  187 1    
   129   63  188 1    
   130   64   65 am   BACKBONE|DICT|INTERRES
   131   64  189 1    
   132   65   66 2    
   133   67   68 2    
   134   67   69 am   BACKBONE|DICT|INTERRES
   135   69   70 1    
   136   69  190 1    
   137   70   71 1    
   138   70   72 1    
   139   70  191 1    
   140   71  192 1    
   141   71  193 1    
   142   71  194 1    
   143   72   73 2    
   144   72   74 am   BACKBONE|DICT|INTERRES
   145   74   75 1    
   146   74  195 1    
   147   75   76 1    
   148   75   77 1    
   149   75  196 1    
   150   76  197 1    
   151   76  198 1    
   152   76  199 1    
   153   77   78 2    
   154   77   79 am   BACKBONE|DICT|INTERRES
   155   79   80 1    
   156   79  200 1    
   157   80   81 1    
   158   80   82 1    
   159   80  201 1    
   160   81  202 1    
   161   81  203 1    
   162   81  204 1    
   163   82   83 2    
   164   82   84 am   BACKBONE|DICT|INTERRES
   165   84   85 1    
   166   84  205 1    
   167   85   86 1    
   168   85   87 1    
   169   85  206 1    
   170   86  207 1    
   171   86  208 1    
   172   86  209 1    
   173   87   88 2    
   174   87   89 am   BACKBONE|DICT|INTERRES
   175   89   90 1    
   176   89  210 1    
   177   90   91 1    
   178   90   92 1    
   179   90  211 1    
   180   91  212 1    
   181   91  213 1    
   182   91  214 1    
   183   92   93 2    
   184   92   94 am   BACKBONE|DICT|INTERRES
   185   94   95 1    
   186   94  215 1    
   187   95   96 1    
   188   95   97 1    
   189   95  216 1    
   190   96  217 1    
   191   96  218 1    
   192   96  219 1    
   193   97   98 2    
   194   97   99 am   BACKBONE|DICT|INTERRES
   195   99  100 1    
   196   99  220 1    
   197  100  101 1    
   198  100  102 1    
   199  100  221 1    
   200  101  222 1    
   201  101  223 1    
   202  101  224 1    
   203  102  103 2    
   204  102  104 am   BACKBONE|DICT|INTERRES
   205  104  105 1    
   206  104  225 1    
   207  105  106 1    
   208  105  107 1    
   209  105  226 1    
   210  106  227 1    
   211  106  228 1    
   212  106  229 1    
   213  107  108 2    
   214  107  109 am   BACKBONE|DICT|INTERRES
   215  109  110 1    
   216  109  230 1    
   217  110  111 1    
   218  110  112 1    
   219  110  231 1    
   220  111  232 1    
   221  111  233 1    
   222  111  234 1    
   223  112  113 2    
   224  112  114 am   BACKBONE|DICT|INTERRES
   225  114  115 1    
   226  114  235 1    
   227  115  116 1    
   228  115  117 1    
   229  115  236 1    
   230  116  237 1    
   231  116  238 1    
   232  116  239 1    
   233  117  118 2    
   234  117  119 am   BACKBONE|DICT|INTERRES
   235  119  120 1    
   236  119  240 1    
   237  120  121 1    
   238  120  124 1    
   239  120  241 1    
   240  121  122 am   BACKBONE|DICT|INTERRES
   241  121  123 2    
   242  122  242 1    
   243  122  243 1    
   244  124  125 1    
   245  124  244 1    
   246  124  245 1    
   247  125  126 1    
   248  126  246 1    
   249  126  247 1    
@<TRIPOS>SUBSTRUCTURE
     1 UNK         1 GROUP             0       ****    0 ROOT    
