@<TRIPOS>MOLECULE
3R540
247   249    1
SMALL
USER_CHARGES


@<TRIPOS>ATOM
      1 CA         -3.5312  -14.6179  -46.6686 C.3       0 UNK        -0.1800 
      2 C          -2.0846  -14.3314  -47.0432 C.2       0 UNK         0.5000 
      3 O          -1.1793  -14.8523  -46.3956 O.2       0 UNK        -0.5000 
      4 N          -1.8780  -13.5018  -48.0750 N.am      1 UNK        -0.5000 
      5 CA         -0.6208  -13.0630  -48.7069 C.3       1 UNK         0.1400 
      6 C6          0.0708  -14.1546  -49.5830 C.3       23 UNK        -0.0398 
      7 S7          1.2984  -15.2444  -48.7725 S.3       23 UNK        -0.2404 
      8 C8          0.2958  -16.7058  -48.3743 C.3       23 UNK        -0.0205 
      9 C9          0.6052  -17.8883  -49.2723 C.ar      23 UNK        -0.0193 
     10 C10        -0.2338  -18.2085  -50.3425 C.ar      23 UNK        -0.1150 
     11 C11         0.0379  -19.3189  -51.1472 C.ar      23 UNK        -0.0193 
     12 C12         1.1528  -20.1161  -50.8674 C.ar      23 UNK        -0.1150 
     13 C13         1.9972  -19.8040  -49.7970 C.ar      23 UNK        -0.0193 
     14 C14         1.7199  -18.6853  -49.0075 C.ar      23 UNK        -0.1150 
     15 C15         3.2222  -20.6583  -49.5066 C.3       23 UNK        -0.0205 
     16 S16         2.8150  -22.1678  -48.5733 S.3       23 UNK        -0.2404 
     17 C17         2.3788  -21.5042  -46.9277 C.3       23 UNK        -0.0398 
     18 CA          1.1134  -22.1614  -46.3307 C.3       11 UNK         0.1400 
     19 N           1.0033  -21.9223  -44.8902 N.am      11 UNK        -0.5000 
     20 C           0.1458  -22.5590  -44.0804 C.2       10 UNK         0.5000 
     21 O          -0.6190  -23.4461  -44.4578 O.2       10 UNK        -0.5000 
     22 CA          0.1059  -22.1028  -42.6116 C.3       10 UNK         0.1400 
     23 CB          1.2719  -22.7125  -41.8194 C.3       10 UNK        -0.1800 
     24 N           0.1242  -20.6465  -42.4756 N.am      10 UNK        -0.5000 
     25 C          -0.8423  -19.8300  -42.9195 C.2       9 UNK         0.5000 
     26 O          -1.8808  -20.2262  -43.4492 O.2       9 UNK        -0.5000 
     27 CA         -0.5833  -18.3161  -42.7936 C.3       9 UNK         0.1400 
     28 CB         -0.8536  -17.8360  -41.3604 C.3       9 UNK        -0.1800 
     29 N           0.7738  -17.9370  -43.1933 N.am      9 UNK        -0.5000 
     30 C           1.2843  -18.1369  -44.4178 C.2       8 UNK         0.5000 
     31 O           0.6601  -18.6407  -45.3484 O.2       8 UNK        -0.5000 
     32 CA          2.7630  -17.7791  -44.6224 C.3       8 UNK         0.1400 
     33 CB          2.9391  -16.2689  -44.8207 C.3       8 UNK        -0.1800 
     34 N           3.5860  -18.2404  -43.5056 N.am      8 UNK        -0.5000 
     35 C           3.8260  -19.5319  -43.2361 C.2       7 UNK         0.5000 
     36 O           3.4124  -20.4632  -43.9268 O.2       7 UNK        -0.5000 
     37 CA          4.6239  -19.8329  -41.9551 C.3       7 UNK         0.1400 
     38 CB          6.1318  -19.6844  -42.2066 C.3       7 UNK        -0.1800 
     39 N           4.2302  -18.9769  -40.8351 N.am      7 UNK        -0.5000 
     40 C           3.0248  -19.0039  -40.2490 C.2       6 UNK         0.5000 
     41 O           2.1241  -19.7761  -40.5739 O.2       6 UNK        -0.5000 
     42 CA          2.7689  -17.9658  -39.1416 C.3       6 UNK         0.1400 
     43 CB          3.2127  -18.5126  -37.7768 C.3       6 UNK        -0.1800 
     44 N           3.4252  -16.6786  -39.3870 N.am      6 UNK        -0.5000 
     45 C           3.1463  -15.8713  -40.4180 C.2       5 UNK         0.5000 
     46 O           2.3370  -16.1507  -41.3074 O.2       5 UNK        -0.5000 
     47 CA          3.9232  -14.5468  -40.4820 C.3       5 UNK         0.1400 
     48 CB          4.9253  -14.5621  -41.6467 C.3       5 UNK        -0.1800 
     49 N           2.9800  -13.4517  -40.6712 N.am      5 UNK        -0.5000 
     50 C           2.3348  -12.8220  -39.6779 C.2       4 UNK         0.5000 
     51 O           2.6052  -12.9703  -38.4854 O.2       4 UNK        -0.5000 
     52 CA          1.1631  -11.8991  -40.0799 C.3       4 UNK         0.1400 
     53 CB          1.6546  -10.4596  -40.2934 C.3       4 UNK        -0.1800 
     54 N           0.4906  -12.3615  -41.2947 N.am      4 UNK        -0.5000 
     55 C          -0.1666  -13.5239  -41.3985 C.2       3 UNK         0.5000 
     56 O          -0.5052  -14.1897  -40.4192 O.2       3 UNK        -0.5000 
     57 CA         -0.4684  -14.0594  -42.8169 C.3       3 UNK         0.1400 
     58 CB         -1.9736  -14.3179  -42.9987 C.3       3 UNK        -0.1800 
     59 N           0.0168  -13.2533  -43.9479 N.am      3 UNK        -0.5000 
     60 C           1.2921  -12.9503  -44.2375 C.2       2 UNK         0.5000 
     61 O           2.2319  -13.1884  -43.4790 O.2       2 UNK        -0.5000 
     62 CA          1.5552  -12.2758  -45.5969 C.3       2 UNK         0.1400 
     63 CB          3.0163  -12.4433  -46.0648 C.3       2 UNK        -0.1800 
     64 N           0.6370  -12.8069  -46.6009 N.am      2 UNK        -0.5000 
     65 C           0.3412  -12.2689  -47.7871 C.2       1 UNK         0.5000 
     66 O           0.7791  -11.1815  -48.1668 O.2       1 UNK        -0.5000 
     67 C          -0.1805  -21.7701  -47.0777 C.2       11 UNK         0.5000 
     68 O          -0.6515  -22.5511  -47.9030 O.2       11 UNK        -0.5000 
     69 N          -0.7755  -20.6198  -46.7270 N.am      12 UNK        -0.5000 
     70 CA         -2.0640  -20.1566  -47.2465 C.3       12 UNK         0.1400 
     71 CB         -2.3860  -18.7611  -46.6892 C.3       12 UNK        -0.1800 
     72 C          -3.2133  -21.1288  -46.9291 C.2       12 UNK         0.5000 
     73 O          -4.0115  -21.4318  -47.8157 O.2       12 UNK        -0.5000 
     74 N          -3.2569  -21.6224  -45.6834 N.am      13 UNK        -0.5000 
     75 CA         -4.2282  -22.6119  -45.2167 C.3       13 UNK         0.1400 
     76 CB         -4.1196  -22.7573  -43.6914 C.3       13 UNK        -0.1800 
     77 C          -4.0764  -23.9790  -45.9097 C.2       13 UNK         0.5000 
     78 O          -5.0858  -24.6112  -46.2215 O.2       13 UNK        -0.5000 
     79 N          -2.8278  -24.4032  -46.1493 N.am      14 UNK        -0.5000 
     80 CA         -2.4946  -25.6305  -46.8724 C.3       14 UNK         0.1400 
     81 CB         -1.0087  -25.9620  -46.6650 C.3       14 UNK        -0.1800 
     82 C          -2.8324  -25.5436  -48.3724 C.2       14 UNK         0.5000 
     83 O          -3.3603  -26.5064  -48.9304 O.2       14 UNK        -0.5000 
     84 N          -2.5253  -24.3960  -48.9924 N.am      15 UNK        -0.5000 
     85 CA         -2.8108  -24.0929  -50.3944 C.3       15 UNK         0.1400 
     86 CB         -2.0606  -22.8106  -50.7892 C.3       15 UNK        -0.1800 
     87 C          -4.3208  -23.9658  -50.6701 C.2       15 UNK         0.5000 
     88 O          -4.8182  -24.5614  -51.6281 O.2       15 UNK        -0.5000 
     89 N          -5.0164  -23.2182  -49.8003 N.am      16 UNK        -0.5000 
     90 CA         -6.4605  -22.9758  -49.7859 C.3       16 UNK         0.1400 
     91 CB         -7.2025  -24.2734  -49.3936 C.3       16 UNK        -0.1800 
     92 C          -6.9896  -22.3428  -51.0940 C.2       16 UNK         0.5000 
     93 O          -6.2309  -21.7152  -51.8366 O.2       16 UNK        -0.5000 
     94 N          -8.2927  -22.5118  -51.3547 N.am      17 UNK        -0.5000 
     95 CA         -8.9627  -22.0704  -52.5809 C.3       17 UNK         0.1400 
     96 CB        -10.4794  -22.0472  -52.3352 C.3       17 UNK        -0.1800 
     97 C          -8.6276  -22.9491  -53.8038 C.2       17 UNK         0.5000 
     98 O          -8.8454  -22.5150  -54.9353 O.2       17 UNK        -0.5000 
     99 N          -8.1124  -24.1642  -53.5597 N.am      18 UNK        -0.5000 
    100 CA        -7.6946  -25.1271  -54.5799 C.3       18 UNK         0.1400 
    101 CB        -7.3680  -26.4669  -53.9035 C.3       18 UNK        -0.1800 
    102 C         -6.4977  -24.6348  -55.4135 C.2       18 UNK         0.5000 
    103 O         -6.4449  -24.8927  -56.6171 O.2       18 UNK        -0.5000 
    104 N         -5.5797  -23.8981  -54.7744 N.am      19 UNK        -0.5000 
    105 CA        -4.4319  -23.2447  -55.4004 C.3       19 UNK         0.1400 
    106 CB        -3.3528  -23.0208  -54.3302 C.3       19 UNK        -0.1800 
    107 C         -4.8476  -21.9322  -56.0954 C.2       19 UNK         0.5000 
    108 O         -4.3557  -20.8594  -55.7446 O.2       19 UNK        -0.5000 
    109 N         -5.7510  -22.0361  -57.0782 N.am      20 UNK        -0.5000 
    110 CA        -6.3456  -20.9156  -57.8157 C.3       20 UNK         0.1400 
    111 CB        -7.4428  -21.4620  -58.7416 C.3       20 UNK        -0.1800 
    112 C         -5.3355  -20.0637  -58.6135 C.2       20 UNK         0.5000 
    113 O         -5.6198  -18.9016  -58.9053 O.2       20 UNK        -0.5000 
    114 N         -4.1748  -20.6477  -58.9398 N.am      21 UNK        -0.5000 
    115 CA        -3.0499  -19.9767  -59.5912 C.3       21 UNK         0.1400 
    116 CB        -2.1423  -21.0451  -60.2215 C.3       21 UNK        -0.1800 
    117 C         -2.2360  -19.0716  -58.6412 C.2       21 UNK         0.5000 
    118 O         -1.4665  -18.2412  -59.1271 O.2       21 UNK        -0.5000 
    119 N         -2.3885  -19.2505  -57.3211 N.am      22 UNK        -0.5000 
    120 CA        -1.7217  -18.4491  -56.2856 C.3       22 UNK         0.1400 
    121 C         -2.2849  -17.0010  -56.2145 C.2       22 UNK         0.5000 
    122 N         -1.4280  -15.9970  -56.0861 N.am      22 UNK        -0.7600 
    123 O         -3.4940  -16.7824  -56.2441 O.2       22 UNK        -0.5000 
    124 C124       -1.7926  -19.1615  -54.9104 C.3       23 UNK        -0.0398 
    125 S125       -0.4754  -18.6309  -53.7680 S.3       23 UNK        -0.2404 
    126 C126       -0.8750  -19.6506  -52.3167 C.3       23 UNK        -0.0205 
    127 H127       -4.2276  -14.2329  -47.4138 H         1 UNK         0.0600 
    128 H128       -3.7687  -14.1588  -45.7093 H         1 UNK         0.0600 
    129 H129       -3.6884  -15.6930  -46.5814 H         1 UNK         0.0600 
    130 H130       -2.6991  -13.1021  -48.5080 H         1 UNK         0.3000 
    131 H131       -0.9767  -12.3181  -49.4210 H         1 UNK         0.0600 
    132 H132        0.6087  -13.6537  -50.3893 H         1 UNK         0.0800 
    133 H133       -0.6791  -14.7641  -50.0888 H         1 UNK         0.0800 
    134 H134       -0.7653  -16.4678  -48.4348 H         1 UNK         0.0800 
    135 H135        0.4869  -16.9745  -47.3360 H         1 UNK         0.0800 
    136 H136       -1.0970  -17.5929  -50.5531 H         1 UNK         0.1150 
    137 H137        1.3671  -20.9777  -51.4840 H         1 UNK         0.1150 
    138 H138        2.3685  -18.4302  -48.1815 H         1 UNK         0.1150 
    139 H139        3.6913  -20.9457  -50.4487 H         1 UNK         0.0800 
    140 H140        3.9718  -20.0846  -48.9592 H         1 UNK         0.0800 
    141 H141        2.2733  -20.4206  -46.9513 H         1 UNK         0.0800 
    142 H142        3.2337  -21.7026  -46.2805 H         1 UNK         0.0800 
    143 H143        1.2279  -23.2414  -46.4472 H         1 UNK         0.0600 
    144 H144        1.6276  -21.2257  -44.4965 H         1 UNK         0.3000 
    145 H145       -0.8270  -22.4669  -42.1765 H         1 UNK         0.0600 
    146 H146        1.1984  -22.4666  -40.7600 H         1 UNK         0.0600 
    147 H147        2.2361  -22.3523  -42.1793 H         1 UNK         0.0600 
    148 H148        1.2744  -23.8001  -41.9017 H         1 UNK         0.0600 
    149 H149        0.9256  -20.2450  -41.9963 H         1 UNK         0.3000 
    150 H150       -1.2770  -17.8017  -43.4619 H         1 UNK         0.0600 
    151 H151       -1.8838  -18.0430  -41.0686 H         1 UNK         0.0600 
    152 H152       -0.6982  -16.7626  -41.2655 H         1 UNK         0.0600 
    153 H153       -0.2031  -18.3299  -40.6391 H         1 UNK         0.0600 
    154 H154        1.3557  -17.4961  -42.4881 H         1 UNK         0.3000 
    155 H155        3.1066  -18.2802  -45.5300 H         1 UNK         0.0600 
    156 H156        3.9779  -16.0119  -45.0269 H         1 UNK         0.0600 
    157 H157        2.6248  -15.7164  -43.9369 H         1 UNK         0.0600 
    158 H158        2.3403  -15.9117  -45.6599 H         1 UNK         0.0600 
    159 H159        3.9112  -17.5380  -42.8583 H         1 UNK         0.3000 
    160 H160        4.4245  -20.8696  -41.6754 H         1 UNK         0.0600 
    161 H161        6.4003  -18.6589  -42.4634 H         1 UNK         0.0600 
    162 H162        6.4544  -20.3243  -43.0292 H         1 UNK         0.0600 
    163 H163        6.7081  -19.9726  -41.3273 H         1 UNK         0.0600 
    164 H164        4.9121  -18.3108  -40.5039 H         1 UNK         0.3000 
    165 H165        1.6925  -17.7868  -39.1021 H         1 UNK         0.0600 
    166 H166        2.9541  -17.8236  -36.9726 H         1 UNK         0.0600 
    167 H167        2.7222  -19.4624  -37.5590 H         1 UNK         0.0600 
    168 H168        4.2894  -18.6833  -37.7408 H         1 UNK         0.0600 
    169 H169        4.1020  -16.3809  -38.6990 H         1 UNK         0.3000 
    170 H170        4.4792  -14.4008  -39.5535 H         1 UNK         0.0600 
    171 H171        4.4277  -14.6918  -42.6082 H         1 UNK         0.0600 
    172 H172        5.4904  -13.6309  -41.6895 H         1 UNK         0.0600 
    173 H173        5.6439  -15.3748  -41.5349 H         1 UNK         0.0600 
    174 H174        2.6632  -13.3114  -41.6277 H         1 UNK         0.3000 
    175 H175        0.4378  -11.9004  -39.2636 H         1 UNK         0.0600 
    176 H176        2.3736  -10.3972  -41.1113 H         1 UNK         0.0600 
    177 H177        0.8258   -9.7893  -40.5218 H         1 UNK         0.0600 
    178 H178        2.1434  -10.0777  -39.3962 H         1 UNK         0.0600 
    179 H179        0.7415  -11.8939  -42.1530 H         1 UNK         0.3000 
    180 H180        0.0425  -15.0221  -42.8819 H         1 UNK         0.0600 
    181 H181       -2.1661  -14.8893  -43.9055 H         1 UNK         0.0600 
    182 H182       -2.5373  -13.3863  -43.0565 H         1 UNK         0.0600 
    183 H183       -2.3826  -14.8992  -42.1713 H         1 UNK         0.0600 
    184 H184       -0.6857  -12.9991  -44.6268 H         1 UNK         0.3000 
    185 H185        1.3500  -11.2119  -45.4650 H         1 UNK         0.0600 
    186 H186        3.7150  -12.0375  -45.3323 H         1 UNK         0.0600 
    187 H187        3.2674  -13.4939  -46.2143 H         1 UNK         0.0600 
    188 H188        3.1997  -11.9201  -47.0030 H         1 UNK         0.0600 
    189 H189        0.1989  -13.7024  -46.3836 H         1 UNK         0.3000 
    190 H190       -0.3043  -20.0006  -46.0701 H         1 UNK         0.3000 
    191 H191       -1.9713  -20.0810  -48.3319 H         1 UNK         0.0600 
    192 H192       -1.5850  -18.0556  -46.8926 H         1 UNK         0.0600 
    193 H193       -2.5364  -18.7789  -45.6100 H         1 UNK         0.0600 
    194 H194       -3.2947  -18.3615  -47.1405 H         1 UNK         0.0600 
    195 H195       -2.5868  -21.2832  -44.9997 H         1 UNK         0.3000 
    196 H196       -5.2255  -22.2333  -45.4500 H         1 UNK         0.0600 
    197 H197       -4.3061  -21.8068  -43.1911 H         1 UNK         0.0600 
    198 H198       -3.1316  -23.1049  -43.3888 H         1 UNK         0.0600 
    199 H199       -4.8505  -23.4733  -43.3138 H         1 UNK         0.0600 
    200 H200       -2.0492  -23.8529  -45.8004 H         1 UNK         0.3000 
    201 H201       -3.0835  -26.4448  -46.4450 H         1 UNK         0.0600 
    202 H202       -0.7788  -26.0949  -45.6077 H         1 UNK         0.0600 
    203 H203       -0.3616  -25.1736  -47.0504 H         1 UNK         0.0600 
    204 H204       -0.7398  -26.8872  -47.1760 H         1 UNK         0.0600 
    205 H205       -2.0271  -23.6782  -48.4707 H         1 UNK         0.3000 
    206 H206       -2.4263  -24.9135  -51.0035 H         1 UNK         0.0600 
    207 H207       -2.3889  -21.9518  -50.2025 H         1 UNK         0.0600 
    208 H208       -2.2152  -22.5697  -51.8380 H         1 UNK         0.0600 
    209 H209       -0.9860  -22.9211  -50.6418 H         1 UNK         0.0600 
    210 H210       -4.5007  -22.7216  -49.0774 H         1 UNK         0.3000 
    211 H211       -6.6311  -22.2404  -48.9987 H         1 UNK         0.0600 
    212 H212       -7.1664  -25.0181  -50.1896 H         1 UNK         0.0600 
    213 H213       -8.2503  -24.0840  -49.1591 H         1 UNK         0.0600 
    214 H214       -6.7587  -24.7218  -48.5044 H         1 UNK         0.0600 
    215 H215       -8.8592  -23.0208  -50.6915 H         1 UNK         0.3000 
    216 H216       -8.6378  -21.0530  -52.8093 H         1 UNK         0.0600 
    217 H217      -11.0131  -21.6920  -53.2178 H         1 UNK         0.0600 
    218 H218      -10.7358  -21.3795  -51.5124 H         1 UNK         0.0600 
    219 H219      -10.8642  -23.0395  -52.0965 H         1 UNK         0.0600 
    220 H220       -7.9623  -24.4324  -52.5989 H         1 UNK         0.3000 
    221 H221       -8.5333  -25.2813  -55.2619 H         1 UNK         0.0600 
    222 H222       -6.5521  -26.3672  -53.1860 H         1 UNK         0.0600 
    223 H223       -8.2344  -26.8636  -53.3740 H         1 UNK         0.0600 
    224 H224       -7.0683  -27.2135  -54.6402 H         1 UNK         0.0600 
    225 H225       -5.7037  -23.7279  -53.7845 H         1 UNK         0.3000 
    226 H226       -4.0145  -23.9054  -56.1630 H         1 UNK         0.0600 
    227 H227       -2.4521  -22.5840  -54.7625 H         1 UNK         0.0600 
    228 H228       -3.7103  -22.3461  -53.5513 H         1 UNK         0.0600 
    229 H229       -3.0637  -23.9598  -53.8578 H         1 UNK         0.0600 
    230 H230       -6.1148  -22.9608  -57.2818 H         1 UNK         0.3000 
    231 H231       -6.8149  -20.2556  -57.0834 H         1 UNK         0.0600 
    232 H232       -8.2126  -21.9847  -58.1731 H         1 UNK         0.0600 
    233 H233       -7.0373  -22.1573  -59.4777 H         1 UNK         0.0600 
    234 H234       -7.9343  -20.6549  -59.2865 H         1 UNK         0.0600 
    235 H235       -4.0350  -21.6099  -58.6694 H         1 UNK         0.3000 
    236 H236       -3.4380  -19.3444  -60.3925 H         1 UNK         0.0600 
    237 H237       -1.7251  -21.7142  -59.4679 H         1 UNK         0.0600 
    238 H238       -2.6888  -21.6509  -60.9445 H         1 UNK         0.0600 
    239 H239       -1.3065  -20.5859  -60.7513 H         1 UNK         0.0600 
    240 H240       -3.0915  -19.9009  -56.9873 H         1 UNK         0.3000 
    241 H241       -0.6703  -18.3902  -56.5752 H         1 UNK         0.0600 
    242 H242       -1.7806  -15.0544  -56.0277 H         1 UNK         0.3800 
    243 H243       -0.4337  -16.1578  -56.0376 H         1 UNK         0.3800 
    244 H244       -1.6767  -20.2376  -55.0450 H         1 UNK         0.0800 
    245 H245       -2.7681  -19.0199  -54.4410 H         1 UNK         0.0800 
    246 H246       -0.7835  -20.7044  -52.5833 H         1 UNK         0.0800 
    247 H247       -1.9153  -19.4913  -52.0283 H         1 UNK         0.0800 
@<TRIPOS>BOND
     1    1    2 1    
     2    1  127 1    
     3    1  128 1    
     4    1  129 1    
     5    2    3 2    
     6    2    4 am   BACKBONE|DICT|INTERRES
     7    4    5 1    
     8    4  130 1    
     9    5    6 1    
    10    5   65 1    
    11    5  131 1    
    12    6    7 1    
    13    6  132 1    
    14    6  133 1    
    15    7    8 1    
    16    8    9 1    
    17    8  134 1    
    18    8  135 1    
    19    9   10 ar   
    20    9   14 ar   
    21   10   11 ar   
    22   10  136 1    
    23   11   12 ar   
    24   11  126 1    
    25   12   13 ar   
    26   12  137 1    
    27   13   14 ar   
    28   13   15 1    
    29   14  138 1    
    30   15   16 1    
    31   15  139 1    
    32   15  140 1    
    33   16   17 1    
    34   17   18 1    
    35   17  141 1    
    36   17  142 1    
    37   18   19 1    
    38   18   67 1    
    39   18  143 1    
    40   19   20 am   BACKBONE|DICT|INTERRES
    41   19  144 1    
    42   20   21 2    
    43   20   22 1    
    44   22   23 1    
    45   22   24 1    
    46   22  145 1    
    47   23  146 1    
    48   23  147 1    
    49   23  148 1    
    50   24   25 am   BACKBONE|DICT|INTERRES
    51   24  149 1    
    52   25   26 2    
    53   25   27 1    
    54   27   28 1    
    55   27   29 1    
    56   27  150 1    
    57   28  151 1    
    58   28  152 1    
    59   28  153 1    
    60   29   30 am   BACKBONE|DICT|INTERRES
    61   29  154 1    
    62   30   31 2    
    63   30   32 1    
    64   32   33 1    
    65   32   34 1    
    66   32  155 1    
    67   33  156 1    
    68   33  157 1    
    69   33  158 1    
    70   34   35 am   BACKBONE|DICT|INTERRES
    71   34  159 1    
    72   35   36 2    
    73   35   37 1    
    74   37   38 1    
    75   37   39 1    
    76   37  160 1    
    77   38  161 1    
    78   38  162 1    
    79   38  163 1    
    80   39   40 am   BACKBONE|DICT|INTERRES
    81   39  164 1    
    82   40   41 2    
    83   40   42 1    
    84   42   43 1    
    85   42   44 1    
    86   42  165 1    
    87   43  166 1    
    88   43  167 1    
    89   43  168 1    
    90   44   45 am   BACKBONE|DICT|INTERRES
    91   44  169 1    
    92   45   46 2    
    93   45   47 1    
    94   47   48 1    
    95   47   49 1    
    96   47  170 1    
    97   48  171 1    
    98   48  172 1    
    99   48  173 1    
   100   49   50 am   BACKBONE|DICT|INTERRES
   101   49  174 1    
   102   50   51 2    
   103   50   52 1    
   104   52   53 1    
   105   52   54 1    
   106   52  175 1    
   107   53  176 1    
   108   53  177 1    
   109   53  178 1    
   110   54   55 am   BACKBONE|DICT|INTERRES
   111   54  179 1    
   112   55   56 2    
   113   55   57 1    
   114   57   58 1    
   115   57   59 1    
   116   57  180 1    
   117   58  181 1    
   118   58  182 1    
   119   58  183 1    
   120   59   60 am   BACKBONE|DICT|INTERRES
   121   59  184 1    
   122   60   61 2    
   123   60   62 1    
   124   62   63 1    
   125   62   64 1    
   126   62  185 1    
   127   63  186 1    
   128   63  187 1    
   129   63  188 1    
   130   64   65 am   BACKBONE|DICT|INTERRES
   131   64  189 1    
   132   65   66 2    
   133   67   68 2    
   134   67   69 am   BACKBONE|DICT|INTERRES
   135   69   70 1    
   136   69  190 1    
   137   70   71 1    
   138   70   72 1    
   139   70  191 1    
   140   71  192 1    
   141   71  193 1    
   142   71  194 1    
   143   72   73 2    
   144   72   74 am   BACKBONE|DICT|INTERRES
   145   74   75 1    
   146   74  195 1    
   147   75   76 1    
   148   75   77 1    
   149   75  196 1    
   150   76  197 1    
   151   76  198 1    
   152   76  199 1    
   153   77   78 2    
   154   77   79 am   BACKBONE|DICT|INTERRES
   155   79   80 1    
   156   79  200 1    
   157   80   81 1    
   158   80   82 1    
   159   80  201 1    
   160   81  202 1    
   161   81  203 1    
   162   81  204 1    
   163   82   83 2    
   164   82   84 am   BACKBONE|DICT|INTERRES
   165   84   85 1    
   166   84  205 1    
   167   85   86 1    
   168   85   87 1    
   169   85  206 1    
   170   86  207 1    
   171   86  208 1    
   172   86  209 1    
   173   87   88 2    
   174   87   89 am   BACKBONE|DICT|INTERRES
   175   89   90 1    
   176   89  210 1    
   177   90   91 1    
   178   90   92 1    
   179   90  211 1    
   180   91  212 1    
   181   91  213 1    
   182   91  214 1    
   183   92   93 2    
   184   92   94 am   BACKBONE|DICT|INTERRES
   185   94   95 1    
   186   94  215 1    
   187   95   96 1    
   188   95   97 1    
   189   95  216 1    
   190   96  217 1    
   191   96  218 1    
   192   96  219 1    
   193   97   98 2    
   194   97   99 am   BACKBONE|DICT|INTERRES
   195   99  100 1    
   196   99  220 1    
   197  100  101 1    
   198  100  102 1    
   199  100  221 1    
   200  101  222 1    
   201  101  223 1    
   202  101  224 1    
   203  102  103 2    
   204  102  104 am   BACKBONE|DICT|INTERRES
   205  104  105 1    
   206  104  225 1    
   207  105  106 1    
   208  105  107 1    
   209  105  226 1    
   210  106  227 1    
   211  106  228 1    
   212  106  229 1    
   213  107  108 2    
   214  107  109 am   BACKBONE|DICT|INTERRES
   215  109  110 1    
   216  109  230 1    
   217  110  111 1    
   218  110  112 1    
   219  110  231 1    
   220  111  232 1    
   221  111  233 1    
   222  111  234 1    
   223  112  113 2    
   224  112  114 am   BACKBONE|DICT|INTERRES
   225  114  115 1    
   226  114  235 1    
   227  115  116 1    
   228  115  117 1    
   229  115  236 1    
   230  116  237 1    
   231  116  238 1    
   232  116  239 1    
   233  117  118 2    
   234  117  119 am   BACKBONE|DICT|INTERRES
   235  119  120 1    
   236  119  240 1    
   237  120  121 1    
   238  120  124 1    
   239  120  241 1    
   240  121  122 am   BACKBONE|DICT|INTERRES
   241  121  123 2    
   242  122  242 1    
   243  122  243 1    
   244  124  125 1    
   245  124  244 1    
   246  124  245 1    
   247  125  126 1    
   248  126  246 1    
   249  126  247 1    
@<TRIPOS>SUBSTRUCTURE
     1 UNK         1 GROUP             0       ****    0 ROOT    
