@<TRIPOS>MOLECULE
3R540
247   249    1
SMALL
USER_CHARGES


@<TRIPOS>ATOM
      1 CA         -1.3003   -9.7326  -50.8925 C.3       0 UNK        -0.1800 
      2 C           0.0036  -10.3992  -50.4759 C.2       0 UNK         0.5000 
      3 O           1.0555  -10.0893  -51.0366 O.2       0 UNK        -0.5000 
      4 N          -0.0642  -11.3166  -49.5031 N.am      1 UNK        -0.5000 
      5 CA          1.0904  -12.0094  -48.9225 C.3       1 UNK         0.1400 
      6 C6          0.6788  -13.3872  -48.3345 C.3       23 UNK        -0.0398 
      7 S7          2.0577  -14.5852  -48.3558 S.3       23 UNK        -0.2404 
      8 C8          1.8507  -15.3497  -49.9949 C.3       23 UNK        -0.0205 
      9 C9          0.9567  -16.5771  -49.9315 C.ar      23 UNK        -0.0193 
     10 C10        -0.4085  -16.4856  -50.2192 C.ar      23 UNK        -0.1150 
     11 C11        -1.2219  -17.6219  -50.1614 C.ar      23 UNK        -0.0193 
     12 C12        -0.6607  -18.8544  -49.8143 C.ar      23 UNK        -0.1150 
     13 C13         0.7031  -18.9566  -49.5269 C.ar      23 UNK        -0.0193 
     14 C14         1.5065  -17.8157  -49.5919 C.ar      23 UNK        -0.1150 
     15 C15         1.3100  -20.2938  -49.1379 C.3       23 UNK        -0.0205 
     16 S16         1.6982  -20.3287  -47.3621 S.3       23 UNK        -0.2404 
     17 C17         1.9242  -22.1097  -47.0673 C.3       23 UNK        -0.0398 
     18 CA          0.7162  -22.8182  -46.4083 C.3       11 UNK         0.1400 
     19 N           0.4055  -22.3541  -45.0525 N.am      11 UNK        -0.5000 
     20 C          -0.3163  -23.0865  -44.1893 C.2       10 UNK         0.5000 
     21 O          -0.7552  -24.2081  -44.4513 O.2       10 UNK        -0.5000 
     22 CA         -0.6424  -22.4563  -42.8252 C.3       10 UNK         0.1400 
     23 CB          0.5832  -22.4710  -41.8992 C.3       10 UNK        -0.1800 
     24 N          -1.1593  -21.0952  -42.9406 N.am      10 UNK        -0.5000 
     25 C          -2.2989  -20.7570  -43.5586 C.2       9 UNK         0.5000 
     26 O          -3.0519  -21.5660  -44.0997 O.2       9 UNK        -0.5000 
     27 CA         -2.6367  -19.2572  -43.6098 C.3       9 UNK         0.1400 
     28 CB         -3.2908  -18.7913  -42.3001 C.3       9 UNK        -0.1800 
     29 N          -1.4590  -18.4380  -43.8935 N.am      9 UNK        -0.5000 
     30 C          -0.8182  -18.4301  -45.0708 C.2       8 UNK         0.5000 
     31 O          -1.1776  -19.0904  -46.0430 O.2       8 UNK        -0.5000 
     32 CA          0.4481  -17.5601  -45.1644 C.3       8 UNK         0.1400 
     33 CB          0.0699  -16.1087  -45.4857 C.3       8 UNK        -0.1800 
     34 N           1.2616  -17.6069  -43.9463 N.am      8 UNK        -0.5000 
     35 C           1.8542  -18.7173  -43.4801 C.2       7 UNK         0.5000 
     36 O           1.7910  -19.8174  -44.0309 O.2       7 UNK        -0.5000 
     37 CA          2.5993  -18.5938  -42.1384 C.3       7 UNK         0.1400 
     38 CB          3.9619  -17.9189  -42.3374 C.3       7 UNK        -0.1800 
     39 N           1.8408  -17.8862  -41.1011 N.am      7 UNK        -0.5000 
     40 C           0.6320  -18.2625  -40.6545 C.2       6 UNK         0.5000 
     41 O           0.0052  -19.2098  -41.1270 O.2       6 UNK        -0.5000 
     42 CA          0.0052  -17.4884  -39.4788 C.3       6 UNK         0.1400 
     43 CB         -0.0904  -18.3883  -38.2364 C.3       6 UNK        -0.1800 
     44 N           0.7172  -16.2654  -39.1126 N.am      6 UNK        -0.5000 
     45 C           0.6612  -15.1119  -39.7877 C.2       5 UNK         0.5000 
     46 O           0.0238  -14.9640  -40.8316 O.2       5 UNK        -0.5000 
     47 CA          1.4390  -13.9144  -39.2027 C.3       5 UNK         0.1400 
     48 CB          2.0379  -14.1601  -37.7981 C.3       5 UNK        -0.1800 
     49 N           2.4701  -13.4456  -40.1290 N.am      5 UNK        -0.5000 
     50 C           3.5070  -14.1457  -40.6129 C.2       4 UNK         0.5000 
     51 O           3.7642  -15.3091  -40.2962 O.2       4 UNK        -0.5000 
     52 CA          4.3705  -13.3954  -41.6496 C.3       4 UNK         0.1400 
     53 CB          5.4883  -14.2533  -42.2772 C.3       4 UNK        -0.1800 
     54 N           3.5536  -12.7597  -42.6908 N.am      4 UNK        -0.5000 
     55 C           2.6827  -13.3642  -43.5165 C.2       3 UNK         0.5000 
     56 O           2.4826  -14.5790  -43.5364 O.2       3 UNK        -0.5000 
     57 CA          1.8935  -12.4613  -44.4851 C.3       3 UNK         0.1400 
     58 CB          0.3937  -12.5045  -44.1528 C.3       3 UNK        -0.1800 
     59 N           2.3195  -11.0576  -44.4283 N.am      3 UNK        -0.5000 
     60 C           3.2240  -10.3942  -45.1675 C.2       2 UNK         0.5000 
     61 O           3.5438   -9.2457  -44.8654 O.2       2 UNK        -0.5000 
     62 CA          3.8759  -11.0168  -46.4268 C.3       2 UNK         0.1400 
     63 CB          4.9844  -12.0161  -46.0547 C.3       2 UNK        -0.1800 
     64 N           2.9706  -11.6274  -47.4038 N.am      2 UNK        -0.5000 
     65 C           1.8338  -11.1172  -47.8971 C.2       1 UNK         0.5000 
     66 O           1.3762  -10.0170  -47.5768 O.2       1 UNK        -0.5000 
     67 C          -0.5336  -22.8514  -47.3113 C.2       11 UNK         0.5000 
     68 O          -0.6609  -23.7844  -48.1014 O.2       11 UNK        -0.5000 
     69 N          -1.4570  -21.8874  -47.1592 N.am      12 UNK        -0.5000 
     70 CA         -2.7401  -21.8736  -47.8665 C.3       12 UNK         0.1400 
     71 CB         -3.4891  -20.5592  -47.6068 C.3       12 UNK        -0.1800 
     72 C          -3.6277  -23.0771  -47.5080 C.2       12 UNK         0.5000 
     73 O          -4.2330  -23.6613  -48.4047 O.2       12 UNK        -0.5000 
     74 N          -3.6642  -23.4552  -46.2237 N.am      13 UNK        -0.5000 
     75 CA         -4.3656  -24.6457  -45.7431 C.3       13 UNK         0.1400 
     76 CB         -4.3779  -24.6537  -44.2071 C.3       13 UNK        -0.1800 
     77 C          -3.7614  -25.9504  -46.2958 C.2       13 UNK         0.5000 
     78 O          -4.5097  -26.8444  -46.6924 O.2       13 UNK        -0.5000 
     79 N          -2.4240  -26.0257  -46.3334 N.am      14 UNK        -0.5000 
     80 CA         -1.6750  -27.1734  -46.8445 C.3       14 UNK         0.1400 
     81 CB         -0.2058  -27.0532  -46.4112 C.3       14 UNK        -0.1800 
     82 C          -1.7785  -27.3351  -48.3733 C.2       14 UNK         0.5000 
     83 O          -1.9829  -28.4506  -48.8532 O.2       14 UNK        -0.5000 
     84 N          -1.6278  -26.2262  -49.1087 N.am      15 UNK        -0.5000 
     85 CA         -1.5532  -26.1937  -50.5714 C.3       15 UNK         0.1400 
     86 CB         -0.5547  -25.1006  -50.9893 C.3       15 UNK        -0.1800 
     87 C          -2.9148  -25.9827  -51.2614 C.2       15 UNK         0.5000 
     88 O          -2.9358  -25.8049  -52.4796 O.2       15 UNK        -0.5000 
     89 N          -4.0156  -25.9775  -50.4950 N.am      16 UNK        -0.5000 
     90 CA         -5.4018  -25.7862  -50.9425 C.3       16 UNK         0.1400 
     91 CB         -5.8689  -26.9823  -51.7981 C.3       16 UNK        -0.1800 
     92 C          -5.5970  -24.4293  -51.6493 C.2       16 UNK         0.5000 
     93 O          -5.9443  -24.3760  -52.8312 O.2       16 UNK        -0.5000 
     94 N          -5.3026  -23.3546  -50.9057 N.am      17 UNK        -0.5000 
     95 CA         -5.3025  -21.9508  -51.3269 C.3       17 UNK         0.1400 
     96 CB         -6.7370  -21.4729  -51.6371 C.3       17 UNK        -0.1800 
     97 C          -4.2999  -21.6863  -52.4677 C.2       17 UNK         0.5000 
     98 O          -4.6058  -20.9355  -53.3936 O.2       17 UNK        -0.5000 
     99 N          -3.1311  -22.3417  -52.3786 N.am      18 UNK        -0.5000 
    100 CA        -2.0429  -22.3522  -53.3624 C.3       18 UNK         0.1400 
    101 CB        -1.3687  -20.9667  -53.4404 C.3       18 UNK        -0.1800 
    102 C         -2.5190  -22.8786  -54.7317 C.2       18 UNK         0.5000 
    103 O         -2.3579  -22.2023  -55.7471 O.2       18 UNK        -0.5000 
    104 N         -3.1505  -24.0621  -54.7181 N.am      19 UNK        -0.5000 
    105 CA        -3.8398  -24.7058  -55.8425 C.3       19 UNK         0.1400 
    106 CB        -2.8276  -25.1856  -56.9032 C.3       19 UNK        -0.1800 
    107 C         -4.9571  -23.8114  -56.4231 C.2       19 UNK         0.5000 
    108 O         -5.0532  -23.6374  -57.6392 O.2       19 UNK        -0.5000 
    109 N         -5.7549  -23.2332  -55.5147 N.am      20 UNK        -0.5000 
    110 CA        -6.8537  -22.2875  -55.7329 C.3       20 UNK         0.1400 
    111 CB        -7.9711  -22.9262  -56.5831 C.3       20 UNK        -0.1800 
    112 C         -6.4427  -20.8967  -56.2673 C.2       20 UNK         0.5000 
    113 O         -7.3295  -20.0778  -56.5175 O.2       20 UNK        -0.5000 
    114 N         -5.1380  -20.6117  -56.4036 N.am      21 UNK        -0.5000 
    115 CA        -4.6160  -19.3290  -56.8891 C.3       21 UNK         0.1400 
    116 CB        -3.1035  -19.4363  -57.1273 C.3       21 UNK        -0.1800 
    117 C         -4.9281  -18.1402  -55.9597 C.2       21 UNK         0.5000 
    118 O         -5.0974  -17.0227  -56.4501 O.2       21 UNK        -0.5000 
    119 N         -5.0277  -18.4007  -54.6505 N.am      22 UNK        -0.5000 
    120 CA        -5.4629  -17.4284  -53.6353 C.3       22 UNK         0.1400 
    121 C         -7.0108  -17.2594  -53.5503 C.2       22 UNK         0.5000 
    122 N         -7.8170  -17.9762  -54.3264 N.am      22 UNK        -0.7600 
    123 O         -7.4960  -16.4474  -52.7672 O.2       22 UNK        -0.5000 
    124 C124       -4.8569  -17.7317  -52.2399 C.3       23 UNK        -0.0398 
    125 S125       -3.0334  -17.7586  -52.2384 S.3       23 UNK        -0.2404 
    126 C126       -2.7071  -17.5186  -50.4669 C.3       23 UNK        -0.0205 
    127 H127       -1.4925   -9.9117  -51.9504 H         1 UNK         0.0600 
    128 H128       -1.2383   -8.6560  -50.7334 H         1 UNK         0.0600 
    129 H129       -2.1499  -10.1117  -50.3239 H         1 UNK         0.0600 
    130 H130       -0.9530  -11.4937  -49.0578 H         1 UNK         0.3000 
    131 H131        1.7920  -12.1923  -49.7397 H         1 UNK         0.0600 
    132 H132        0.3007  -13.2900  -47.3154 H         1 UNK         0.0800 
    133 H133       -0.1437  -13.8165  -48.9074 H         1 UNK         0.0800 
    134 H134        2.8336  -15.6371  -50.3712 H         1 UNK         0.0800 
    135 H135        1.4582  -14.6220  -50.7069 H         1 UNK         0.0800 
    136 H136       -0.8395  -15.5328  -50.4917 H         1 UNK         0.1150 
    137 H137       -1.2865  -19.7340  -49.7673 H         1 UNK         0.1150 
    138 H138        2.5604  -17.8911  -49.3633 H         1 UNK         0.1150 
    139 H139        0.6241  -21.1047  -49.3864 H         1 UNK         0.0800 
    140 H140        2.2203  -20.4689  -49.7130 H         1 UNK         0.0800 
    141 H141        2.1860  -22.6027  -48.0053 H         1 UNK         0.0800 
    142 H142        2.7987  -22.2254  -46.4258 H         1 UNK         0.0800 
    143 H143        1.0263  -23.8606  -46.3056 H         1 UNK         0.0600 
    144 H144        0.7450  -21.4349  -44.7835 H         1 UNK         0.3000 
    145 H145       -1.4216  -23.0640  -42.3603 H         1 UNK         0.0600 
    146 H146        0.3302  -22.0987  -40.9062 H         1 UNK         0.0600 
    147 H147        1.3929  -21.8541  -42.2891 H         1 UNK         0.0600 
    148 H148        0.9697  -23.4837  -41.7790 H         1 UNK         0.0600 
    149 H149       -0.6213  -20.3650  -42.4804 H         1 UNK         0.3000 
    150 H150       -3.3563  -19.1053  -44.4169 H         1 UNK         0.0600 
    151 H151       -4.1962  -19.3638  -42.0946 H         1 UNK         0.0600 
    152 H152       -3.5763  -17.7407  -42.3537 H         1 UNK         0.0600 
    153 H153       -2.6261  -18.9152  -41.4452 H         1 UNK         0.0600 
    154 H154       -1.0697  -17.9105  -43.1263 H         1 UNK         0.3000 
    155 H155        1.0583  -17.9313  -45.9877 H         1 UNK         0.0600 
    156 H156       -0.4786  -16.0501  -46.4270 H         1 UNK         0.0600 
    157 H157        0.9562  -15.4840  -45.5906 H         1 UNK         0.0600 
    158 H158       -0.5618  -15.6806  -44.7074 H         1 UNK         0.0600 
    159 H159        1.3930  -16.7356  -43.4478 H         1 UNK         0.3000 
    160 H160        2.7780  -19.6062  -41.7705 H         1 UNK         0.0600 
    161 H161        3.8418  -16.8973  -42.6945 H         1 UNK         0.0600 
    162 H162        4.5632  -18.4564  -43.0715 H         1 UNK         0.0600 
    163 H163        4.5304  -17.8865  -41.4078 H         1 UNK         0.0600 
    164 H164        2.2909  -17.0840  -40.6778 H         1 UNK         0.3000 
    165 H165       -1.0099  -17.2200  -39.7792 H         1 UNK         0.0600 
    166 H166       -0.5989  -17.8788  -37.4176 H         1 UNK         0.0600 
    167 H167       -0.6561  -19.2961  -38.4512 H         1 UNK         0.0600 
    168 H168        0.8958  -18.6925  -37.8834 H         1 UNK         0.0600 
    169 H169        1.2873  -16.3072  -38.2802 H         1 UNK         0.3000 
    170 H170        0.7154  -13.1032  -39.1108 H         1 UNK         0.0600 
    171 H171        2.7868  -14.9527  -37.7968 H         1 UNK         0.0600 
    172 H172        2.5178  -13.2575  -37.4197 H         1 UNK         0.0600 
    173 H173        1.2621  -14.4311  -37.0808 H         1 UNK         0.0600 
    174 H174        2.3282  -12.5147  -40.4935 H         1 UNK         0.3000 
    175 H175        4.8570  -12.5882  -41.1001 H         1 UNK         0.0600 
    176 H176        5.0924  -15.0414  -42.9148 H         1 UNK         0.0600 
    177 H177        6.1510  -13.6403  -42.8880 H         1 UNK         0.0600 
    178 H178        6.1015  -14.7261  -41.5093 H         1 UNK         0.0600 
    179 H179        3.6405  -11.7559  -42.7617 H         1 UNK         0.3000 
    180 H180        2.0253  -12.8888  -45.4751 H         1 UNK         0.0600 
    181 H181        0.1868  -12.0855  -43.1673 H         1 UNK         0.0600 
    182 H182        0.0147  -13.5251  -44.1530 H         1 UNK         0.0600 
    183 H183       -0.1870  -11.9435  -44.8855 H         1 UNK         0.0600 
    184 H184        1.9017  -10.5384  -43.6704 H         1 UNK         0.3000 
    185 H185        4.3594  -10.1908  -46.9521 H         1 UNK         0.0600 
    186 H186        4.5815  -12.9618  -45.6937 H         1 UNK         0.0600 
    187 H187        5.6155  -12.2362  -46.9159 H         1 UNK         0.0600 
    188 H188        5.6335  -11.6154  -45.2748 H         1 UNK         0.0600 
    189 H189        3.2414  -12.5459  -47.7288 H         1 UNK         0.3000 
    190 H190       -1.2728  -21.1102  -46.5327 H         1 UNK         0.3000 
    191 H191       -2.5261  -21.9310  -48.9358 H         1 UNK         0.0600 
    192 H192       -2.9112  -19.7008  -47.9461 H         1 UNK         0.0600 
    193 H193       -3.7006  -20.4201  -46.5468 H         1 UNK         0.0600 
    194 H194       -4.4421  -20.5376  -48.1364 H         1 UNK         0.0600 
    195 H195       -3.1930  -22.8863  -45.5257 H         1 UNK         0.3000 
    196 H196       -5.3998  -24.5869  -46.0887 H         1 UNK         0.0600 
    197 H197       -4.8817  -23.7707  -43.8136 H         1 UNK         0.0600 
    198 H198       -3.3687  -24.6724  -43.7949 H         1 UNK         0.0600 
    199 H199       -4.9064  -25.5277  -43.8245 H         1 UNK         0.0600 
    200 H200       -1.8828  -25.2573  -45.9533 H         1 UNK         0.3000 
    201 H201       -2.0866  -28.0753  -46.3864 H         1 UNK         0.0600 
    202 H202       -0.1177  -27.0005  -45.3258 H         1 UNK         0.0600 
    203 H203        0.2658  -26.1629  -46.8278 H         1 UNK         0.0600 
    204 H204        0.3715  -27.9167  -46.7437 H         1 UNK         0.0600 
    205 H205       -1.4292  -25.3458  -48.6360 H         1 UNK         0.3000 
    206 H206       -1.1631  -27.1479  -50.9311 H         1 UNK         0.0600 
    207 H207        0.4057  -25.2322  -50.4906 H         1 UNK         0.0600 
    208 H208       -0.9231  -24.1039  -50.7452 H         1 UNK         0.0600 
    209 H209       -0.3650  -25.1310  -52.0628 H         1 UNK         0.0600 
    210 H210       -3.8856  -26.0723  -49.4970 H         1 UNK         0.3000 
    211 H211       -6.0190  -25.7624  -50.0431 H         1 UNK         0.0600 
    212 H212       -5.3095  -27.0621  -52.7308 H         1 UNK         0.0600 
    213 H213       -6.9233  -26.8844  -52.0589 H         1 UNK         0.0600 
    214 H214       -5.7534  -27.9214  -51.2572 H         1 UNK         0.0600 
    215 H215       -4.9807  -23.5212  -49.9509 H         1 UNK         0.3000 
    216 H216       -4.9425  -21.3716  -50.4759 H         1 UNK         0.0600 
    217 H217       -6.7600  -20.4202  -51.9175 H         1 UNK         0.0600 
    218 H218       -7.3811  -21.5868  -50.7653 H         1 UNK         0.0600 
    219 H219       -7.1864  -22.0355  -52.4534 H         1 UNK         0.0600 
    220 H220       -3.0148  -22.9664  -51.5952 H         1 UNK         0.3000 
    221 H221       -1.2963  -23.0602  -53.0035 H         1 UNK         0.0600 
    222 H222       -2.0458  -20.2074  -53.8319 H         1 UNK         0.0600 
    223 H223       -1.0300  -20.6357  -52.4586 H         1 UNK         0.0600 
    224 H224       -0.4966  -20.9935  -54.0943 H         1 UNK         0.0600 
    225 H225       -3.2089  -24.5682  -53.8363 H         1 UNK         0.3000 
    226 H226       -4.3340  -25.5880  -55.4327 H         1 UNK         0.0600 
    227 H227       -2.0670  -25.8274  -56.4585 H         1 UNK         0.0600 
    228 H228       -3.3249  -25.7640  -57.6826 H         1 UNK         0.0600 
    229 H229       -2.3206  -24.3514  -57.3889 H         1 UNK         0.0600 
    230 H230       -5.6021  -23.4813  -54.5404 H         1 UNK         0.3000 
    231 H231       -7.2721  -22.1021  -54.7445 H         1 UNK         0.0600 
    232 H232       -8.8585  -22.2927  -56.6035 H         1 UNK         0.0600 
    233 H233       -8.2739  -23.8909  -56.1757 H         1 UNK         0.0600 
    234 H234       -7.6591  -23.0794  -57.6163 H         1 UNK         0.0600 
    235 H235       -4.4539  -21.3065  -56.1313 H         1 UNK         0.3000 
    236 H236       -5.0929  -19.1268  -57.8502 H         1 UNK         0.0600 
    237 H237       -2.5615  -19.5862  -56.1932 H         1 UNK         0.0600 
    238 H238       -2.8640  -20.2647  -57.7941 H         1 UNK         0.0600 
    239 H239       -2.7161  -18.5257  -57.5857 H         1 UNK         0.0600 
    240 H240       -4.8626  -19.3491  -54.3182 H         1 UNK         0.3000 
    241 H241       -5.0856  -16.4481  -53.9323 H         1 UNK         0.0600 
    242 H242       -8.8130  -17.8414  -54.2556 H         1 UNK         0.3800 
    243 H243       -7.4512  -18.6290  -55.0087 H         1 UNK         0.3800 
    244 H244       -5.2148  -18.6893  -51.8641 H         1 UNK         0.0800 
    245 H245       -5.1823  -16.9799  -51.5187 H         1 UNK         0.0800 
    246 H246       -3.2601  -18.2637  -49.8936 H         1 UNK         0.0800 
    247 H247       -3.0856  -16.5440  -50.1547 H         1 UNK         0.0800 
@<TRIPOS>BOND
     1    1    2 1    
     2    1  127 1    
     3    1  128 1    
     4    1  129 1    
     5    2    3 2    
     6    2    4 am   BACKBONE|DICT|INTERRES
     7    4    5 1    
     8    4  130 1    
     9    5    6 1    
    10    5   65 1    
    11    5  131 1    
    12    6    7 1    
    13    6  132 1    
    14    6  133 1    
    15    7    8 1    
    16    8    9 1    
    17    8  134 1    
    18    8  135 1    
    19    9   10 ar   
    20    9   14 ar   
    21   10   11 ar   
    22   10  136 1    
    23   11   12 ar   
    24   11  126 1    
    25   12   13 ar   
    26   12  137 1    
    27   13   14 ar   
    28   13   15 1    
    29   14  138 1    
    30   15   16 1    
    31   15  139 1    
    32   15  140 1    
    33   16   17 1    
    34   17   18 1    
    35   17  141 1    
    36   17  142 1    
    37   18   19 1    
    38   18   67 1    
    39   18  143 1    
    40   19   20 am   BACKBONE|DICT|INTERRES
    41   19  144 1    
    42   20   21 2    
    43   20   22 1    
    44   22   23 1    
    45   22   24 1    
    46   22  145 1    
    47   23  146 1    
    48   23  147 1    
    49   23  148 1    
    50   24   25 am   BACKBONE|DICT|INTERRES
    51   24  149 1    
    52   25   26 2    
    53   25   27 1    
    54   27   28 1    
    55   27   29 1    
    56   27  150 1    
    57   28  151 1    
    58   28  152 1    
    59   28  153 1    
    60   29   30 am   BACKBONE|DICT|INTERRES
    61   29  154 1    
    62   30   31 2    
    63   30   32 1    
    64   32   33 1    
    65   32   34 1    
    66   32  155 1    
    67   33  156 1    
    68   33  157 1    
    69   33  158 1    
    70   34   35 am   BACKBONE|DICT|INTERRES
    71   34  159 1    
    72   35   36 2    
    73   35   37 1    
    74   37   38 1    
    75   37   39 1    
    76   37  160 1    
    77   38  161 1    
    78   38  162 1    
    79   38  163 1    
    80   39   40 am   BACKBONE|DICT|INTERRES
    81   39  164 1    
    82   40   41 2    
    83   40   42 1    
    84   42   43 1    
    85   42   44 1    
    86   42  165 1    
    87   43  166 1    
    88   43  167 1    
    89   43  168 1    
    90   44   45 am   BACKBONE|DICT|INTERRES
    91   44  169 1    
    92   45   46 2    
    93   45   47 1    
    94   47   48 1    
    95   47   49 1    
    96   47  170 1    
    97   48  171 1    
    98   48  172 1    
    99   48  173 1    
   100   49   50 am   BACKBONE|DICT|INTERRES
   101   49  174 1    
   102   50   51 2    
   103   50   52 1    
   104   52   53 1    
   105   52   54 1    
   106   52  175 1    
   107   53  176 1    
   108   53  177 1    
   109   53  178 1    
   110   54   55 am   BACKBONE|DICT|INTERRES
   111   54  179 1    
   112   55   56 2    
   113   55   57 1    
   114   57   58 1    
   115   57   59 1    
   116   57  180 1    
   117   58  181 1    
   118   58  182 1    
   119   58  183 1    
   120   59   60 am   BACKBONE|DICT|INTERRES
   121   59  184 1    
   122   60   61 2    
   123   60   62 1    
   124   62   63 1    
   125   62   64 1    
   126   62  185 1    
   127   63  186 1    
   128   63  187 1    
   129   63  188 1    
   130   64   65 am   BACKBONE|DICT|INTERRES
   131   64  189 1    
   132   65   66 2    
   133   67   68 2    
   134   67   69 am   BACKBONE|DICT|INTERRES
   135   69   70 1    
   136   69  190 1    
   137   70   71 1    
   138   70   72 1    
   139   70  191 1    
   140   71  192 1    
   141   71  193 1    
   142   71  194 1    
   143   72   73 2    
   144   72   74 am   BACKBONE|DICT|INTERRES
   145   74   75 1    
   146   74  195 1    
   147   75   76 1    
   148   75   77 1    
   149   75  196 1    
   150   76  197 1    
   151   76  198 1    
   152   76  199 1    
   153   77   78 2    
   154   77   79 am   BACKBONE|DICT|INTERRES
   155   79   80 1    
   156   79  200 1    
   157   80   81 1    
   158   80   82 1    
   159   80  201 1    
   160   81  202 1    
   161   81  203 1    
   162   81  204 1    
   163   82   83 2    
   164   82   84 am   BACKBONE|DICT|INTERRES
   165   84   85 1    
   166   84  205 1    
   167   85   86 1    
   168   85   87 1    
   169   85  206 1    
   170   86  207 1    
   171   86  208 1    
   172   86  209 1    
   173   87   88 2    
   174   87   89 am   BACKBONE|DICT|INTERRES
   175   89   90 1    
   176   89  210 1    
   177   90   91 1    
   178   90   92 1    
   179   90  211 1    
   180   91  212 1    
   181   91  213 1    
   182   91  214 1    
   183   92   93 2    
   184   92   94 am   BACKBONE|DICT|INTERRES
   185   94   95 1    
   186   94  215 1    
   187   95   96 1    
   188   95   97 1    
   189   95  216 1    
   190   96  217 1    
   191   96  218 1    
   192   96  219 1    
   193   97   98 2    
   194   97   99 am   BACKBONE|DICT|INTERRES
   195   99  100 1    
   196   99  220 1    
   197  100  101 1    
   198  100  102 1    
   199  100  221 1    
   200  101  222 1    
   201  101  223 1    
   202  101  224 1    
   203  102  103 2    
   204  102  104 am   BACKBONE|DICT|INTERRES
   205  104  105 1    
   206  104  225 1    
   207  105  106 1    
   208  105  107 1    
   209  105  226 1    
   210  106  227 1    
   211  106  228 1    
   212  106  229 1    
   213  107  108 2    
   214  107  109 am   BACKBONE|DICT|INTERRES
   215  109  110 1    
   216  109  230 1    
   217  110  111 1    
   218  110  112 1    
   219  110  231 1    
   220  111  232 1    
   221  111  233 1    
   222  111  234 1    
   223  112  113 2    
   224  112  114 am   BACKBONE|DICT|INTERRES
   225  114  115 1    
   226  114  235 1    
   227  115  116 1    
   228  115  117 1    
   229  115  236 1    
   230  116  237 1    
   231  116  238 1    
   232  116  239 1    
   233  117  118 2    
   234  117  119 am   BACKBONE|DICT|INTERRES
   235  119  120 1    
   236  119  240 1    
   237  120  121 1    
   238  120  124 1    
   239  120  241 1    
   240  121  122 am   BACKBONE|DICT|INTERRES
   241  121  123 2    
   242  122  242 1    
   243  122  243 1    
   244  124  125 1    
   245  124  244 1    
   246  124  245 1    
   247  125  126 1    
   248  126  246 1    
   249  126  247 1    
@<TRIPOS>SUBSTRUCTURE
     1 UNK         1 GROUP             0       ****    0 ROOT    
