@<TRIPOS>MOLECULE
3R540
247   249    1
SMALL
USER_CHARGES


@<TRIPOS>ATOM
      1 CA         -2.2509  -15.4358  -45.9357 C.3       0 UNK        -0.1800 
      2 C          -2.0611  -13.9319  -45.9794 C.2       0 UNK         0.5000 
      3 O          -1.2608  -13.3942  -45.2172 O.2       0 UNK        -0.5000 
      4 N          -2.7961  -13.2445  -46.8623 N.am      1 UNK        -0.5000 
      5 CA         -2.7868  -11.7814  -46.9726 C.3       1 UNK         0.1400 
      6 C6         -4.0369  -11.2468  -47.7153 C.3       23 UNK        -0.0398 
      7 S7         -4.0963  -11.5823  -49.5125 S.3       23 UNK        -0.2404 
      8 C8         -5.2491  -12.9896  -49.6446 C.3       23 UNK        -0.0205 
      9 C9         -4.5255  -14.3213  -49.7961 C.ar      23 UNK        -0.0193 
     10 C10        -3.6570  -14.5216  -50.8757 C.ar      23 UNK        -0.1150 
     11 C11        -3.0201  -15.7507  -51.0536 C.ar      23 UNK        -0.0193 
     12 C12        -3.2700  -16.7854  -50.1562 C.ar      23 UNK        -0.1150 
     13 C13        -4.1219  -16.6041  -49.0647 C.ar      23 UNK        -0.0193 
     14 C14        -4.7518  -15.3660  -48.8908 C.ar      23 UNK        -0.1150 
     15 C15        -4.3640  -17.7539  -48.0934 C.3       23 UNK        -0.0205 
     16 S16        -2.7995  -18.4885  -47.5199 S.3       23 UNK        -0.2404 
     17 C17        -3.3738  -19.9174  -46.5574 C.3       23 UNK        -0.0398 
     18 CA         -2.8175  -21.2679  -47.0746 C.3       11 UNK         0.1400 
     19 N          -1.3487  -21.3284  -47.1265 N.am      11 UNK        -0.5000 
     20 C          -0.6366  -22.3652  -47.5974 C.2       10 UNK         0.5000 
     21 O          -1.1416  -23.3501  -48.1339 O.2       10 UNK        -0.5000 
     22 CA          0.8864  -22.3451  -47.3680 C.3       10 UNK         0.1400 
     23 CB          1.6320  -21.6198  -48.4954 C.3       10 UNK        -0.1800 
     24 N           1.2379  -21.7497  -46.0815 N.am      10 UNK        -0.5000 
     25 C           1.0748  -22.3622  -44.9017 C.2       9 UNK         0.5000 
     26 O           0.6453  -23.5101  -44.7857 O.2       9 UNK        -0.5000 
     27 CA          1.4130  -21.5437  -43.6407 C.3       9 UNK         0.1400 
     28 CB          2.9100  -21.6509  -43.3159 C.3       9 UNK        -0.1800 
     29 N           1.0424  -20.1322  -43.7601 N.am      9 UNK        -0.5000 
     30 C          -0.2162  -19.6935  -43.8991 C.2       8 UNK         0.5000 
     31 O          -1.1994  -20.4345  -43.8721 O.2       8 UNK        -0.5000 
     32 CA         -0.4101  -18.1887  -44.1711 C.3       8 UNK         0.1400 
     33 CB         -0.4422  -17.3974  -42.8563 C.3       8 UNK        -0.1800 
     34 N           0.5924  -17.6050  -45.0687 N.am      8 UNK        -0.5000 
     35 C           0.8569  -18.0337  -46.3124 C.2       7 UNK         0.5000 
     36 O           0.3186  -19.0084  -46.8290 O.2       7 UNK        -0.5000 
     37 CA          1.9450  -17.2848  -47.0924 C.3       7 UNK         0.1400 
     38 CB          1.3772  -16.0278  -47.7702 C.3       7 UNK        -0.1800 
     39 N           3.0615  -16.9411  -46.2125 N.am      7 UNK        -0.5000 
     40 C           4.0226  -17.8141  -45.8773 C.2       6 UNK         0.5000 
     41 O           4.1005  -18.9544  -46.3364 O.2       6 UNK        -0.5000 
     42 CA          5.0570  -17.3523  -44.8363 C.3       6 UNK         0.1400 
     43 CB          6.1299  -16.4662  -45.4873 C.3       6 UNK        -0.1800 
     44 N           4.4699  -16.6516  -43.6924 N.am      6 UNK        -0.5000 
     45 C           3.6565  -17.2184  -42.7890 C.2       5 UNK         0.5000 
     46 O           3.2185  -18.3645  -42.8796 O.2       5 UNK        -0.5000 
     47 CA          3.2273  -16.3332  -41.6141 C.3       5 UNK         0.1400 
     48 CB          4.4291  -15.8343  -40.7892 C.3       5 UNK        -0.1800 
     49 N           2.4613  -15.2228  -42.1566 N.am      5 UNK        -0.5000 
     50 C           1.6131  -14.4273  -41.5045 C.2       4 UNK         0.5000 
     51 O           1.4335  -14.4829  -40.2868 O.2       4 UNK        -0.5000 
     52 CA          0.8208  -13.4138  -42.3678 C.3       4 UNK         0.1400 
     53 CB          0.2200  -12.2717  -41.5287 C.3       4 UNK        -0.1800 
     54 N           1.5690  -12.8244  -43.4879 N.am      4 UNK        -0.5000 
     55 C           1.9607  -13.4486  -44.6055 C.2       3 UNK         0.5000 
     56 O           1.8491  -14.6646  -44.7900 O.2       3 UNK        -0.5000 
     57 CA          2.5866  -12.5790  -45.6999 C.3       3 UNK         0.1400 
     58 CB          3.9128  -13.1904  -46.1958 C.3       3 UNK        -0.1800 
     59 N           1.6169  -12.4672  -46.7844 N.am      3 UNK        -0.5000 
     60 C           1.7141  -11.6519  -47.8425 C.2       2 UNK         0.5000 
     61 O           2.6505  -10.8723  -48.0224 O.2       2 UNK        -0.5000 
     62 CA          0.5733  -11.7033  -48.8777 C.3       2 UNK         0.1400 
     63 CB          0.8980  -12.7105  -49.9908 C.3       2 UNK        -0.1800 
     64 N          -0.7224  -12.0448  -48.2924 N.am      2 UNK        -0.5000 
     65 C          -1.4617  -11.2186  -47.5379 C.2       1 UNK         0.5000 
     66 O          -1.1332  -10.0616  -47.2709 O.2       1 UNK        -0.5000 
     67 C          -3.3932  -22.4076  -46.2147 C.2       11 UNK         0.5000 
     68 O          -4.3517  -23.0557  -46.6303 O.2       11 UNK        -0.5000 
     69 N          -2.7832  -22.6451  -45.0443 N.am      12 UNK        -0.5000 
     70 CA         -3.1402  -23.7285  -44.1292 C.3       12 UNK         0.1400 
     71 CB         -2.3968  -23.5417  -42.7982 C.3       12 UNK        -0.1800 
     72 C          -2.8702  -25.1241  -44.7218 C.2       12 UNK         0.5000 
     73 O          -3.6882  -26.0250  -44.5346 O.2       12 UNK        -0.5000 
     74 N          -1.7488  -25.2718  -45.4422 N.am      13 UNK        -0.5000 
     75 CA         -1.3681  -26.5008  -46.1405 C.3       13 UNK         0.1400 
     76 CB          0.0919  -26.3995  -46.6081 C.3       13 UNK        -0.1800 
     77 C          -2.3000  -26.8263  -47.3228 C.2       13 UNK         0.5000 
     78 O          -2.7110  -27.9779  -47.4716 O.2       13 UNK        -0.5000 
     79 N          -2.6258  -25.8090  -48.1321 N.am      14 UNK        -0.5000 
     80 CA         -3.5441  -25.9150  -49.2677 C.3       14 UNK         0.1400 
     81 CB         -3.3654  -24.6853  -50.1689 C.3       14 UNK        -0.1800 
     82 C          -5.0205  -26.0473  -48.8477 C.2       14 UNK         0.5000 
     83 O          -5.8105  -26.6240  -49.5958 O.2       14 UNK        -0.5000 
     84 N          -5.3589  -25.4905  -47.6758 N.am      15 UNK        -0.5000 
     85 CA         -6.6981  -25.3351  -47.0991 C.3       15 UNK         0.1400 
     86 CB         -7.3502  -26.7045  -46.8165 C.3       15 UNK        -0.1800 
     87 C          -7.5975  -24.3869  -47.9235 C.2       15 UNK         0.5000 
     88 O          -8.8219  -24.5269  -47.9042 O.2       15 UNK        -0.5000 
     89 N          -6.9748  -23.4341  -48.6275 N.am      16 UNK        -0.5000 
     90 CA         -7.5892  -22.4683  -49.5323 C.3       16 UNK         0.1400 
     91 CB         -8.1325  -23.1842  -50.7869 C.3       16 UNK        -0.1800 
     92 C          -6.5291  -21.4352  -49.9394 C.2       16 UNK         0.5000 
     93 O          -5.3347  -21.6763  -49.7560 O.2       16 UNK        -0.5000 
     94 N          -6.9759  -20.3292  -50.5453 N.am      17 UNK        -0.5000 
     95 CA         -6.1274  -19.3401  -51.2144 C.3       17 UNK         0.1400 
     96 CB         -6.7722  -17.9491  -51.0716 C.3       17 UNK        -0.1800 
     97 C          -5.9057  -19.7504  -52.6846 C.2       17 UNK         0.5000 
     98 O          -6.2693  -19.0130  -53.6024 O.2       17 UNK        -0.5000 
     99 N          -5.3525  -20.9508  -52.8779 N.am      18 UNK        -0.5000 
    100 CA        -5.1064  -21.5926  -54.1632 C.3       18 UNK         0.1400 
    101 CB        -6.4149  -22.2257  -54.6766 C.3       18 UNK        -0.1800 
    102 C         -4.0014  -22.6466  -53.9908 C.2       18 UNK         0.5000 
    103 O         -3.5384  -22.8734  -52.8700 O.2       18 UNK        -0.5000 
    104 N         -3.6133  -23.2863  -55.1026 N.am      19 UNK        -0.5000 
    105 CA        -2.6191  -24.3597  -55.1936 C.3       19 UNK         0.1400 
    106 CB        -3.1475  -25.6464  -54.5168 C.3       19 UNK        -0.1800 
    107 C         -1.2373  -23.9010  -54.6836 C.2       19 UNK         0.5000 
    108 O         -0.5869  -23.1004  -55.3570 O.2       19 UNK        -0.5000 
    109 N         -0.8171  -24.4051  -53.5162 N.am      20 UNK        -0.5000 
    110 CA         0.4424  -24.0548  -52.8607 C.3       20 UNK         0.1400 
    111 CB         0.7404  -25.0916  -51.7654 C.3       20 UNK        -0.1800 
    112 C          0.4532  -22.6355  -52.2622 C.2       20 UNK         0.5000 
    113 O          1.5347  -22.0701  -52.0892 O.2       20 UNK        -0.5000 
    114 N         -0.7274  -22.0890  -51.9371 N.am      21 UNK        -0.5000 
    115 CA        -0.8909  -20.7853  -51.2967 C.3       21 UNK         0.1400 
    116 CB        -2.3579  -20.6043  -50.8952 C.3       21 UNK        -0.1800 
    117 C         -0.3905  -19.6454  -52.2046 C.2       21 UNK         0.5000 
    118 O         -0.8873  -19.4913  -53.3221 O.2       21 UNK        -0.5000 
    119 N          0.6125  -18.9075  -51.7126 N.am      22 UNK        -0.5000 
    120 CA         1.3998  -17.8977  -52.4468 C.3       22 UNK         0.1400 
    121 C          2.3298  -18.4846  -53.5555 C.2       22 UNK         0.5000 
    122 N          2.5842  -19.7875  -53.6008 N.am      22 UNK        -0.7600 
    123 O          2.8653  -17.7430  -54.3751 O.2       22 UNK        -0.5000 
    124 C124        0.5693  -16.6829  -52.9555 C.3       23 UNK        -0.0398 
    125 S125       -0.3342  -15.8336  -51.6176 S.3       23 UNK        -0.2404 
    126 C126       -2.0511  -15.9817  -52.1985 C.3       23 UNK        -0.0205 
    127 H127       -1.4762  -15.9317  -46.5189 H         1 UNK         0.0600 
    128 H128       -3.2238  -15.7205  -46.3325 H         1 UNK         0.0600 
    129 H129       -2.1939  -15.7915  -44.9081 H         1 UNK         0.0600 
    130 H130       -3.4133  -13.7333  -47.4958 H         1 UNK         0.3000 
    131 H131       -2.8546  -11.3966  -45.9524 H         1 UNK         0.0600 
    132 H132       -4.9402  -11.6287  -47.2387 H         1 UNK         0.0800 
    133 H133       -4.0904  -10.1640  -47.5907 H         1 UNK         0.0800 
    134 H134       -5.9348  -13.0048  -48.7966 H         1 UNK         0.0800 
    135 H135       -5.8709  -12.8397  -50.5282 H         1 UNK         0.0800 
    136 H136       -3.4756  -13.7178  -51.5754 H         1 UNK         0.1150 
    137 H137       -2.7717  -17.7298  -50.3003 H         1 UNK         0.1150 
    138 H138       -5.4288  -15.2218  -48.0605 H         1 UNK         0.1150 
    139 H139       -4.9332  -17.4140  -47.2272 H         1 UNK         0.0800 
    140 H140       -4.9646  -18.5201  -48.5819 H         1 UNK         0.0800 
    141 H141       -4.4653  -19.9341  -46.5705 H         1 UNK         0.0800 
    142 H142       -3.0912  -19.7494  -45.5183 H         1 UNK         0.0800 
    143 H143       -3.1812  -21.4153  -48.0927 H         1 UNK         0.0600 
    144 H144       -0.8474  -20.5146  -46.7800 H         1 UNK         0.3000 
    145 H145        1.2327  -23.3805  -47.3656 H         1 UNK         0.0600 
    146 H146        2.7060  -21.6013  -48.3100 H         1 UNK         0.0600 
    147 H147        1.4791  -22.1348  -49.4424 H         1 UNK         0.0600 
    148 H148        1.2975  -20.5905  -48.6163 H         1 UNK         0.0600 
    149 H149        1.5202  -20.7788  -46.0944 H         1 UNK         0.3000 
    150 H150        0.8504  -21.9708  -42.8080 H         1 UNK         0.0600 
    151 H151        3.2189  -22.6933  -43.2273 H         1 UNK         0.0600 
    152 H152        3.1429  -21.1615  -42.3700 H         1 UNK         0.0600 
    153 H153        3.5231  -21.1884  -44.0908 H         1 UNK         0.0600 
    154 H154        1.8005  -19.4569  -43.7279 H         1 UNK         0.3000 
    155 H155       -1.3795  -18.0750  -44.6588 H         1 UNK         0.0600 
    156 H156        0.4996  -17.4807  -42.3148 H         1 UNK         0.0600 
    157 H157       -0.6366  -16.3404  -43.0350 H         1 UNK         0.0600 
    158 H158       -1.2307  -17.7663  -42.1993 H         1 UNK         0.0600 
    159 H159        1.0751  -16.7790  -44.7415 H         1 UNK         0.3000 
    160 H160        2.3056  -17.9456  -47.8840 H         1 UNK         0.0600 
    161 H161        2.1576  -15.4756  -48.2935 H         1 UNK         0.0600 
    162 H162        0.9052  -15.3525  -47.0586 H         1 UNK         0.0600 
    163 H163        0.6191  -16.2976  -48.5068 H         1 UNK         0.0600 
    164 H164        3.0136  -16.0411  -45.7504 H         1 UNK         0.3000 
    165 H165        5.5524  -18.2468  -44.4523 H         1 UNK         0.0600 
    166 H166        6.9131  -16.2063  -44.7750 H         1 UNK         0.0600 
    167 H167        6.6087  -16.9832  -46.3199 H         1 UNK         0.0600 
    168 H168        5.7093  -15.5398  -45.8774 H         1 UNK         0.0600 
    169 H169        4.7760  -15.7021  -43.5411 H         1 UNK         0.3000 
    170 H170        2.5791  -16.9275  -40.9666 H         1 UNK         0.0600 
    171 H171        4.0999  -15.3056  -39.8946 H         1 UNK         0.0600 
    172 H172        5.0631  -15.1549  -41.3596 H         1 UNK         0.0600 
    173 H173        5.0495  -16.6688  -40.4602 H         1 UNK         0.0600 
    174 H174        2.4704  -15.1304  -43.1697 H         1 UNK         0.3000 
    175 H175       -0.0133  -13.9724  -42.7961 H         1 UNK         0.0600 
    176 H176       -0.3902  -11.6103  -42.1443 H         1 UNK         0.0600 
    177 H177        0.9972  -11.6707  -41.0553 H         1 UNK         0.0600 
    178 H178       -0.4263  -12.6577  -40.7393 H         1 UNK         0.0600 
    179 H179        1.7302  -11.8304  -43.4190 H         1 UNK         0.3000 
    180 H180        2.7842  -11.5837  -45.2970 H         1 UNK         0.0600 
    181 H181        3.7519  -14.1310  -46.7225 H         1 UNK         0.0600 
    182 H182        4.5873  -13.3862  -45.3617 H         1 UNK         0.0600 
    183 H183        4.4350  -12.5172  -46.8751 H         1 UNK         0.0600 
    184 H184        0.7866  -13.0352  -46.6754 H         1 UNK         0.3000 
    185 H185        0.4942  -10.7130  -49.3314 H         1 UNK         0.0600 
    186 H186        0.9602  -13.7288  -49.6072 H         1 UNK         0.0600 
    187 H187        0.1373  -12.6942  -50.7716 H         1 UNK         0.0600 
    188 H188        1.8533  -12.4787  -50.4634 H         1 UNK         0.0600 
    189 H189       -1.0782  -12.9717  -48.4743 H         1 UNK         0.3000 
    190 H190       -2.0359  -22.0246  -44.7481 H         1 UNK         0.3000 
    191 H191       -4.2116  -23.6556  -43.9305 H         1 UNK         0.0600 
    192 H192       -2.6355  -22.5792  -42.3454 H         1 UNK         0.0600 
    193 H193       -2.6761  -24.3167  -42.0833 H         1 UNK         0.0600 
    194 H194       -1.3157  -23.5896  -42.9283 H         1 UNK         0.0600 
    195 H195       -1.0997  -24.4955  -45.4974 H         1 UNK         0.3000 
    196 H196       -1.4355  -27.3245  -45.4268 H         1 UNK         0.0600 
    197 H197        0.4137  -27.3274  -47.0822 H         1 UNK         0.0600 
    198 H198        0.7632  -26.2123  -45.7699 H         1 UNK         0.0600 
    199 H199        0.2294  -25.5978  -47.3333 H         1 UNK         0.0600 
    200 H200       -2.1961  -24.8990  -47.9800 H         1 UNK         0.3000 
    201 H201       -3.2809  -26.8034  -49.8455 H         1 UNK         0.0600 
    202 H202       -2.3517  -24.6206  -50.5619 H         1 UNK         0.0600 
    203 H203       -3.5708  -23.7602  -49.6293 H         1 UNK         0.0600 
    204 H204       -4.0449  -24.7243  -51.0208 H         1 UNK         0.0600 
    205 H205       -4.6375  -24.9702  -47.1881 H         1 UNK         0.3000 
    206 H206       -6.5488  -24.8422  -46.1375 H         1 UNK         0.0600 
    207 H207       -6.6819  -27.3470  -46.2429 H         1 UNK         0.0600 
    208 H208       -8.2652  -26.5879  -46.2349 H         1 UNK         0.0600 
    209 H209       -7.6139  -27.2276  -47.7358 H         1 UNK         0.0600 
    210 H210       -5.9678  -23.3393  -48.5489 H         1 UNK         0.3000 
    211 H211       -8.3988  -21.9548  -49.0105 H         1 UNK         0.0600 
    212 H212       -7.3439  -23.7324  -51.3045 H         1 UNK         0.0600 
    213 H213       -8.5582  -22.4749  -51.4975 H         1 UNK         0.0600 
    214 H214       -8.9211  -23.8934  -50.5366 H         1 UNK         0.0600 
    215 H215       -7.9701  -20.2217  -50.6868 H         1 UNK         0.3000 
    216 H216       -5.1452  -19.3051  -50.7404 H         1 UNK         0.0600 
    217 H217       -6.1434  -17.1800  -51.5223 H         1 UNK         0.0600 
    218 H218       -6.9063  -17.6815  -50.0236 H         1 UNK         0.0600 
    219 H219       -7.7487  -17.9033  -51.5551 H         1 UNK         0.0600 
    220 H220       -5.0236  -21.4843  -52.0792 H         1 UNK         0.3000 
    221 H221       -4.7500  -20.8466  -54.8764 H         1 UNK         0.0600 
    222 H222       -6.7828  -22.9907  -53.9916 H         1 UNK         0.0600 
    223 H223       -7.1996  -21.4779  -54.7920 H         1 UNK         0.0600 
    224 H224       -6.2771  -22.6947  -55.6511 H         1 UNK         0.0600 
    225 H225       -4.0250  -23.0080  -55.9820 H         1 UNK         0.3000 
    226 H226       -2.4938  -24.5785  -56.2551 H         1 UNK         0.0600 
    227 H227       -4.0739  -25.9768  -54.9865 H         1 UNK         0.0600 
    228 H228       -2.4316  -26.4636  -54.6140 H         1 UNK         0.0600 
    229 H229       -3.3528  -25.5080  -53.4549 H         1 UNK         0.0600 
    230 H230       -1.4288  -25.0358  -53.0196 H         1 UNK         0.3000 
    231 H231        1.2409  -24.1044  -53.6040 H         1 UNK         0.0600 
    232 H232       -0.0186  -25.0834  -50.9823 H         1 UNK         0.0600 
    233 H233        1.7007  -24.8893  -51.2889 H         1 UNK         0.0600 
    234 H234        0.7896  -26.0998  -52.1769 H         1 UNK         0.0600 
    235 H235       -1.5819  -22.5808  -52.1756 H         1 UNK         0.3000 
    236 H236       -0.3044  -20.8005  -50.3787 H         1 UNK         0.0600 
    237 H237       -2.7744  -21.5272  -50.4926 H         1 UNK         0.0600 
    238 H238       -2.4531  -19.8529  -50.1161 H         1 UNK         0.0600 
    239 H239       -2.9727  -20.2971  -51.7395 H         1 UNK         0.0600 
    240 H240        0.9561  -19.1207  -50.7883 H         1 UNK         0.3000 
    241 H241        2.0974  -17.5044  -51.7066 H         1 UNK         0.0600 
    242 H242        2.1660  -20.4385  -52.9430 H         1 UNK         0.3800 
    243 H243        3.1988  -20.1396  -54.3171 H         1 UNK         0.3800 
    244 H244        1.2257  -15.9388  -53.4092 H         1 UNK         0.0800 
    245 H245       -0.1183  -16.9898  -53.7442 H         1 UNK         0.0800 
    246 H246       -2.2187  -16.9765  -52.6147 H         1 UNK         0.0800 
    247 H247       -2.2262  -15.2699  -53.0065 H         1 UNK         0.0800 
@<TRIPOS>BOND
     1    1    2 1    
     2    1  127 1    
     3    1  128 1    
     4    1  129 1    
     5    2    3 2    
     6    2    4 am   BACKBONE|DICT|INTERRES
     7    4    5 1    
     8    4  130 1    
     9    5    6 1    
    10    5   65 1    
    11    5  131 1    
    12    6    7 1    
    13    6  132 1    
    14    6  133 1    
    15    7    8 1    
    16    8    9 1    
    17    8  134 1    
    18    8  135 1    
    19    9   10 ar   
    20    9   14 ar   
    21   10   11 ar   
    22   10  136 1    
    23   11   12 ar   
    24   11  126 1    
    25   12   13 ar   
    26   12  137 1    
    27   13   14 ar   
    28   13   15 1    
    29   14  138 1    
    30   15   16 1    
    31   15  139 1    
    32   15  140 1    
    33   16   17 1    
    34   17   18 1    
    35   17  141 1    
    36   17  142 1    
    37   18   19 1    
    38   18   67 1    
    39   18  143 1    
    40   19   20 am   BACKBONE|DICT|INTERRES
    41   19  144 1    
    42   20   21 2    
    43   20   22 1    
    44   22   23 1    
    45   22   24 1    
    46   22  145 1    
    47   23  146 1    
    48   23  147 1    
    49   23  148 1    
    50   24   25 am   BACKBONE|DICT|INTERRES
    51   24  149 1    
    52   25   26 2    
    53   25   27 1    
    54   27   28 1    
    55   27   29 1    
    56   27  150 1    
    57   28  151 1    
    58   28  152 1    
    59   28  153 1    
    60   29   30 am   BACKBONE|DICT|INTERRES
    61   29  154 1    
    62   30   31 2    
    63   30   32 1    
    64   32   33 1    
    65   32   34 1    
    66   32  155 1    
    67   33  156 1    
    68   33  157 1    
    69   33  158 1    
    70   34   35 am   BACKBONE|DICT|INTERRES
    71   34  159 1    
    72   35   36 2    
    73   35   37 1    
    74   37   38 1    
    75   37   39 1    
    76   37  160 1    
    77   38  161 1    
    78   38  162 1    
    79   38  163 1    
    80   39   40 am   BACKBONE|DICT|INTERRES
    81   39  164 1    
    82   40   41 2    
    83   40   42 1    
    84   42   43 1    
    85   42   44 1    
    86   42  165 1    
    87   43  166 1    
    88   43  167 1    
    89   43  168 1    
    90   44   45 am   BACKBONE|DICT|INTERRES
    91   44  169 1    
    92   45   46 2    
    93   45   47 1    
    94   47   48 1    
    95   47   49 1    
    96   47  170 1    
    97   48  171 1    
    98   48  172 1    
    99   48  173 1    
   100   49   50 am   BACKBONE|DICT|INTERRES
   101   49  174 1    
   102   50   51 2    
   103   50   52 1    
   104   52   53 1    
   105   52   54 1    
   106   52  175 1    
   107   53  176 1    
   108   53  177 1    
   109   53  178 1    
   110   54   55 am   BACKBONE|DICT|INTERRES
   111   54  179 1    
   112   55   56 2    
   113   55   57 1    
   114   57   58 1    
   115   57   59 1    
   116   57  180 1    
   117   58  181 1    
   118   58  182 1    
   119   58  183 1    
   120   59   60 am   BACKBONE|DICT|INTERRES
   121   59  184 1    
   122   60   61 2    
   123   60   62 1    
   124   62   63 1    
   125   62   64 1    
   126   62  185 1    
   127   63  186 1    
   128   63  187 1    
   129   63  188 1    
   130   64   65 am   BACKBONE|DICT|INTERRES
   131   64  189 1    
   132   65   66 2    
   133   67   68 2    
   134   67   69 am   BACKBONE|DICT|INTERRES
   135   69   70 1    
   136   69  190 1    
   137   70   71 1    
   138   70   72 1    
   139   70  191 1    
   140   71  192 1    
   141   71  193 1    
   142   71  194 1    
   143   72   73 2    
   144   72   74 am   BACKBONE|DICT|INTERRES
   145   74   75 1    
   146   74  195 1    
   147   75   76 1    
   148   75   77 1    
   149   75  196 1    
   150   76  197 1    
   151   76  198 1    
   152   76  199 1    
   153   77   78 2    
   154   77   79 am   BACKBONE|DICT|INTERRES
   155   79   80 1    
   156   79  200 1    
   157   80   81 1    
   158   80   82 1    
   159   80  201 1    
   160   81  202 1    
   161   81  203 1    
   162   81  204 1    
   163   82   83 2    
   164   82   84 am   BACKBONE|DICT|INTERRES
   165   84   85 1    
   166   84  205 1    
   167   85   86 1    
   168   85   87 1    
   169   85  206 1    
   170   86  207 1    
   171   86  208 1    
   172   86  209 1    
   173   87   88 2    
   174   87   89 am   BACKBONE|DICT|INTERRES
   175   89   90 1    
   176   89  210 1    
   177   90   91 1    
   178   90   92 1    
   179   90  211 1    
   180   91  212 1    
   181   91  213 1    
   182   91  214 1    
   183   92   93 2    
   184   92   94 am   BACKBONE|DICT|INTERRES
   185   94   95 1    
   186   94  215 1    
   187   95   96 1    
   188   95   97 1    
   189   95  216 1    
   190   96  217 1    
   191   96  218 1    
   192   96  219 1    
   193   97   98 2    
   194   97   99 am   BACKBONE|DICT|INTERRES
   195   99  100 1    
   196   99  220 1    
   197  100  101 1    
   198  100  102 1    
   199  100  221 1    
   200  101  222 1    
   201  101  223 1    
   202  101  224 1    
   203  102  103 2    
   204  102  104 am   BACKBONE|DICT|INTERRES
   205  104  105 1    
   206  104  225 1    
   207  105  106 1    
   208  105  107 1    
   209  105  226 1    
   210  106  227 1    
   211  106  228 1    
   212  106  229 1    
   213  107  108 2    
   214  107  109 am   BACKBONE|DICT|INTERRES
   215  109  110 1    
   216  109  230 1    
   217  110  111 1    
   218  110  112 1    
   219  110  231 1    
   220  111  232 1    
   221  111  233 1    
   222  111  234 1    
   223  112  113 2    
   224  112  114 am   BACKBONE|DICT|INTERRES
   225  114  115 1    
   226  114  235 1    
   227  115  116 1    
   228  115  117 1    
   229  115  236 1    
   230  116  237 1    
   231  116  238 1    
   232  116  239 1    
   233  117  118 2    
   234  117  119 am   BACKBONE|DICT|INTERRES
   235  119  120 1    
   236  119  240 1    
   237  120  121 1    
   238  120  124 1    
   239  120  241 1    
   240  121  122 am   BACKBONE|DICT|INTERRES
   241  121  123 2    
   242  122  242 1    
   243  122  243 1    
   244  124  125 1    
   245  124  244 1    
   246  124  245 1    
   247  125  126 1    
   248  126  246 1    
   249  126  247 1    
@<TRIPOS>SUBSTRUCTURE
     1 UNK         1 GROUP             0       ****    0 ROOT    
