@<TRIPOS>MOLECULE
3R540
247   249    1
SMALL
USER_CHARGES


@<TRIPOS>ATOM
      1 CA          2.1685  -17.2755  -49.0575 C.3       0 UNK        -0.1800 
      2 C           1.5151  -16.2474  -48.1491 C.2       0 UNK         0.5000 
      3 O           2.2035  -15.6017  -47.3605 O.2       0 UNK        -0.5000 
      4 N           0.1893  -16.0833  -48.2573 N.am      1 UNK        -0.5000 
      5 CA         -0.6304  -15.2503  -47.3661 C.3       1 UNK         0.1400 
      6 C6         -2.1480  -15.4826  -47.5819 C.3       23 UNK        -0.0398 
      7 S7         -2.8024  -14.8422  -49.1638 S.3       23 UNK        -0.2404 
      8 C8         -3.3177  -16.3618  -50.0223 C.3       23 UNK        -0.0205 
      9 C9         -2.1441  -17.1836  -50.5368 C.ar      23 UNK        -0.0193 
     10 C10        -1.2002  -16.6046  -51.3903 C.ar      23 UNK        -0.1150 
     11 C11        -0.1513  -17.3646  -51.9121 C.ar      23 UNK        -0.0193 
     12 C12        -0.0635  -18.7217  -51.5903 C.ar      23 UNK        -0.1150 
     13 C13        -1.0012  -19.3165  -50.7404 C.ar      23 UNK        -0.0193 
     14 C14        -2.0306  -18.5372  -50.2058 C.ar      23 UNK        -0.1150 
     15 C15        -0.9333  -20.8103  -50.4515 C.3       23 UNK        -0.0205 
     16 S16         0.6390  -21.3022  -49.6790 S.3       23 UNK        -0.2404 
     17 C17         0.3180  -20.9712  -47.9152 C.3       23 UNK        -0.0398 
     18 CA          0.3330  -22.2753  -47.0785 C.3       11 UNK         0.1400 
     19 N           0.7617  -22.0466  -45.6961 N.am      11 UNK        -0.5000 
     20 C           1.0847  -23.0205  -44.8328 C.2       10 UNK         0.5000 
     21 O           1.0699  -24.2167  -45.1184 O.2       10 UNK        -0.5000 
     22 CA          1.4356  -22.5966  -43.3962 C.3       10 UNK         0.1400 
     23 CB          2.8614  -22.0315  -43.3217 C.3       10 UNK        -0.1800 
     24 N           0.4836  -21.6282  -42.8534 N.am      10 UNK        -0.5000 
     25 C          -0.8161  -21.8848  -42.6468 C.2       9 UNK         0.5000 
     26 O          -1.3346  -22.9846  -42.8420 O.2       9 UNK        -0.5000 
     27 CA         -1.6935  -20.7054  -42.1896 C.3       9 UNK         0.1400 
     28 CB         -1.5621  -20.4773  -40.6766 C.3       9 UNK        -0.1800 
     29 N          -1.3909  -19.4624  -42.8992 N.am      9 UNK        -0.5000 
     30 C          -1.5293  -19.2816  -44.2208 C.2       8 UNK         0.5000 
     31 O          -1.9431  -20.1403  -44.9973 O.2       8 UNK        -0.5000 
     32 CA         -1.0755  -17.9225  -44.7755 C.3       8 UNK         0.1400 
     33 CB         -2.0915  -16.8284  -44.3975 C.3       8 UNK        -0.1800 
     34 N           0.2656  -17.5641  -44.3076 N.am      8 UNK        -0.5000 
     35 C           1.3727  -18.2906  -44.5306 C.2       7 UNK         0.5000 
     36 O           1.3960  -19.2998  -45.2327 O.2       7 UNK        -0.5000 
     37 CA          2.6543  -17.8678  -43.7915 C.3       7 UNK         0.1400 
     38 CB          3.4388  -16.8138  -44.5818 C.3       7 UNK        -0.1800 
     39 N           2.3709  -17.3706  -42.4467 N.am      7 UNK        -0.5000 
     40 C           1.9604  -18.1409  -41.4292 C.2       6 UNK         0.5000 
     41 O           1.8290  -19.3622  -41.5054 O.2       6 UNK        -0.5000 
     42 CA          1.5868  -17.4119  -40.1256 C.3       6 UNK         0.1400 
     43 CB          2.8390  -17.1324  -39.2815 C.3       6 UNK        -0.1800 
     44 N           0.8830  -16.1542  -40.3832 N.am      6 UNK        -0.5000 
     45 C          -0.3406  -16.0726  -40.9258 C.2       5 UNK         0.5000 
     46 O          -1.0342  -17.0562  -41.1829 O.2       5 UNK        -0.5000 
     47 CA         -0.8468  -14.6620  -41.2900 C.3       5 UNK         0.1400 
     48 CB         -1.6131  -14.0431  -40.1121 C.3       5 UNK        -0.1800 
     49 N           0.2354  -13.7583  -41.6968 N.am      5 UNK        -0.5000 
     50 C           0.9707  -13.9127  -42.8059 C.2       4 UNK         0.5000 
     51 O           0.7697  -14.7991  -43.6389 O.2       4 UNK        -0.5000 
     52 CA          2.1814  -12.9822  -42.9578 C.3       4 UNK         0.1400 
     53 CB          3.3039  -13.4425  -42.0013 C.3       4 UNK        -0.1800 
     54 N           2.6466  -13.0098  -44.3438 N.am      4 UNK        -0.5000 
     55 C           3.6048  -12.2310  -44.8628 C.2       3 UNK         0.5000 
     56 O           4.1809  -11.3419  -44.2346 O.2       3 UNK        -0.5000 
     57 CA          3.9852  -12.4761  -46.3331 C.3       3 UNK         0.1400 
     58 CB          4.8967  -13.7053  -46.4703 C.3       3 UNK        -0.1800 
     59 N           2.8142  -12.6290  -47.1953 N.am      3 UNK        -0.5000 
     60 C           2.0747  -11.5984  -47.6339 C.2       2 UNK         0.5000 
     61 O           2.3087  -10.4238  -47.3461 O.2       2 UNK        -0.5000 
     62 CA          0.8851  -11.9118  -48.5638 C.3       2 UNK         0.1400 
     63 CB          1.2723  -11.6752  -50.0315 C.3       2 UNK        -0.1800 
     64 N           0.3836  -13.2762  -48.4270 N.am      2 UNK        -0.5000 
     65 C          -0.2696  -13.7479  -47.3577 C.2       1 UNK         0.5000 
     66 O          -0.5722  -13.0565  -46.3849 O.2       1 UNK        -0.5000 
     67 C          -1.0088  -23.0356  -47.1471 C.2       11 UNK         0.5000 
     68 O          -1.1350  -23.9700  -47.9399 O.2       11 UNK        -0.5000 
     69 N          -1.9573  -22.6717  -46.2696 N.am      12 UNK        -0.5000 
     70 CA         -3.2439  -23.3459  -46.0964 C.3       12 UNK         0.1400 
     71 CB         -4.1070  -22.5905  -45.0750 C.3       12 UNK        -0.1800 
     72 C          -3.0989  -24.8246  -45.6991 C.2       12 UNK         0.5000 
     73 O          -3.7848  -25.6728  -46.2688 O.2       12 UNK        -0.5000 
     74 N          -2.1871  -25.1112  -44.7615 N.am      13 UNK        -0.5000 
     75 CA         -1.8476  -26.4694  -44.3411 C.3       13 UNK         0.1400 
     76 CB         -1.0012  -26.4087  -43.0603 C.3       13 UNK        -0.1800 
     77 C          -1.1220  -27.2707  -45.4394 C.2       13 UNK         0.5000 
     78 O          -1.4037  -28.4578  -45.6081 O.2       13 UNK        -0.5000 
     79 N          -0.1972  -26.6152  -46.1528 N.am      14 UNK        -0.5000 
     80 CA          0.6538  -27.2317  -47.1671 C.3       14 UNK         0.1400 
     81 CB          1.8683  -26.3290  -47.4366 C.3       14 UNK        -0.1800 
     82 C          -0.0732  -27.5546  -48.4835 C.2       14 UNK         0.5000 
     83 O           0.0872  -28.6646  -48.9940 O.2       14 UNK        -0.5000 
     84 N          -0.8081  -26.5801  -49.0372 N.am      15 UNK        -0.5000 
     85 CA         -1.2814  -26.6217  -50.4255 C.3       15 UNK         0.1400 
     86 CB         -0.2301  -25.9334  -51.3180 C.3       15 UNK        -0.1800 
     87 C          -2.6786  -26.0100  -50.6350 C.2       15 UNK         0.5000 
     88 O          -3.0975  -25.8891  -51.7874 O.2       15 UNK        -0.5000 
     89 N          -3.3706  -25.6489  -49.5438 N.am      16 UNK        -0.5000 
     90 CA         -4.6229  -24.8807  -49.4824 C.3       16 UNK         0.1400 
     91 CB         -5.7456  -25.5080  -50.3345 C.3       16 UNK        -0.1800 
     92 C          -4.4163  -23.3905  -49.8213 C.2       16 UNK         0.5000 
     93 O          -3.4735  -23.0242  -50.5239 O.2       16 UNK        -0.5000 
     94 N          -5.3062  -22.5469  -49.2896 N.am      17 UNK        -0.5000 
     95 CA         -5.2866  -21.0977  -49.4557 C.3       17 UNK         0.1400 
     96 CB         -4.7175  -20.4520  -48.1811 C.3       17 UNK        -0.1800 
     97 C          -6.7264  -20.6106  -49.7079 C.2       17 UNK         0.5000 
     98 O          -7.6506  -21.1857  -49.1314 O.2       17 UNK        -0.5000 
     99 N          -6.9534  -19.5601  -50.5117 N.am      18 UNK        -0.5000 
    100 CA        -5.9822  -18.8615  -51.3625 C.3       18 UNK         0.1400 
    101 CB        -6.5664  -17.5027  -51.7739 C.3       18 UNK        -0.1800 
    102 C         -5.5907  -19.6745  -52.6126 C.2       18 UNK         0.5000 
    103 O         -4.5048  -19.4609  -53.1481 O.2       18 UNK        -0.5000 
    104 N         -6.4695  -20.6030  -53.0246 N.am      19 UNK        -0.5000 
    105 CA        -6.3235  -21.5225  -54.1593 C.3       19 UNK         0.1400 
    106 CB        -5.2074  -22.5523  -53.8822 C.3       19 UNK        -0.1800 
    107 C         -6.1590  -20.7736  -55.4988 C.2       19 UNK         0.5000 
    108 O         -5.2184  -21.0387  -56.2473 O.2       19 UNK        -0.5000 
    109 N         -7.0903  -19.8399  -55.7492 N.am      20 UNK        -0.5000 
    110 CA        -7.1225  -18.8788  -56.8575 C.3       20 UNK         0.1400 
    111 CB        -7.1195  -19.5760  -58.2354 C.3       20 UNK        -0.1800 
    112 C         -6.0157  -17.8189  -56.6994 C.2       20 UNK         0.5000 
    113 O         -5.0639  -17.7789  -57.4811 O.2       20 UNK        -0.5000 
    114 N         -6.1690  -16.9918  -55.6548 N.am      21 UNK        -0.5000 
    115 CA        -5.3384  -15.8514  -55.2368 C.3       21 UNK         0.1400 
    116 CB        -5.2265  -14.7911  -56.3492 C.3       21 UNK        -0.1800 
    117 C         -3.9503  -16.2225  -54.6799 C.2       21 UNK         0.5000 
    118 O         -3.5383  -15.6441  -53.6750 O.2       21 UNK        -0.5000 
    119 N         -3.2675  -17.1729  -55.3188 N.am      22 UNK        -0.5000 
    120 CA        -1.9884  -17.7426  -54.8963 C.3       22 UNK         0.1400 
    121 C         -1.8300  -19.1289  -55.5676 C.2       22 UNK         0.5000 
    122 N         -2.4582  -20.1528  -55.0120 N.am      22 UNK        -0.7600 
    123 O         -1.1755  -19.2792  -56.5966 O.2       22 UNK        -0.5000 
    124 C124       -0.7998  -16.7649  -55.1205 C.3       23 UNK        -0.0398 
    125 S125        0.8095  -17.3919  -54.5212 S.3       23 UNK        -0.2404 
    126 C126        0.8800  -16.7238  -52.8291 C.3       23 UNK        -0.0205 
    127 H127        2.5605  -16.7956  -49.9527 H         1 UNK         0.0600 
    128 H128        1.4602  -18.0469  -49.3543 H         1 UNK         0.0600 
    129 H129        2.9929  -17.7645  -48.5399 H         1 UNK         0.0600 
    130 H130       -0.3185  -16.6002  -48.9624 H         1 UNK         0.3000 
    131 H131       -0.3870  -15.5931  -46.3613 H         1 UNK         0.0600 
    132 H132       -2.3735  -16.5462  -47.4994 H         1 UNK         0.0800 
    133 H133       -2.7117  -15.0042  -46.7794 H         1 UNK         0.0800 
    134 H134       -3.9560  -16.9486  -49.3605 H         1 UNK         0.0800 
    135 H135       -3.9358  -16.0810  -50.8759 H         1 UNK         0.0800 
    136 H136       -1.2955  -15.5619  -51.6600 H         1 UNK         0.1150 
    137 H137        0.7332  -19.3196  -52.0104 H         1 UNK         0.1150 
    138 H138       -2.7626  -18.9945  -49.5590 H         1 UNK         0.1150 
    139 H139       -1.7634  -21.1297  -49.8204 H         1 UNK         0.0800 
    140 H140       -1.0450  -21.3502  -51.3928 H         1 UNK         0.0800 
    141 H141       -0.6055  -20.4059  -47.7758 H         1 UNK         0.0800 
    142 H142        1.1208  -20.3095  -47.5905 H         1 UNK         0.0800 
    143 H143        1.0890  -22.9357  -47.5090 H         1 UNK         0.0600 
    144 H144        0.8303  -21.0769  -45.3961 H         1 UNK         0.3000 
    145 H145        1.3941  -23.4889  -42.7679 H         1 UNK         0.0600 
    146 H146        3.1321  -21.7770  -42.2969 H         1 UNK         0.0600 
    147 H147        3.5882  -22.7620  -43.6789 H         1 UNK         0.0600 
    148 H148        2.9729  -21.1348  -43.9304 H         1 UNK         0.0600 
    149 H149        0.8478  -20.7117  -42.6135 H         1 UNK         0.3000 
    150 H150       -2.7323  -20.9630  -42.4046 H         1 UNK         0.0600 
    151 H151       -1.8124  -21.3825  -40.1221 H         1 UNK         0.0600 
    152 H152       -2.2359  -19.6902  -40.3374 H         1 UNK         0.0600 
    153 H153       -0.5480  -20.1903  -40.3979 H         1 UNK         0.0600 
    154 H154       -1.0729  -18.6813  -42.3334 H         1 UNK         0.3000 
    155 H155       -1.0300  -17.9964  -45.8638 H         1 UNK         0.0600 
    156 H156       -3.0080  -16.9429  -44.9769 H         1 UNK         0.0600 
    157 H157       -1.7094  -15.8252  -44.5784 H         1 UNK         0.0600 
    158 H158       -2.3782  -16.8753  -43.3481 H         1 UNK         0.0600 
    159 H159        0.3556  -16.6987  -43.7854 H         1 UNK         0.3000 
    160 H160        3.2897  -18.7504  -43.6974 H         1 UNK         0.0600 
    161 H161        2.8593  -15.9036  -44.7259 H         1 UNK         0.0600 
    162 H162        3.7044  -17.1895  -45.5707 H         1 UNK         0.0600 
    163 H163        4.3659  -16.5454  -44.0756 H         1 UNK         0.0600 
    164 H164        2.4093  -16.3722  -42.3152 H         1 UNK         0.3000 
    165 H165        0.9249  -18.0657  -39.5536 H         1 UNK         0.0600 
    166 H166        2.5765  -16.6780  -38.3260 H         1 UNK         0.0600 
    167 H167        3.3762  -18.0566  -39.0639 H         1 UNK         0.0600 
    168 H168        3.5314  -16.4626  -39.7931 H         1 UNK         0.0600 
    169 H169        1.3806  -15.3003  -40.1812 H         1 UNK         0.3000 
    170 H170       -1.5369  -14.7641  -42.1299 H         1 UNK         0.0600 
    171 H171       -2.4388  -14.6859  -39.8037 H         1 UNK         0.0600 
    172 H172       -0.9695  -13.8958  -39.2440 H         1 UNK         0.0600 
    173 H173       -2.0391  -13.0769  -40.3830 H         1 UNK         0.0600 
    174 H174        0.4588  -13.0081  -41.0584 H         1 UNK         0.3000 
    175 H175        1.8713  -11.9654  -42.7094 H         1 UNK         0.0600 
    176 H176        3.6825  -14.4286  -42.2724 H         1 UNK         0.0600 
    177 H177        4.1471  -12.7526  -42.0058 H         1 UNK         0.0600 
    178 H178        2.9536  -13.4964  -40.9700 H         1 UNK         0.0600 
    179 H179        2.1818  -13.6961  -44.9259 H         1 UNK         0.3000 
    180 H180        4.5559  -11.6096  -46.6751 H         1 UNK         0.0600 
    181 H181        4.3946  -14.6198  -46.1579 H         1 UNK         0.0600 
    182 H182        5.7918  -13.5976  -45.8564 H         1 UNK         0.0600 
    183 H183        5.2231  -13.8404  -47.5015 H         1 UNK         0.0600 
    184 H184        2.5462  -13.5774  -47.4376 H         1 UNK         0.3000 
    185 H185        0.0765  -11.2242  -48.3078 H         1 UNK         0.0600 
    186 H186        1.6213  -10.6532  -50.1835 H         1 UNK         0.0600 
    187 H187        2.0712  -12.3457  -50.3500 H         1 UNK         0.0600 
    188 H188        0.4202  -11.8280  -50.6942 H         1 UNK         0.0600 
    189 H189        0.5896  -13.9177  -49.1781 H         1 UNK         0.3000 
    190 H190       -1.7933  -21.8608  -45.6768 H         1 UNK         0.3000 
    191 H191       -3.7563  -23.3075  -47.0551 H         1 UNK         0.0600 
    192 H192       -3.6624  -22.6042  -44.0806 H         1 UNK         0.0600 
    193 H193       -5.0980  -23.0388  -44.9963 H         1 UNK         0.0600 
    194 H194       -4.2437  -21.5486  -45.3615 H         1 UNK         0.0600 
    195 H195       -1.6940  -24.3507  -44.3039 H         1 UNK         0.3000 
    196 H196       -2.7767  -26.9931  -44.1064 H         1 UNK         0.0600 
    197 H197       -0.7497  -27.4104  -42.7097 H         1 UNK         0.0600 
    198 H198       -1.5402  -25.9074  -42.2561 H         1 UNK         0.0600 
    199 H199       -0.0660  -25.8709  -43.2194 H         1 UNK         0.0600 
    200 H200        0.0160  -25.6527  -45.9075 H         1 UNK         0.3000 
    201 H201        1.0301  -28.1734  -46.7612 H         1 UNK         0.0600 
    202 H202        2.4597  -26.1843  -46.5324 H         1 UNK         0.0600 
    203 H203        1.5666  -25.3463  -47.8003 H         1 UNK         0.0600 
    204 H204        2.5258  -26.7696  -48.1871 H         1 UNK         0.0600 
    205 H205       -0.8841  -25.6802  -48.5643 H         1 UNK         0.3000 
    206 H206       -1.3760  -27.6588  -50.7532 H         1 UNK         0.0600 
    207 H207        0.7437  -26.4150  -51.2275 H         1 UNK         0.0600 
    208 H208       -0.5116  -25.9751  -52.3708 H         1 UNK         0.0600 
    209 H209       -0.1109  -24.8826  -51.0499 H         1 UNK         0.0600 
    210 H210       -2.9256  -25.7975  -48.6484 H         1 UNK         0.3000 
    211 H211       -4.9479  -24.9329  -48.4441 H         1 UNK         0.0600 
    212 H212       -5.8385  -26.5770  -50.1430 H         1 UNK         0.0600 
    213 H213       -5.5796  -25.3685  -51.4029 H         1 UNK         0.0600 
    214 H214       -6.7083  -25.0522  -50.1010 H         1 UNK         0.0600 
    215 H215       -6.1088  -22.9024  -48.7863 H         1 UNK         0.3000 
    216 H216       -4.6423  -20.8409  -50.2948 H         1 UNK         0.0600 
    217 H217       -4.7026  -19.3649  -48.2626 H         1 UNK         0.0600 
    218 H218       -3.6960  -20.7818  -47.9897 H         1 UNK         0.0600 
    219 H219       -5.3195  -20.7010  -47.3069 H         1 UNK         0.0600 
    220 H220       -7.9072  -19.2417  -50.6009 H         1 UNK         0.3000 
    221 H221       -5.0752  -18.6674  -50.7891 H         1 UNK         0.0600 
    222 H222       -7.4770  -17.6137  -52.3637 H         1 UNK         0.0600 
    223 H223       -6.8029  -16.8947  -50.9005 H         1 UNK         0.0600 
    224 H224       -5.8515  -16.9387  -52.3729 H         1 UNK         0.0600 
    225 H225       -7.3326  -20.6881  -52.5063 H         1 UNK         0.3000 
    226 H226       -7.2610  -22.0754  -54.2345 H         1 UNK         0.0600 
    227 H227       -5.3969  -23.0984  -52.9581 H         1 UNK         0.0600 
    228 H228       -5.1447  -23.2874  -54.6852 H         1 UNK         0.0600 
    229 H229       -4.2282  -22.0828  -53.7919 H         1 UNK         0.0600 
    230 H230       -7.8156  -19.7190  -55.0566 H         1 UNK         0.3000 
    231 H231       -8.0740  -18.3507  -56.7757 H         1 UNK         0.0600 
    232 H232       -7.2778  -18.8495  -59.0331 H         1 UNK         0.0600 
    233 H233       -7.9180  -20.3145  -58.3054 H         1 UNK         0.0600 
    234 H234       -6.1763  -20.0805  -58.4451 H         1 UNK         0.0600 
    235 H235       -6.9723  -17.1524  -55.0646 H         1 UNK         0.3000 
    236 H236       -5.8830  -15.3890  -54.4120 H         1 UNK         0.0600 
    237 H237       -4.6678  -15.1581  -57.2105 H         1 UNK         0.0600 
    238 H238       -6.2109  -14.4767  -56.6957 H         1 UNK         0.0600 
    239 H239       -4.7107  -13.9017  -55.9852 H         1 UNK         0.0600 
    240 H240       -3.6949  -17.5999  -56.1365 H         1 UNK         0.3000 
    241 H241       -2.0639  -17.9283  -53.8239 H         1 UNK         0.0600 
    242 H242       -3.1048  -19.9908  -54.2422 H         1 UNK         0.3800 
    243 H243       -2.4189  -21.0576  -55.4512 H         1 UNK         0.3800 
    244 H244       -0.7006  -16.5395  -56.1832 H         1 UNK         0.0800 
    245 H245       -0.9998  -15.8107  -54.6324 H         1 UNK         0.0800 
    246 H246        1.8751  -16.9082  -52.4225 H         1 UNK         0.0800 
    247 H247        0.7590  -15.6399  -52.8608 H         1 UNK         0.0800 
@<TRIPOS>BOND
     1    1    2 1    
     2    1  127 1    
     3    1  128 1    
     4    1  129 1    
     5    2    3 2    
     6    2    4 am   BACKBONE|DICT|INTERRES
     7    4    5 1    
     8    4  130 1    
     9    5    6 1    
    10    5   65 1    
    11    5  131 1    
    12    6    7 1    
    13    6  132 1    
    14    6  133 1    
    15    7    8 1    
    16    8    9 1    
    17    8  134 1    
    18    8  135 1    
    19    9   10 ar   
    20    9   14 ar   
    21   10   11 ar   
    22   10  136 1    
    23   11   12 ar   
    24   11  126 1    
    25   12   13 ar   
    26   12  137 1    
    27   13   14 ar   
    28   13   15 1    
    29   14  138 1    
    30   15   16 1    
    31   15  139 1    
    32   15  140 1    
    33   16   17 1    
    34   17   18 1    
    35   17  141 1    
    36   17  142 1    
    37   18   19 1    
    38   18   67 1    
    39   18  143 1    
    40   19   20 am   BACKBONE|DICT|INTERRES
    41   19  144 1    
    42   20   21 2    
    43   20   22 1    
    44   22   23 1    
    45   22   24 1    
    46   22  145 1    
    47   23  146 1    
    48   23  147 1    
    49   23  148 1    
    50   24   25 am   BACKBONE|DICT|INTERRES
    51   24  149 1    
    52   25   26 2    
    53   25   27 1    
    54   27   28 1    
    55   27   29 1    
    56   27  150 1    
    57   28  151 1    
    58   28  152 1    
    59   28  153 1    
    60   29   30 am   BACKBONE|DICT|INTERRES
    61   29  154 1    
    62   30   31 2    
    63   30   32 1    
    64   32   33 1    
    65   32   34 1    
    66   32  155 1    
    67   33  156 1    
    68   33  157 1    
    69   33  158 1    
    70   34   35 am   BACKBONE|DICT|INTERRES
    71   34  159 1    
    72   35   36 2    
    73   35   37 1    
    74   37   38 1    
    75   37   39 1    
    76   37  160 1    
    77   38  161 1    
    78   38  162 1    
    79   38  163 1    
    80   39   40 am   BACKBONE|DICT|INTERRES
    81   39  164 1    
    82   40   41 2    
    83   40   42 1    
    84   42   43 1    
    85   42   44 1    
    86   42  165 1    
    87   43  166 1    
    88   43  167 1    
    89   43  168 1    
    90   44   45 am   BACKBONE|DICT|INTERRES
    91   44  169 1    
    92   45   46 2    
    93   45   47 1    
    94   47   48 1    
    95   47   49 1    
    96   47  170 1    
    97   48  171 1    
    98   48  172 1    
    99   48  173 1    
   100   49   50 am   BACKBONE|DICT|INTERRES
   101   49  174 1    
   102   50   51 2    
   103   50   52 1    
   104   52   53 1    
   105   52   54 1    
   106   52  175 1    
   107   53  176 1    
   108   53  177 1    
   109   53  178 1    
   110   54   55 am   BACKBONE|DICT|INTERRES
   111   54  179 1    
   112   55   56 2    
   113   55   57 1    
   114   57   58 1    
   115   57   59 1    
   116   57  180 1    
   117   58  181 1    
   118   58  182 1    
   119   58  183 1    
   120   59   60 am   BACKBONE|DICT|INTERRES
   121   59  184 1    
   122   60   61 2    
   123   60   62 1    
   124   62   63 1    
   125   62   64 1    
   126   62  185 1    
   127   63  186 1    
   128   63  187 1    
   129   63  188 1    
   130   64   65 am   BACKBONE|DICT|INTERRES
   131   64  189 1    
   132   65   66 2    
   133   67   68 2    
   134   67   69 am   BACKBONE|DICT|INTERRES
   135   69   70 1    
   136   69  190 1    
   137   70   71 1    
   138   70   72 1    
   139   70  191 1    
   140   71  192 1    
   141   71  193 1    
   142   71  194 1    
   143   72   73 2    
   144   72   74 am   BACKBONE|DICT|INTERRES
   145   74   75 1    
   146   74  195 1    
   147   75   76 1    
   148   75   77 1    
   149   75  196 1    
   150   76  197 1    
   151   76  198 1    
   152   76  199 1    
   153   77   78 2    
   154   77   79 am   BACKBONE|DICT|INTERRES
   155   79   80 1    
   156   79  200 1    
   157   80   81 1    
   158   80   82 1    
   159   80  201 1    
   160   81  202 1    
   161   81  203 1    
   162   81  204 1    
   163   82   83 2    
   164   82   84 am   BACKBONE|DICT|INTERRES
   165   84   85 1    
   166   84  205 1    
   167   85   86 1    
   168   85   87 1    
   169   85  206 1    
   170   86  207 1    
   171   86  208 1    
   172   86  209 1    
   173   87   88 2    
   174   87   89 am   BACKBONE|DICT|INTERRES
   175   89   90 1    
   176   89  210 1    
   177   90   91 1    
   178   90   92 1    
   179   90  211 1    
   180   91  212 1    
   181   91  213 1    
   182   91  214 1    
   183   92   93 2    
   184   92   94 am   BACKBONE|DICT|INTERRES
   185   94   95 1    
   186   94  215 1    
   187   95   96 1    
   188   95   97 1    
   189   95  216 1    
   190   96  217 1    
   191   96  218 1    
   192   96  219 1    
   193   97   98 2    
   194   97   99 am   BACKBONE|DICT|INTERRES
   195   99  100 1    
   196   99  220 1    
   197  100  101 1    
   198  100  102 1    
   199  100  221 1    
   200  101  222 1    
   201  101  223 1    
   202  101  224 1    
   203  102  103 2    
   204  102  104 am   BACKBONE|DICT|INTERRES
   205  104  105 1    
   206  104  225 1    
   207  105  106 1    
   208  105  107 1    
   209  105  226 1    
   210  106  227 1    
   211  106  228 1    
   212  106  229 1    
   213  107  108 2    
   214  107  109 am   BACKBONE|DICT|INTERRES
   215  109  110 1    
   216  109  230 1    
   217  110  111 1    
   218  110  112 1    
   219  110  231 1    
   220  111  232 1    
   221  111  233 1    
   222  111  234 1    
   223  112  113 2    
   224  112  114 am   BACKBONE|DICT|INTERRES
   225  114  115 1    
   226  114  235 1    
   227  115  116 1    
   228  115  117 1    
   229  115  236 1    
   230  116  237 1    
   231  116  238 1    
   232  116  239 1    
   233  117  118 2    
   234  117  119 am   BACKBONE|DICT|INTERRES
   235  119  120 1    
   236  119  240 1    
   237  120  121 1    
   238  120  124 1    
   239  120  241 1    
   240  121  122 am   BACKBONE|DICT|INTERRES
   241  121  123 2    
   242  122  242 1    
   243  122  243 1    
   244  124  125 1    
   245  124  244 1    
   246  124  245 1    
   247  125  126 1    
   248  126  246 1    
   249  126  247 1    
@<TRIPOS>SUBSTRUCTURE
     1 UNK         1 GROUP             0       ****    0 ROOT    
