@<TRIPOS>MOLECULE
3R540
247   249    1
SMALL
USER_CHARGES


@<TRIPOS>ATOM
      1 CA         -5.4818  -15.6828  -49.5224 C.3       0 UNK        -0.1800 
      2 C          -4.3096  -15.4555  -48.5778 C.2       0 UNK         0.5000 
      3 O          -3.8399  -16.4146  -47.9721 O.2       0 UNK        -0.5000 
      4 N          -3.8549  -14.1955  -48.4771 N.am      1 UNK        -0.5000 
      5 CA         -2.7684  -13.6164  -47.6623 C.3       1 UNK         0.1400 
      6 C6         -1.6168  -12.9708  -48.4939 C.3       23 UNK        -0.0398 
      7 S7         -0.3174  -13.9807  -49.3113 S.3       23 UNK        -0.2404 
      8 C8         -1.0228  -15.6389  -49.5059 C.3       23 UNK        -0.0205 
      9 C9         -0.0178  -16.6096  -50.1022 C.ar      23 UNK        -0.0193 
     10 C10         0.0758  -16.7734  -51.4869 C.ar      23 UNK        -0.1150 
     11 C11         0.9589  -17.7107  -52.0318 C.ar      23 UNK        -0.0193 
     12 C12         1.7582  -18.4795  -51.1808 C.ar      23 UNK        -0.1150 
     13 C13         1.6526  -18.3439  -49.7949 C.ar      23 UNK        -0.0193 
     14 C14         0.7802  -17.3900  -49.2624 C.ar      23 UNK        -0.1150 
     15 C15         2.4283  -19.2744  -48.8716 C.3       23 UNK        -0.0205 
     16 S16         1.8015  -20.9888  -48.9346 S.3       23 UNK        -0.2404 
     17 C17         0.0039  -20.7392  -48.7392 C.3       23 UNK        -0.0398 
     18 CA         -0.6790  -21.7676  -47.8158 C.3       11 UNK         0.1400 
     19 N          -0.1303  -21.7514  -46.4569 N.am      11 UNK        -0.5000 
     20 C          -0.3843  -22.6813  -45.5260 C.2       10 UNK         0.5000 
     21 O          -1.0849  -23.6729  -45.7249 O.2       10 UNK        -0.5000 
     22 CA          0.1807  -22.4183  -44.1190 C.3       10 UNK         0.1400 
     23 CB          1.6307  -22.9118  -44.0115 C.3       10 UNK        -0.1800 
     24 N           0.0980  -21.0012  -43.7503 N.am      10 UNK        -0.5000 
     25 C          -1.0638  -20.3616  -43.5399 C.2       9 UNK         0.5000 
     26 O          -2.1566  -20.9219  -43.6099 O.2       9 UNK        -0.5000 
     27 CA         -1.0313  -18.8512  -43.2354 C.3       9 UNK         0.1400 
     28 CB         -1.3066  -18.5870  -41.7480 C.3       9 UNK        -0.1800 
     29 N           0.2163  -18.1913  -43.6158 N.am      9 UNK        -0.5000 
     30 C           0.6273  -17.9855  -44.8749 C.2       8 UNK         0.5000 
     31 O          -0.0170  -18.3228  -45.8681 O.2       8 UNK        -0.5000 
     32 CA          2.0264  -17.3567  -45.0314 C.3       8 UNK         0.1400 
     33 CB          1.9332  -15.8254  -45.0833 C.3       8 UNK        -0.1800 
     34 N           2.9503  -17.7578  -43.9634 N.am      8 UNK        -0.5000 
     35 C           3.3725  -19.0162  -43.7691 C.2       7 UNK         0.5000 
     36 O           3.0041  -19.9563  -44.4738 O.2       7 UNK        -0.5000 
     37 CA          4.3102  -19.2797  -42.5707 C.3       7 UNK         0.1400 
     38 CB          5.0777  -20.6122  -42.6982 C.3       7 UNK        -0.1800 
     39 N           5.2360  -18.1831  -42.2723 N.am      7 UNK        -0.5000 
     40 C           6.1750  -17.6524  -43.0679 C.2       6 UNK         0.5000 
     41 O           6.3663  -18.0103  -44.2314 O.2       6 UNK        -0.5000 
     42 CA          7.0454  -16.5333  -42.4467 C.3       6 UNK         0.1400 
     43 CB          7.9249  -15.8185  -43.4889 C.3       6 UNK        -0.1800 
     44 N           6.2527  -15.5251  -41.7380 N.am      6 UNK        -0.5000 
     45 C           5.7105  -15.6552  -40.5202 C.2       5 UNK         0.5000 
     46 O           5.8465  -16.6620  -39.8227 O.2       5 UNK        -0.5000 
     47 CA          4.8163  -14.5045  -40.0112 C.3       5 UNK         0.1400 
     48 CB          4.9100  -13.2134  -40.8563 C.3       5 UNK        -0.1800 
     49 N           3.4138  -14.9185  -39.8856 N.am      5 UNK        -0.5000 
     50 C           2.6438  -15.4466  -40.8485 C.2       4 UNK         0.5000 
     51 O           3.0478  -15.7186  -41.9801 O.2       4 UNK        -0.5000 
     52 CA          1.1595  -15.7115  -40.5290 C.3       4 UNK         0.1400 
     53 CB          0.7666  -15.5225  -39.0466 C.3       4 UNK        -0.1800 
     54 N           0.3087  -14.9165  -41.4204 N.am      4 UNK        -0.5000 
     55 C           0.2433  -13.5775  -41.4913 C.2       3 UNK         0.5000 
     56 O           0.8087  -12.8195  -40.7020 O.2       3 UNK        -0.5000 
     57 CA         -0.5627  -12.9673  -42.6553 C.3       3 UNK         0.1400 
     58 CB          0.3640  -12.1728  -43.5908 C.3       3 UNK        -0.1800 
     59 N          -1.2861  -13.9491  -43.4643 N.am      3 UNK        -0.5000 
     60 C          -2.4583  -14.5131  -43.1568 C.2       2 UNK         0.5000 
     61 O          -3.0410  -14.3245  -42.0883 O.2       2 UNK        -0.5000 
     62 CA         -3.0812  -15.4150  -44.2472 C.3       2 UNK         0.1400 
     63 CB         -4.4193  -16.0348  -43.8078 C.3       2 UNK        -0.1800 
     64 N          -3.2843  -14.7042  -45.5137 N.am      2 UNK        -0.5000 
     65 C          -2.3220  -14.3759  -46.3884 C.2       1 UNK         0.5000 
     66 O          -1.1315  -14.6245  -46.1939 O.2       1 UNK        -0.5000 
     67 C          -2.2015  -21.5205  -47.8213 C.2       11 UNK         0.5000 
     68 O          -2.8948  -22.0463  -48.6928 O.2       11 UNK        -0.5000 
     69 N          -2.6932  -20.7260  -46.8600 N.am      12 UNK        -0.5000 
     70 CA         -4.1161  -20.4615  -46.6563 C.3       12 UNK         0.1400 
     71 CB         -4.2942  -19.2196  -45.7715 C.3       12 UNK        -0.1800 
     72 C          -4.8322  -21.6821  -46.0555 C.2       12 UNK         0.5000 
     73 O          -5.9015  -22.0510  -46.5386 O.2       12 UNK        -0.5000 
     74 N          -4.2075  -22.3188  -45.0537 N.am      13 UNK        -0.5000 
     75 CA         -4.6797  -23.5489  -44.4122 C.3       13 UNK         0.1400 
     76 CB         -3.7941  -23.8626  -43.1970 C.3       13 UNK        -0.1800 
     77 C          -4.7271  -24.7491  -45.3769 C.2       13 UNK         0.5000 
     78 O          -5.6709  -25.5380  -45.3224 O.2       13 UNK        -0.5000 
     79 N          -3.7326  -24.8385  -46.2709 N.am      14 UNK        -0.5000 
     80 CA         -3.6697  -25.8123  -47.3636 C.3       14 UNK         0.1400 
     81 CB         -2.2262  -25.8650  -47.8897 C.3       14 UNK        -0.1800 
     82 C          -4.6425  -25.5047  -48.5222 C.2       14 UNK         0.5000 
     83 O          -4.8249  -26.3574  -49.3910 O.2       14 UNK        -0.5000 
     84 N          -5.2117  -24.2893  -48.5356 N.am      15 UNK        -0.5000 
     85 CA         -6.0898  -23.6994  -49.5534 C.3       15 UNK         0.1400 
     86 CB         -7.3816  -24.5213  -49.7330 C.3       15 UNK        -0.1800 
     87 C          -5.3922  -23.4060  -50.8976 C.2       15 UNK         0.5000 
     88 O          -6.0629  -23.0149  -51.8528 O.2       15 UNK        -0.5000 
     89 N          -4.0603  -23.5380  -50.9476 N.am      16 UNK        -0.5000 
     90 CA         -3.2276  -23.2515  -52.1133 C.3       16 UNK         0.1400 
     91 CB         -1.7973  -23.7483  -51.8568 C.3       16 UNK        -0.1800 
     92 C          -3.2245  -21.7580  -52.4703 C.2       16 UNK         0.5000 
     93 O          -3.2653  -21.4201  -53.6528 O.2       16 UNK        -0.5000 
     94 N          -3.2156  -20.8961  -51.4441 N.am      17 UNK        -0.5000 
     95 CA         -3.3161  -19.4446  -51.5995 C.3       17 UNK         0.1400 
     96 CB         -2.9183  -18.7558  -50.2889 C.3       17 UNK        -0.1800 
     97 C          -4.7201  -18.9935  -52.0383 C.2       17 UNK         0.5000 
     98 O          -4.8383  -18.0389  -52.8054 O.2       17 UNK        -0.5000 
     99 N          -5.7545  -19.6970  -51.5564 N.am      18 UNK        -0.5000 
    100 CA        -7.1571  -19.4419  -51.8861 C.3       18 UNK         0.1400 
    101 CB        -8.0594  -20.1578  -50.8687 C.3       18 UNK        -0.1800 
    102 C         -7.4994  -19.8676  -53.3250 C.2       18 UNK         0.5000 
    103 O         -8.1853  -19.1298  -54.0331 O.2       18 UNK        -0.5000 
    104 N         -6.9925  -21.0374  -53.7371 N.am      19 UNK        -0.5000 
    105 CA        -7.1435  -21.5850  -55.0862 C.3       19 UNK         0.1400 
    106 CB        -6.8398  -23.0913  -55.0377 C.3       19 UNK        -0.1800 
    107 C         -6.2405  -20.9017  -56.1322 C.2       19 UNK         0.5000 
    108 O         -6.4808  -21.0692  -57.3283 O.2       19 UNK        -0.5000 
    109 N         -5.2042  -20.1867  -55.6665 N.am      20 UNK        -0.5000 
    110 CA        -4.0961  -19.6107  -56.4392 C.3       20 UNK         0.1400 
    111 CB        -4.5908  -18.5206  -57.4118 C.3       20 UNK        -0.1800 
    112 C         -3.2314  -20.6946  -57.1222 C.2       20 UNK         0.5000 
    113 O         -2.6558  -20.4623  -58.1864 O.2       20 UNK        -0.5000 
    114 N         -3.1477  -21.8626  -56.4734 N.am      21 UNK        -0.5000 
    115 CA        -2.3401  -23.0151  -56.8706 C.3       21 UNK         0.1400 
    116 CB        -3.0344  -24.2890  -56.3633 C.3       21 UNK        -0.1800 
    117 C         -0.9000  -22.9284  -56.3274 C.2       21 UNK         0.5000 
    118 O         -0.0548  -23.7334  -56.7193 O.2       21 UNK        -0.5000 
    119 N         -0.6502  -21.9630  -55.4340 N.am      22 UNK        -0.5000 
    120 CA         0.6438  -21.6635  -54.8055 C.3       22 UNK         0.1400 
    121 C          1.7769  -21.1809  -55.7628 C.2       22 UNK         0.5000 
    122 N          1.4901  -20.8015  -57.0023 N.am      22 UNK        -0.7600 
    123 O          2.9403  -21.1578  -55.3711 O.2       22 UNK        -0.5000 
    124 C124        0.4560  -20.6945  -53.6111 C.3       23 UNK        -0.0398 
    125 S125       -0.2662  -19.0811  -54.0919 S.3       23 UNK        -0.2404 
    126 C126        1.0181  -17.9157  -53.5372 C.3       23 UNK        -0.0205 
    127 H127       -5.8591  -14.7477  -49.9369 H         1 UNK         0.0600 
    128 H128       -6.2988  -16.1743  -48.9944 H         1 UNK         0.0600 
    129 H129       -5.1780  -16.3231  -50.3502 H         1 UNK         0.0600 
    130 H130       -4.3407  -13.5046  -49.0315 H         1 UNK         0.3000 
    131 H131       -3.2721  -12.7504  -47.2288 H         1 UNK         0.0600 
    132 H132       -2.0590  -12.3486  -49.2728 H         1 UNK         0.0800 
    133 H133       -1.0843  -12.2661  -47.8529 H         1 UNK         0.0800 
    134 H134       -1.9025  -15.5783  -50.1461 H         1 UNK         0.0800 
    135 H135       -1.3480  -16.0198  -48.5388 H         1 UNK         0.0800 
    136 H136       -0.5544  -16.1866  -52.1404 H         1 UNK         0.1150 
    137 H137        2.4357  -19.2150  -51.5897 H         1 UNK         0.1150 
    138 H138        0.6877  -17.2812  -48.1910 H         1 UNK         0.1150 
    139 H139        2.3755  -18.9269  -47.8413 H         1 UNK         0.0800 
    140 H140        3.4837  -19.2667  -49.1468 H         1 UNK         0.0800 
    141 H141       -0.4293  -20.7748  -49.7406 H         1 UNK         0.0800 
    142 H142       -0.1856  -19.7378  -48.3522 H         1 UNK         0.0800 
    143 H143       -0.5106  -22.7625  -48.2334 H         1 UNK         0.0600 
    144 H144        0.4491  -20.9602  -46.2131 H         1 UNK         0.3000 
    145 H145       -0.4200  -22.9868  -43.4057 H         1 UNK         0.0600 
    146 H146        1.6836  -23.9900  -44.1669 H         1 UNK         0.0600 
    147 H147        2.0493  -22.7037  -43.0268 H         1 UNK         0.0600 
    148 H148        2.2745  -22.4461  -44.7579 H         1 UNK         0.0600 
    149 H149        0.9670  -20.4836  -43.7354 H         1 UNK         0.3000 
    150 H150       -1.8403  -18.4015  -43.8127 H         1 UNK         0.0600 
    151 H151       -0.5098  -18.9781  -41.1144 H         1 UNK         0.0600 
    152 H152       -2.2375  -19.0608  -41.4329 H         1 UNK         0.0600 
    153 H153       -1.4076  -17.5204  -41.5470 H         1 UNK         0.0600 
    154 H154        0.8421  -17.9295  -42.8699 H         1 UNK         0.3000 
    155 H155        2.4479  -17.6983  -45.9762 H         1 UNK         0.0600 
    156 H156        2.9206  -15.3708  -45.1648 H         1 UNK         0.0600 
    157 H157        1.4494  -15.4175  -44.1957 H         1 UNK         0.0600 
    158 H158        1.3568  -15.5035  -45.9510 H         1 UNK         0.0600 
    159 H159        3.2464  -17.0275  -43.3193 H         1 UNK         0.3000 
    160 H160        3.6579  -19.3629  -41.7005 H         1 UNK         0.0600 
    161 H161        5.7146  -20.6277  -43.5831 H         1 UNK         0.0600 
    162 H162        4.3914  -21.4564  -42.7750 H         1 UNK         0.0600 
    163 H163        5.7087  -20.7891  -41.8272 H         1 UNK         0.0600 
    164 H164        5.1755  -17.7986  -41.3352 H         1 UNK         0.3000 
    165 H165        7.7121  -17.0159  -41.7292 H         1 UNK         0.0600 
    166 H166        8.5873  -16.5227  -43.9941 H         1 UNK         0.0600 
    167 H167        7.3223  -15.3259  -44.2530 H         1 UNK         0.0600 
    168 H168        8.5565  -15.0633  -43.0207 H         1 UNK         0.0600 
    169 H169        6.0313  -14.6908  -42.2617 H         1 UNK         0.3000 
    170 H170        5.1662  -14.2681  -39.0054 H         1 UNK         0.0600 
    171 H171        4.3246  -12.4129  -40.4034 H         1 UNK         0.0600 
    172 H172        4.5360  -13.3538  -41.8713 H         1 UNK         0.0600 
    173 H173        5.9390  -12.8576  -40.9227 H         1 UNK         0.0600 
    174 H174        2.9900  -14.7498  -38.9845 H         1 UNK         0.3000 
    175 H175        0.9809  -16.7574  -40.7794 H         1 UNK         0.0600 
    176 H176        1.3411  -16.1889  -38.4019 H         1 UNK         0.0600 
    177 H177        0.9258  -14.5030  -38.6953 H         1 UNK         0.0600 
    178 H178       -0.2861  -15.7606  -38.8935 H         1 UNK         0.0600 
    179 H179       -0.1829  -15.4292  -42.1359 H         1 UNK         0.3000 
    180 H180       -1.2853  -12.2738  -42.2202 H         1 UNK         0.0600 
    181 H181        1.1150  -12.8154  -44.0523 H         1 UNK         0.0600 
    182 H182        0.8923  -11.3871  -43.0491 H         1 UNK         0.0600 
    183 H183       -0.2003  -11.6906  -44.3894 H         1 UNK         0.0600 
    184 H184       -0.9107  -14.1450  -44.3896 H         1 UNK         0.3000 
    185 H185       -2.3804  -16.2313  -44.4290 H         1 UNK         0.0600 
    186 H186       -4.2905  -16.6540  -42.9191 H         1 UNK         0.0600 
    187 H187       -5.1604  -15.2695  -43.5736 H         1 UNK         0.0600 
    188 H188       -4.8358  -16.6701  -44.5885 H         1 UNK         0.0600 
    189 H189       -4.2380  -14.4625  -45.7391 H         1 UNK         0.3000 
    190 H190       -2.0538  -20.3240  -46.1902 H         1 UNK         0.3000 
    191 H191       -4.5688  -20.2493  -47.6270 H         1 UNK         0.0600 
    192 H192       -3.7276  -18.3736  -46.1604 H         1 UNK         0.0600 
    193 H193       -5.3423  -18.9209  -45.7354 H         1 UNK         0.0600 
    194 H194       -3.9713  -19.3937  -44.7458 H         1 UNK         0.0600 
    195 H195       -3.3570  -21.9116  -44.6732 H         1 UNK         0.3000 
    196 H196       -5.6961  -23.3687  -44.0563 H         1 UNK         0.0600 
    197 H197       -4.1425  -24.7573  -42.6797 H         1 UNK         0.0600 
    198 H198       -3.8081  -23.0438  -42.4773 H         1 UNK         0.0600 
    199 H199       -2.7574  -24.0333  -43.4881 H         1 UNK         0.0600 
    200 H200       -2.9464  -24.2007  -46.1884 H         1 UNK         0.3000 
    201 H201       -3.9286  -26.7966  -46.9683 H         1 UNK         0.0600 
    202 H202       -2.1224  -26.6060  -48.6833 H         1 UNK         0.0600 
    203 H203       -1.5281  -26.1388  -47.0984 H         1 UNK         0.0600 
    204 H204       -1.9116  -24.9027  -48.2952 H         1 UNK         0.0600 
    205 H205       -4.9978  -23.6714  -47.7632 H         1 UNK         0.3000 
    206 H206       -6.3802  -22.7250  -49.1591 H         1 UNK         0.0600 
    207 H207       -7.8665  -24.7069  -48.7746 H         1 UNK         0.0600 
    208 H208       -8.0981  -23.9897  -50.3602 H         1 UNK         0.0600 
    209 H209       -7.1898  -25.4843  -50.2065 H         1 UNK         0.0600 
    210 H210       -3.5801  -23.7656  -50.0884 H         1 UNK         0.3000 
    211 H211       -3.6385  -23.7992  -52.9633 H         1 UNK         0.0600 
    212 H212       -1.7843  -24.8181  -51.6477 H         1 UNK         0.0600 
    213 H213       -1.1642  -23.5810  -52.7293 H         1 UNK         0.0600 
    214 H214       -1.3367  -23.2361  -51.0109 H         1 UNK         0.0600 
    215 H215       -3.1824  -21.2669  -50.4996 H         1 UNK         0.3000 
    216 H216       -2.6139  -19.1288  -52.3722 H         1 UNK         0.0600 
    217 H217       -3.5440  -19.0700  -49.4539 H         1 UNK         0.0600 
    218 H218       -3.0158  -17.6750  -50.3798 H         1 UNK         0.0600 
    219 H219       -1.8806  -18.9593  -50.0338 H         1 UNK         0.0600 
    220 H220       -5.5626  -20.4854  -50.9584 H         1 UNK         0.3000 
    221 H221       -7.3386  -18.3682  -51.8017 H         1 UNK         0.0600 
    222 H222       -7.9314  -21.2400  -50.9012 H         1 UNK         0.0600 
    223 H223       -7.8491  -19.8254  -49.8520 H         1 UNK         0.0600 
    224 H224       -9.1110  -19.9478  -51.0678 H         1 UNK         0.0600 
    225 H225       -6.5004  -21.6238  -53.0676 H         1 UNK         0.3000 
    226 H226       -8.1796  -21.4526  -55.4045 H         1 UNK         0.0600 
    227 H227       -7.5059  -23.6058  -54.3447 H         1 UNK         0.0600 
    228 H228       -6.9717  -23.5517  -56.0177 H         1 UNK         0.0600 
    229 H229       -5.8141  -23.2836  -54.7196 H         1 UNK         0.0600 
    230 H230       -5.0936  -20.1416  -54.6627 H         1 UNK         0.3000 
    231 H231       -3.4455  -19.1263  -55.7092 H         1 UNK         0.0600 
    232 H232       -5.1809  -18.9384  -58.2276 H         1 UNK         0.0600 
    233 H233       -3.7506  -17.9879  -57.8586 H         1 UNK         0.0600 
    234 H234       -5.2046  -17.7824  -56.8957 H         1 UNK         0.0600 
    235 H235       -3.5781  -21.9122  -55.5561 H         1 UNK         0.3000 
    236 H236       -2.2842  -23.0613  -57.9601 H         1 UNK         0.0600 
    237 H237       -3.0943  -24.3082  -55.2750 H         1 UNK         0.0600 
    238 H238       -4.0482  -24.3684  -56.7563 H         1 UNK         0.0600 
    239 H239       -2.4932  -25.1820  -56.6783 H         1 UNK         0.0600 
    240 H240       -1.4156  -21.3623  -55.1600 H         1 UNK         0.3000 
    241 H241        1.0032  -22.6081  -54.3932 H         1 UNK         0.0600 
    242 H242        0.5384  -20.8094  -57.3327 H         1 UNK         0.3800 
    243 H243        2.2314  -20.4957  -57.6126 H         1 UNK         0.3800 
    244 H244       -0.2031  -21.1451  -52.8687 H         1 UNK         0.0800 
    245 H245        1.4072  -20.5504  -53.1001 H         1 UNK         0.0800 
    246 H246        2.0032  -18.2710  -53.8441 H         1 UNK         0.0800 
    247 H247        0.8683  -16.9604  -54.0423 H         1 UNK         0.0800 
@<TRIPOS>BOND
     1    1    2 1    
     2    1  127 1    
     3    1  128 1    
     4    1  129 1    
     5    2    3 2    
     6    2    4 am   BACKBONE|DICT|INTERRES
     7    4    5 1    
     8    4  130 1    
     9    5    6 1    
    10    5   65 1    
    11    5  131 1    
    12    6    7 1    
    13    6  132 1    
    14    6  133 1    
    15    7    8 1    
    16    8    9 1    
    17    8  134 1    
    18    8  135 1    
    19    9   10 ar   
    20    9   14 ar   
    21   10   11 ar   
    22   10  136 1    
    23   11   12 ar   
    24   11  126 1    
    25   12   13 ar   
    26   12  137 1    
    27   13   14 ar   
    28   13   15 1    
    29   14  138 1    
    30   15   16 1    
    31   15  139 1    
    32   15  140 1    
    33   16   17 1    
    34   17   18 1    
    35   17  141 1    
    36   17  142 1    
    37   18   19 1    
    38   18   67 1    
    39   18  143 1    
    40   19   20 am   BACKBONE|DICT|INTERRES
    41   19  144 1    
    42   20   21 2    
    43   20   22 1    
    44   22   23 1    
    45   22   24 1    
    46   22  145 1    
    47   23  146 1    
    48   23  147 1    
    49   23  148 1    
    50   24   25 am   BACKBONE|DICT|INTERRES
    51   24  149 1    
    52   25   26 2    
    53   25   27 1    
    54   27   28 1    
    55   27   29 1    
    56   27  150 1    
    57   28  151 1    
    58   28  152 1    
    59   28  153 1    
    60   29   30 am   BACKBONE|DICT|INTERRES
    61   29  154 1    
    62   30   31 2    
    63   30   32 1    
    64   32   33 1    
    65   32   34 1    
    66   32  155 1    
    67   33  156 1    
    68   33  157 1    
    69   33  158 1    
    70   34   35 am   BACKBONE|DICT|INTERRES
    71   34  159 1    
    72   35   36 2    
    73   35   37 1    
    74   37   38 1    
    75   37   39 1    
    76   37  160 1    
    77   38  161 1    
    78   38  162 1    
    79   38  163 1    
    80   39   40 am   BACKBONE|DICT|INTERRES
    81   39  164 1    
    82   40   41 2    
    83   40   42 1    
    84   42   43 1    
    85   42   44 1    
    86   42  165 1    
    87   43  166 1    
    88   43  167 1    
    89   43  168 1    
    90   44   45 am   BACKBONE|DICT|INTERRES
    91   44  169 1    
    92   45   46 2    
    93   45   47 1    
    94   47   48 1    
    95   47   49 1    
    96   47  170 1    
    97   48  171 1    
    98   48  172 1    
    99   48  173 1    
   100   49   50 am   BACKBONE|DICT|INTERRES
   101   49  174 1    
   102   50   51 2    
   103   50   52 1    
   104   52   53 1    
   105   52   54 1    
   106   52  175 1    
   107   53  176 1    
   108   53  177 1    
   109   53  178 1    
   110   54   55 am   BACKBONE|DICT|INTERRES
   111   54  179 1    
   112   55   56 2    
   113   55   57 1    
   114   57   58 1    
   115   57   59 1    
   116   57  180 1    
   117   58  181 1    
   118   58  182 1    
   119   58  183 1    
   120   59   60 am   BACKBONE|DICT|INTERRES
   121   59  184 1    
   122   60   61 2    
   123   60   62 1    
   124   62   63 1    
   125   62   64 1    
   126   62  185 1    
   127   63  186 1    
   128   63  187 1    
   129   63  188 1    
   130   64   65 am   BACKBONE|DICT|INTERRES
   131   64  189 1    
   132   65   66 2    
   133   67   68 2    
   134   67   69 am   BACKBONE|DICT|INTERRES
   135   69   70 1    
   136   69  190 1    
   137   70   71 1    
   138   70   72 1    
   139   70  191 1    
   140   71  192 1    
   141   71  193 1    
   142   71  194 1    
   143   72   73 2    
   144   72   74 am   BACKBONE|DICT|INTERRES
   145   74   75 1    
   146   74  195 1    
   147   75   76 1    
   148   75   77 1    
   149   75  196 1    
   150   76  197 1    
   151   76  198 1    
   152   76  199 1    
   153   77   78 2    
   154   77   79 am   BACKBONE|DICT|INTERRES
   155   79   80 1    
   156   79  200 1    
   157   80   81 1    
   158   80   82 1    
   159   80  201 1    
   160   81  202 1    
   161   81  203 1    
   162   81  204 1    
   163   82   83 2    
   164   82   84 am   BACKBONE|DICT|INTERRES
   165   84   85 1    
   166   84  205 1    
   167   85   86 1    
   168   85   87 1    
   169   85  206 1    
   170   86  207 1    
   171   86  208 1    
   172   86  209 1    
   173   87   88 2    
   174   87   89 am   BACKBONE|DICT|INTERRES
   175   89   90 1    
   176   89  210 1    
   177   90   91 1    
   178   90   92 1    
   179   90  211 1    
   180   91  212 1    
   181   91  213 1    
   182   91  214 1    
   183   92   93 2    
   184   92   94 am   BACKBONE|DICT|INTERRES
   185   94   95 1    
   186   94  215 1    
   187   95   96 1    
   188   95   97 1    
   189   95  216 1    
   190   96  217 1    
   191   96  218 1    
   192   96  219 1    
   193   97   98 2    
   194   97   99 am   BACKBONE|DICT|INTERRES
   195   99  100 1    
   196   99  220 1    
   197  100  101 1    
   198  100  102 1    
   199  100  221 1    
   200  101  222 1    
   201  101  223 1    
   202  101  224 1    
   203  102  103 2    
   204  102  104 am   BACKBONE|DICT|INTERRES
   205  104  105 1    
   206  104  225 1    
   207  105  106 1    
   208  105  107 1    
   209  105  226 1    
   210  106  227 1    
   211  106  228 1    
   212  106  229 1    
   213  107  108 2    
   214  107  109 am   BACKBONE|DICT|INTERRES
   215  109  110 1    
   216  109  230 1    
   217  110  111 1    
   218  110  112 1    
   219  110  231 1    
   220  111  232 1    
   221  111  233 1    
   222  111  234 1    
   223  112  113 2    
   224  112  114 am   BACKBONE|DICT|INTERRES
   225  114  115 1    
   226  114  235 1    
   227  115  116 1    
   228  115  117 1    
   229  115  236 1    
   230  116  237 1    
   231  116  238 1    
   232  116  239 1    
   233  117  118 2    
   234  117  119 am   BACKBONE|DICT|INTERRES
   235  119  120 1    
   236  119  240 1    
   237  120  121 1    
   238  120  124 1    
   239  120  241 1    
   240  121  122 am   BACKBONE|DICT|INTERRES
   241  121  123 2    
   242  122  242 1    
   243  122  243 1    
   244  124  125 1    
   245  124  244 1    
   246  124  245 1    
   247  125  126 1    
   248  126  246 1    
   249  126  247 1    
@<TRIPOS>SUBSTRUCTURE
     1 UNK         1 GROUP             0       ****    0 ROOT    
