@<TRIPOS>MOLECULE
3R540
247   249    1
SMALL
USER_CHARGES


@<TRIPOS>ATOM
      1 CA         -0.2352  -11.4882  -43.6242 C.3       0 UNK        -0.1800 
      2 C          -0.0120  -11.0361  -45.0608 C.2       0 UNK         0.5000 
      3 O           0.5426   -9.9609  -45.2880 O.2       0 UNK        -0.5000 
      4 N          -0.4375  -11.8574  -46.0255 N.am      1 UNK        -0.5000 
      5 CA         -0.1945  -11.6748  -47.4590 C.3       1 UNK         0.1400 
      6 C6         -1.2488  -12.4062  -48.3278 C.3       23 UNK        -0.0398 
      7 S7         -2.9539  -11.8407  -47.9973 S.3       23 UNK        -0.2404 
      8 C8         -3.7992  -12.2439  -49.5588 C.3       23 UNK        -0.0205 
      9 C9         -4.0485  -13.7378  -49.7206 C.ar      23 UNK        -0.0193 
     10 C10        -5.2757  -14.2991  -49.3485 C.ar      23 UNK        -0.1150 
     11 C11        -5.5320  -15.6614  -49.5430 C.ar      23 UNK        -0.0193 
     12 C12        -4.5293  -16.4588  -50.1054 C.ar      23 UNK        -0.1150 
     13 C13        -3.2943  -15.9193  -50.4653 C.ar      23 UNK        -0.0193 
     14 C14        -3.0620  -14.5557  -50.2767 C.ar      23 UNK        -0.1150 
     15 C15        -2.2171  -16.8065  -51.0683 C.3       23 UNK        -0.0205 
     16 S16        -1.5563  -17.9844  -49.8490 S.3       23 UNK        -0.2404 
     17 C17        -2.6144  -19.4453  -50.0959 C.3       23 UNK        -0.0398 
     18 CA         -3.1658  -20.0603  -48.7918 C.3       11 UNK         0.1400 
     19 N          -3.9109  -19.0882  -47.9774 N.am      11 UNK        -0.5000 
     20 C          -4.4900  -19.3353  -46.7934 C.2       10 UNK         0.5000 
     21 O          -4.5445  -20.4562  -46.2836 O.2       10 UNK        -0.5000 
     22 CA         -5.0907  -18.1310  -46.0595 C.3       10 UNK         0.1400 
     23 CB         -5.5660  -18.4797  -44.6336 C.3       10 UNK        -0.1800 
     24 N          -4.1139  -17.0473  -46.0108 N.am      10 UNK        -0.5000 
     25 C          -4.4193  -15.7543  -45.8332 C.2       9 UNK         0.5000 
     26 O          -5.5745  -15.3278  -45.8047 O.2       9 UNK        -0.5000 
     27 CA         -3.2387  -14.8000  -45.5760 C.3       9 UNK         0.1400 
     28 CB         -3.6573  -13.5075  -44.8504 C.3       9 UNK        -0.1800 
     29 N          -2.2363  -15.5034  -44.7814 N.am      9 UNK        -0.5000 
     30 C          -0.9181  -15.4688  -44.9828 C.2       8 UNK         0.5000 
     31 O          -0.3617  -14.6717  -45.7368 O.2       8 UNK        -0.5000 
     32 CA         -0.0715  -16.5296  -44.2523 C.3       8 UNK         0.1400 
     33 CB         -0.8375  -17.3161  -43.1647 C.3       8 UNK        -0.1800 
     34 N           0.5527  -17.4704  -45.1899 N.am      8 UNK        -0.5000 
     35 C          -0.0607  -18.1730  -46.1554 C.2       7 UNK         0.5000 
     36 O          -1.2659  -18.0826  -46.3989 O.2       7 UNK        -0.5000 
     37 CA          0.7756  -19.2065  -46.9405 C.3       7 UNK         0.1400 
     38 CB          1.5108  -18.5924  -48.1512 C.3       7 UNK        -0.1800 
     39 N           1.6701  -20.0283  -46.1132 N.am      7 UNK        -0.5000 
     40 C           2.7866  -19.6486  -45.4805 C.2       6 UNK         0.5000 
     41 O           3.2565  -18.5099  -45.5364 O.2       6 UNK        -0.5000 
     42 CA          3.5041  -20.7232  -44.6557 C.3       6 UNK         0.1400 
     43 CB          4.3435  -21.6318  -45.5754 C.3       6 UNK        -0.1800 
     44 N           4.3523  -20.0534  -43.6730 N.am      6 UNK        -0.5000 
     45 C           4.9757  -20.6318  -42.6410 C.2       5 UNK         0.5000 
     46 O           4.8902  -21.8311  -42.3736 O.2       5 UNK        -0.5000 
     47 CA          5.8476  -19.7217  -41.7543 C.3       5 UNK         0.1400 
     48 CB          7.2602  -19.5913  -42.3452 C.3       5 UNK        -0.1800 
     49 N           5.2907  -18.3829  -41.5509 N.am      5 UNK        -0.5000 
     50 C           4.1955  -18.1100  -40.8271 C.2       4 UNK         0.5000 
     51 O           3.5145  -18.9721  -40.2705 O.2       4 UNK        -0.5000 
     52 CA          3.8026  -16.6246  -40.6729 C.3       4 UNK         0.1400 
     53 CB          4.2340  -16.0976  -39.2953 C.3       4 UNK        -0.1800 
     54 N           4.3546  -15.7445  -41.7090 N.am      4 UNK        -0.5000 
     55 C           3.9683  -15.7630  -42.9896 C.2       3 UNK         0.5000 
     56 O           3.1231  -16.5441  -43.4250 O.2       3 UNK        -0.5000 
     57 CA          4.6493  -14.7619  -43.9344 C.3       3 UNK         0.1400 
     58 CB          6.1221  -15.1400  -44.1715 C.3       3 UNK        -0.1800 
     59 N           3.9492  -14.7548  -45.2162 N.am      3 UNK        -0.5000 
     60 C           3.7112  -13.6784  -45.9742 C.2       2 UNK         0.5000 
     61 O           4.0692  -12.5400  -45.6670 O.2       2 UNK        -0.5000 
     62 CA          2.9532  -13.8909  -47.2987 C.3       2 UNK         0.1400 
     63 CB          2.7642  -15.3701  -47.6826 C.3       2 UNK        -0.1800 
     64 N           1.6384  -13.2730  -47.1894 N.am      2 UNK        -0.5000 
     65 C           1.2258  -12.1627  -47.8142 C.2       1 UNK         0.5000 
     66 O           1.9058  -11.5297  -48.6232 O.2       1 UNK        -0.5000 
     67 C          -3.9527  -21.3491  -49.1234 C.2       11 UNK         0.5000 
     68 O          -3.3450  -22.4095  -49.2699 O.2       11 UNK        -0.5000 
     69 N          -5.2896  -21.2580  -49.1708 N.am      12 UNK        -0.5000 
     70 CA         -6.2045  -22.3938  -49.3141 C.3       12 UNK         0.1400 
     71 CB         -7.6446  -21.8643  -49.3729 C.3       12 UNK        -0.1800 
     72 C          -6.0625  -23.4712  -48.2131 C.2       12 UNK         0.5000 
     73 O          -6.4025  -24.6279  -48.4600 O.2       12 UNK        -0.5000 
     74 N          -5.5449  -23.0843  -47.0396 N.am      13 UNK        -0.5000 
     75 CA         -5.1735  -23.9825  -45.9500 C.3       13 UNK         0.1400 
     76 CB         -5.9304  -23.5735  -44.6761 C.3       13 UNK        -0.1800 
     77 C          -3.6543  -23.9426  -45.7179 C.2       13 UNK         0.5000 
     78 O          -3.0124  -24.9922  -45.6915 O.2       13 UNK        -0.5000 
     79 N          -3.0954  -22.7336  -45.5758 N.am      14 UNK        -0.5000 
     80 CA         -1.7124  -22.4832  -45.1601 C.3       14 UNK         0.1400 
     81 CB         -1.6220  -21.0515  -44.6150 C.3       14 UNK        -0.1800 
     82 C          -0.6459  -22.7374  -46.2452 C.2       14 UNK         0.5000 
     83 O           0.5441  -22.7120  -45.9270 O.2       14 UNK        -0.5000 
     84 N          -1.0695  -22.9709  -47.4920 N.am      15 UNK        -0.5000 
     85 CA         -0.2410  -23.4645  -48.5964 C.3       15 UNK         0.1400 
     86 CB         -0.0056  -22.3299  -49.6067 C.3       15 UNK        -0.1800 
     87 C          -0.9026  -24.6977  -49.2502 C.2       15 UNK         0.5000 
     88 O          -0.5812  -25.0375  -50.3933 O.2       15 UNK        -0.5000 
     89 N          -1.8385  -25.3265  -48.5161 N.am      16 UNK        -0.5000 
     90 CA         -2.6221  -26.5227  -48.8458 C.3       16 UNK         0.1400 
     91 CB         -1.6949  -27.7547  -48.8922 C.3       16 UNK        -0.1800 
     92 C          -3.4926  -26.4090  -50.1163 C.2       16 UNK         0.5000 
     93 O          -3.9152  -27.4395  -50.6428 O.2       16 UNK        -0.5000 
     94 N          -3.7116  -25.1794  -50.6124 N.am      17 UNK        -0.5000 
     95 CA         -4.2849  -24.8508  -51.9252 C.3       17 UNK         0.1400 
     96 CB         -5.7532  -25.3172  -52.0304 C.3       17 UNK        -0.1800 
     97 C          -3.4276  -25.3677  -53.1079 C.2       17 UNK         0.5000 
     98 O          -3.9406  -25.4810  -54.2228 O.2       17 UNK        -0.5000 
     99 N          -2.1563  -25.7038  -52.8446 N.am      18 UNK        -0.5000 
    100 CA        -1.2670  -26.4126  -53.7592 C.3       18 UNK         0.1400 
    101 CB        -0.7452  -27.6825  -53.0658 C.3       18 UNK        -0.1800 
    102 C         -0.1087  -25.5128  -54.2012 C.2       18 UNK         0.5000 
    103 O          0.0850  -25.3254  -55.4031 O.2       18 UNK        -0.5000 
    104 N          0.6366  -24.9624  -53.2317 N.am      19 UNK        -0.5000 
    105 CA         1.7576  -24.0531  -53.4946 C.3       19 UNK         0.1400 
    106 CB         2.7343  -24.0897  -52.3092 C.3       19 UNK        -0.1800 
    107 C          1.2889  -22.6176  -53.8054 C.2       19 UNK         0.5000 
    108 O          2.0049  -21.8710  -54.4735 O.2       19 UNK        -0.5000 
    109 N          0.0834  -22.2788  -53.3421 N.am      20 UNK        -0.5000 
    110 CA        -0.6620  -21.0526  -53.5885 C.3       20 UNK         0.1400 
    111 CB        -0.0393  -19.8787  -52.8091 C.3       20 UNK        -0.1800 
    112 C         -2.1096  -21.3224  -53.1513 C.2       20 UNK         0.5000 
    113 O         -2.3492  -22.2914  -52.4283 O.2       20 UNK        -0.5000 
    114 N         -3.0466  -20.4638  -53.5594 N.am      21 UNK        -0.5000 
    115 CA        -4.4596  -20.5330  -53.1914 C.3       21 UNK         0.1400 
    116 CB        -5.2064  -21.4687  -54.1582 C.3       21 UNK        -0.1800 
    117 C         -5.0505  -19.1154  -53.2113 C.2       21 UNK         0.5000 
    118 O         -4.4544  -18.2170  -53.8105 O.2       21 UNK        -0.5000 
    119 N         -6.2061  -18.9399  -52.5580 N.am      22 UNK        -0.5000 
    120 CA        -6.9395  -17.6603  -52.4968 C.3       22 UNK         0.1400 
    121 C         -7.6274  -17.2361  -53.8302 C.2       22 UNK         0.5000 
    122 N         -7.7471  -18.1033  -54.8285 N.am      22 UNK        -0.7600 
    123 O         -8.0590  -16.0943  -53.9621 O.2       22 UNK        -0.5000 
    124 C124       -7.9662  -17.6248  -51.3328 C.3       23 UNK        -0.0398 
    125 S125       -7.2537  -17.9351  -49.6787 S.3       23 UNK        -0.2404 
    126 C126       -6.8858  -16.2312  -49.1096 C.3       23 UNK        -0.0205 
    127 H127        0.7000  -11.4405  -43.0664 H         1 UNK         0.0600 
    128 H128       -0.6044  -12.5128  -43.5741 H         1 UNK         0.0600 
    129 H129       -0.9605  -10.8387  -43.1345 H         1 UNK         0.0600 
    130 H130       -0.8208  -12.7618  -45.7740 H         1 UNK         0.3000 
    131 H131       -0.2477  -10.6091  -47.6923 H         1 UNK         0.0600 
    132 H132       -1.2072  -13.4845  -48.1635 H         1 UNK         0.0800 
    133 H133       -1.0294  -12.2456  -49.3847 H         1 UNK         0.0800 
    134 H134       -4.7496  -11.7088  -49.5846 H         1 UNK         0.0800 
    135 H135       -3.2204  -11.8639  -50.4020 H         1 UNK         0.0800 
    136 H136       -6.0384  -13.6702  -48.9107 H         1 UNK         0.1150 
    137 H137       -4.7017  -17.5078  -50.2718 H         1 UNK         0.1150 
    138 H138       -2.1140  -14.1284  -50.5701 H         1 UNK         0.1150 
    139 H139       -2.6082  -17.3317  -51.9401 H         1 UNK         0.0800 
    140 H140       -1.3885  -16.1980  -51.4333 H         1 UNK         0.0800 
    141 H141       -2.0021  -20.1788  -50.6126 H         1 UNK         0.0800 
    142 H142       -3.4260  -19.2034  -50.7777 H         1 UNK         0.0800 
    143 H143       -2.3116  -20.3685  -48.1860 H         1 UNK         0.0600 
    144 H144       -3.8660  -18.1292  -48.2923 H         1 UNK         0.3000 
    145 H145       -5.9562  -17.8157  -46.6429 H         1 UNK         0.0600 
    146 H146       -6.0387  -17.6250  -44.1498 H         1 UNK         0.0600 
    147 H147       -6.3019  -19.2846  -44.6505 H         1 UNK         0.0600 
    148 H148       -4.7361  -18.8044  -44.0047 H         1 UNK         0.0600 
    149 H149       -3.1376  -17.3276  -46.0819 H         1 UNK         0.3000 
    150 H150       -2.8304  -14.5439  -46.5553 H         1 UNK         0.0600 
    151 H151       -4.3933  -12.9520  -45.4327 H         1 UNK         0.0600 
    152 H152       -2.8069  -12.8460  -44.6950 H         1 UNK         0.0600 
    153 H153       -4.0986  -13.7201  -43.8762 H         1 UNK         0.0600 
    154 H154       -2.6021  -16.1999  -44.1473 H         1 UNK         0.3000 
    155 H155        0.7252  -15.9750  -43.7604 H         1 UNK         0.0600 
    156 H156       -0.1621  -17.9815  -42.6264 H         1 UNK         0.0600 
    157 H157       -1.6356  -17.9314  -43.5825 H         1 UNK         0.0600 
    158 H158       -1.2779  -16.6456  -42.4257 H         1 UNK         0.0600 
    159 H159        1.5542  -17.6033  -45.0773 H         1 UNK         0.3000 
    160 H160        0.0414  -19.9025  -47.3467 H         1 UNK         0.0600 
    161 H161        2.4791  -18.1691  -47.8952 H         1 UNK         0.0600 
    162 H162        0.9346  -17.7872  -48.6038 H         1 UNK         0.0600 
    163 H163        1.6820  -19.3429  -48.9223 H         1 UNK         0.0600 
    164 H164        1.3740  -20.9954  -46.0033 H         1 UNK         0.3000 
    165 H165        2.7544  -21.3183  -44.1300 H         1 UNK         0.0600 
    166 H166        5.1217  -21.0683  -46.0916 H         1 UNK         0.0600 
    167 H167        4.8254  -22.4348  -45.0182 H         1 UNK         0.0600 
    168 H168        3.7189  -22.1028  -46.3357 H         1 UNK         0.0600 
    169 H169        4.4249  -19.0520  -43.8121 H         1 UNK         0.3000 
    170 H170        5.9341  -20.2013  -40.7769 H         1 UNK         0.0600 
    171 H171        7.7145  -20.5723  -42.4914 H         1 UNK         0.0600 
    172 H172        7.2474  -19.0883  -43.3131 H         1 UNK         0.0600 
    173 H173        7.9155  -19.0271  -41.6814 H         1 UNK         0.0600 
    174 H174        5.7904  -17.6123  -41.9681 H         1 UNK         0.3000 
    175 H175        2.7131  -16.5723  -40.7296 H         1 UNK         0.0600 
    176 H176        5.3188  -16.1076  -39.1825 H         1 UNK         0.0600 
    177 H177        3.8881  -15.0759  -39.1372 H         1 UNK         0.0600 
    178 H178        3.8152  -16.7076  -38.4938 H         1 UNK         0.0600 
    179 H179        5.0564  -15.0816  -41.4120 H         1 UNK         0.3000 
    180 H180        4.5939  -13.7758  -43.4687 H         1 UNK         0.0600 
    181 H181        6.2149  -16.1358  -44.6072 H         1 UNK         0.0600 
    182 H182        6.6902  -15.1321  -43.2408 H         1 UNK         0.0600 
    183 H183        6.6043  -14.4342  -44.8481 H         1 UNK         0.0600 
    184 H184        3.5649  -15.6527  -45.4836 H         1 UNK         0.3000 
    185 H185        3.5407  -13.4111  -48.0839 H         1 UNK         0.0600 
    186 H186        2.2777  -15.4592  -48.6540 H         1 UNK         0.0600 
    187 H187        3.7212  -15.8887  -47.7538 H         1 UNK         0.0600 
    188 H188        2.1453  -15.8996  -46.9580 H         1 UNK         0.0600 
    189 H189        0.9912  -13.7258  -46.5476 H         1 UNK         0.3000 
    190 H190       -5.7146  -20.3565  -49.0081 H         1 UNK         0.3000 
    191 H191       -5.9775  -22.8711  -50.2679 H         1 UNK         0.0600 
    192 H192       -7.9155  -21.3370  -48.4574 H         1 UNK         0.0600 
    193 H193       -8.3563  -22.6802  -49.5058 H         1 UNK         0.0600 
    194 H194       -7.7806  -21.1775  -50.2084 H         1 UNK         0.0600 
    195 H195       -5.2903  -22.1086  -46.9199 H         1 UNK         0.3000 
    196 H196       -5.4416  -25.0143  -46.1862 H         1 UNK         0.0600 
    197 H197       -5.6515  -24.2082  -43.8340 H         1 UNK         0.0600 
    198 H198       -7.0073  -23.6707  -44.8140 H         1 UNK         0.0600 
    199 H199       -5.7236  -22.5401  -44.3940 H         1 UNK         0.0600 
    200 H200       -3.6829  -21.9075  -45.6697 H         1 UNK         0.3000 
    201 H201       -1.4810  -23.1639  -44.3381 H         1 UNK         0.0600 
    202 H202       -2.2699  -20.9191  -43.7485 H         1 UNK         0.0600 
    203 H203       -1.9285  -20.3282  -45.3674 H         1 UNK         0.0600 
    204 H204       -0.6079  -20.8014  -44.3010 H         1 UNK         0.0600 
    205 H205       -2.0600  -22.9084  -47.6980 H         1 UNK         0.3000 
    206 H206        0.7281  -23.7973  -48.2199 H         1 UNK         0.0600 
    207 H207        0.3604  -21.4278  -49.1202 H         1 UNK         0.0600 
    208 H208        0.7321  -22.6123  -50.3536 H         1 UNK         0.0600 
    209 H209       -0.9180  -22.0817  -50.1426 H         1 UNK         0.0600 
    210 H210       -2.0053  -24.9758  -47.5806 H         1 UNK         0.3000 
    211 H211       -3.3201  -26.6631  -48.0194 H         1 UNK         0.0600 
    212 H212       -1.0041  -27.7075  -49.7344 H         1 UNK         0.0600 
    213 H213       -2.2674  -28.6778  -48.9898 H         1 UNK         0.0600 
    214 H214       -1.1053  -27.8384  -47.9793 H         1 UNK         0.0600 
    215 H215       -3.3327  -24.3868  -50.1049 H         1 UNK         0.3000 
    216 H216       -4.2947  -23.7643  -51.9855 H         1 UNK         0.0600 
    217 H217       -6.3325  -25.0301  -51.1545 H         1 UNK         0.0600 
    218 H218       -5.8289  -26.3996  -52.1364 H         1 UNK         0.0600 
    219 H219       -6.2391  -24.8727  -52.8995 H         1 UNK         0.0600 
    220 H220       -1.7922  -25.5172  -51.9158 H         1 UNK         0.3000 
    221 H221       -1.8063  -26.7230  -54.6565 H         1 UNK         0.0600 
    222 H222       -0.2032  -27.4531  -52.1476 H         1 UNK         0.0600 
    223 H223       -1.5666  -28.3508  -52.8062 H         1 UNK         0.0600 
    224 H224       -0.0689  -28.2353  -53.7191 H         1 UNK         0.0600 
    225 H225        0.3995  -25.1358  -52.2609 H         1 UNK         0.3000 
    226 H226        2.3007  -24.4068  -54.3738 H         1 UNK         0.0600 
    227 H227        3.1905  -25.0749  -52.2129 H         1 UNK         0.0600 
    228 H228        3.5432  -23.3703  -52.4431 H         1 UNK         0.0600 
    229 H229        2.2429  -23.8628  -51.3654 H         1 UNK         0.0600 
    230 H230       -0.4541  -22.9642  -52.8235 H         1 UNK         0.3000 
    231 H231       -0.6570  -20.8368  -54.6585 H         1 UNK         0.0600 
    232 H232       -0.6486  -18.9782  -52.8922 H         1 UNK         0.0600 
    233 H233        0.9504  -19.6315  -53.1926 H         1 UNK         0.0600 
    234 H234        0.0682  -20.1098  -51.7492 H         1 UNK         0.0600 
    235 H235       -2.7985  -19.6466  -54.1039 H         1 UNK         0.3000 
    236 H236       -4.5539  -20.9218  -52.1755 H         1 UNK         0.0600 
    237 H237       -4.7830  -22.4731  -54.1439 H         1 UNK         0.0600 
    238 H238       -6.2586  -21.5595  -53.8868 H         1 UNK         0.0600 
    239 H239       -5.1594  -21.1035  -55.1848 H         1 UNK         0.0600 
    240 H240       -6.6473  -19.7224  -52.0986 H         1 UNK         0.3000 
    241 H241       -6.2046  -16.8783  -52.3000 H         1 UNK         0.0600 
    242 H242       -7.4002  -19.0440  -54.7399 H         1 UNK         0.3800 
    243 H243       -8.1913  -17.8123  -55.6855 H         1 UNK         0.3800 
    244 H244       -8.4878  -16.6665  -51.3101 H         1 UNK         0.0800 
    245 H245       -8.7405  -18.3749  -51.5016 H         1 UNK         0.0800 
    246 H246       -6.9209  -16.2220  -48.0208 H         1 UNK         0.0800 
    247 H247       -7.6831  -15.5615  -49.4343 H         1 UNK         0.0800 
@<TRIPOS>BOND
     1    1    2 1    
     2    1  127 1    
     3    1  128 1    
     4    1  129 1    
     5    2    3 2    
     6    2    4 am   BACKBONE|DICT|INTERRES
     7    4    5 1    
     8    4  130 1    
     9    5    6 1    
    10    5   65 1    
    11    5  131 1    
    12    6    7 1    
    13    6  132 1    
    14    6  133 1    
    15    7    8 1    
    16    8    9 1    
    17    8  134 1    
    18    8  135 1    
    19    9   10 ar   
    20    9   14 ar   
    21   10   11 ar   
    22   10  136 1    
    23   11   12 ar   
    24   11  126 1    
    25   12   13 ar   
    26   12  137 1    
    27   13   14 ar   
    28   13   15 1    
    29   14  138 1    
    30   15   16 1    
    31   15  139 1    
    32   15  140 1    
    33   16   17 1    
    34   17   18 1    
    35   17  141 1    
    36   17  142 1    
    37   18   19 1    
    38   18   67 1    
    39   18  143 1    
    40   19   20 am   BACKBONE|DICT|INTERRES
    41   19  144 1    
    42   20   21 2    
    43   20   22 1    
    44   22   23 1    
    45   22   24 1    
    46   22  145 1    
    47   23  146 1    
    48   23  147 1    
    49   23  148 1    
    50   24   25 am   BACKBONE|DICT|INTERRES
    51   24  149 1    
    52   25   26 2    
    53   25   27 1    
    54   27   28 1    
    55   27   29 1    
    56   27  150 1    
    57   28  151 1    
    58   28  152 1    
    59   28  153 1    
    60   29   30 am   BACKBONE|DICT|INTERRES
    61   29  154 1    
    62   30   31 2    
    63   30   32 1    
    64   32   33 1    
    65   32   34 1    
    66   32  155 1    
    67   33  156 1    
    68   33  157 1    
    69   33  158 1    
    70   34   35 am   BACKBONE|DICT|INTERRES
    71   34  159 1    
    72   35   36 2    
    73   35   37 1    
    74   37   38 1    
    75   37   39 1    
    76   37  160 1    
    77   38  161 1    
    78   38  162 1    
    79   38  163 1    
    80   39   40 am   BACKBONE|DICT|INTERRES
    81   39  164 1    
    82   40   41 2    
    83   40   42 1    
    84   42   43 1    
    85   42   44 1    
    86   42  165 1    
    87   43  166 1    
    88   43  167 1    
    89   43  168 1    
    90   44   45 am   BACKBONE|DICT|INTERRES
    91   44  169 1    
    92   45   46 2    
    93   45   47 1    
    94   47   48 1    
    95   47   49 1    
    96   47  170 1    
    97   48  171 1    
    98   48  172 1    
    99   48  173 1    
   100   49   50 am   BACKBONE|DICT|INTERRES
   101   49  174 1    
   102   50   51 2    
   103   50   52 1    
   104   52   53 1    
   105   52   54 1    
   106   52  175 1    
   107   53  176 1    
   108   53  177 1    
   109   53  178 1    
   110   54   55 am   BACKBONE|DICT|INTERRES
   111   54  179 1    
   112   55   56 2    
   113   55   57 1    
   114   57   58 1    
   115   57   59 1    
   116   57  180 1    
   117   58  181 1    
   118   58  182 1    
   119   58  183 1    
   120   59   60 am   BACKBONE|DICT|INTERRES
   121   59  184 1    
   122   60   61 2    
   123   60   62 1    
   124   62   63 1    
   125   62   64 1    
   126   62  185 1    
   127   63  186 1    
   128   63  187 1    
   129   63  188 1    
   130   64   65 am   BACKBONE|DICT|INTERRES
   131   64  189 1    
   132   65   66 2    
   133   67   68 2    
   134   67   69 am   BACKBONE|DICT|INTERRES
   135   69   70 1    
   136   69  190 1    
   137   70   71 1    
   138   70   72 1    
   139   70  191 1    
   140   71  192 1    
   141   71  193 1    
   142   71  194 1    
   143   72   73 2    
   144   72   74 am   BACKBONE|DICT|INTERRES
   145   74   75 1    
   146   74  195 1    
   147   75   76 1    
   148   75   77 1    
   149   75  196 1    
   150   76  197 1    
   151   76  198 1    
   152   76  199 1    
   153   77   78 2    
   154   77   79 am   BACKBONE|DICT|INTERRES
   155   79   80 1    
   156   79  200 1    
   157   80   81 1    
   158   80   82 1    
   159   80  201 1    
   160   81  202 1    
   161   81  203 1    
   162   81  204 1    
   163   82   83 2    
   164   82   84 am   BACKBONE|DICT|INTERRES
   165   84   85 1    
   166   84  205 1    
   167   85   86 1    
   168   85   87 1    
   169   85  206 1    
   170   86  207 1    
   171   86  208 1    
   172   86  209 1    
   173   87   88 2    
   174   87   89 am   BACKBONE|DICT|INTERRES
   175   89   90 1    
   176   89  210 1    
   177   90   91 1    
   178   90   92 1    
   179   90  211 1    
   180   91  212 1    
   181   91  213 1    
   182   91  214 1    
   183   92   93 2    
   184   92   94 am   BACKBONE|DICT|INTERRES
   185   94   95 1    
   186   94  215 1    
   187   95   96 1    
   188   95   97 1    
   189   95  216 1    
   190   96  217 1    
   191   96  218 1    
   192   96  219 1    
   193   97   98 2    
   194   97   99 am   BACKBONE|DICT|INTERRES
   195   99  100 1    
   196   99  220 1    
   197  100  101 1    
   198  100  102 1    
   199  100  221 1    
   200  101  222 1    
   201  101  223 1    
   202  101  224 1    
   203  102  103 2    
   204  102  104 am   BACKBONE|DICT|INTERRES
   205  104  105 1    
   206  104  225 1    
   207  105  106 1    
   208  105  107 1    
   209  105  226 1    
   210  106  227 1    
   211  106  228 1    
   212  106  229 1    
   213  107  108 2    
   214  107  109 am   BACKBONE|DICT|INTERRES
   215  109  110 1    
   216  109  230 1    
   217  110  111 1    
   218  110  112 1    
   219  110  231 1    
   220  111  232 1    
   221  111  233 1    
   222  111  234 1    
   223  112  113 2    
   224  112  114 am   BACKBONE|DICT|INTERRES
   225  114  115 1    
   226  114  235 1    
   227  115  116 1    
   228  115  117 1    
   229  115  236 1    
   230  116  237 1    
   231  116  238 1    
   232  116  239 1    
   233  117  118 2    
   234  117  119 am   BACKBONE|DICT|INTERRES
   235  119  120 1    
   236  119  240 1    
   237  120  121 1    
   238  120  124 1    
   239  120  241 1    
   240  121  122 am   BACKBONE|DICT|INTERRES
   241  121  123 2    
   242  122  242 1    
   243  122  243 1    
   244  124  125 1    
   245  124  244 1    
   246  124  245 1    
   247  125  126 1    
   248  126  246 1    
   249  126  247 1    
@<TRIPOS>SUBSTRUCTURE
     1 UNK         1 GROUP             0       ****    0 ROOT    
