@<TRIPOS>MOLECULE
3R540
247   249    1
SMALL
USER_CHARGES


@<TRIPOS>ATOM
      1 CA          4.6839  -11.0102  -52.9323 C.3       0 UNK        -0.1800 
      2 C           5.0729  -11.9190  -51.7749 C.2       0 UNK         0.5000 
      3 O           6.2354  -11.9315  -51.3700 O.2       0 UNK        -0.5000 
      4 N           4.1064  -12.6800  -51.2462 N.am      1 UNK        -0.5000 
      5 CA          4.2693  -13.5882  -50.1038 C.3       1 UNK         0.1400 
      6 C6          3.0778  -14.5697  -49.9642 C.3       23 UNK        -0.0398 
      7 S7          1.4368  -13.7596  -49.9762 S.3       23 UNK        -0.2404 
      8 C8          0.3601  -15.1015  -49.3827 C.3       23 UNK        -0.0205 
      9 C9          0.4488  -16.3473  -50.2540 C.ar      23 UNK        -0.0193 
     10 C10        -0.0397  -16.3320  -51.5627 C.ar      23 UNK        -0.1150 
     11 C11         0.0529  -17.4691  -52.3734 C.ar      23 UNK        -0.0193 
     12 C12         0.6208  -18.6350  -51.8468 C.ar      23 UNK        -0.1150 
     13 C13         1.1212  -18.6673  -50.5403 C.ar      23 UNK        -0.0193 
     14 C14         1.0401  -17.5107  -49.7569 C.ar      23 UNK        -0.1150 
     15 C15         1.8169  -19.9315  -50.0329 C.3       23 UNK        -0.0205 
     16 S16         1.6912  -20.2103  -48.2301 S.3       23 UNK        -0.2404 
     17 C17        -0.0074  -20.8481  -48.0549 C.3       23 UNK        -0.0398 
     18 CA         -0.0377  -22.1978  -47.2969 C.3       11 UNK         0.1400 
     19 N           0.5137  -22.1189  -45.9408 N.am      11 UNK        -0.5000 
     20 C           0.9019  -23.1844  -45.2296 C.2       10 UNK         0.5000 
     21 O           0.8292  -24.3435  -45.6403 O.2       10 UNK        -0.5000 
     22 CA          1.4367  -22.9054  -43.8167 C.3       10 UNK         0.1400 
     23 CB          2.7889  -22.1767  -43.8757 C.3       10 UNK        -0.1800 
     24 N           0.5104  -22.1384  -42.9827 N.am      10 UNK        -0.5000 
     25 C          -0.6717  -22.5855  -42.5369 C.2       9 UNK         0.5000 
     26 O          -1.1906  -23.6347  -42.9153 O.2       9 UNK        -0.5000 
     27 CA         -1.3927  -21.7204  -41.4907 C.3       9 UNK         0.1400 
     28 CB         -0.5594  -21.5856  -40.2050 C.3       9 UNK        -0.1800 
     29 N          -1.6602  -20.3952  -42.0361 N.am      9 UNK        -0.5000 
     30 C          -2.8747  -19.9231  -42.3468 C.2       8 UNK         0.5000 
     31 O          -3.9236  -20.5050  -42.0686 O.2       8 UNK        -0.5000 
     32 CA         -2.9505  -18.5806  -43.1081 C.3       8 UNK         0.1400 
     33 CB         -3.4533  -17.4643  -42.1795 C.3       8 UNK        -0.1800 
     34 N          -1.6925  -18.1500  -43.7228 N.am      8 UNK        -0.5000 
     35 C          -1.0002  -18.8283  -44.6474 C.2       7 UNK         0.5000 
     36 O          -1.3653  -19.9008  -45.1276 O.2       7 UNK        -0.5000 
     37 CA          0.3734  -18.2548  -45.0377 C.3       7 UNK         0.1400 
     38 CB          0.2220  -17.2323  -46.1694 C.3       7 UNK        -0.1800 
     39 N           1.0872  -17.6409  -43.9151 N.am      7 UNK        -0.5000 
     40 C           1.4313  -18.2654  -42.7782 C.2       6 UNK         0.5000 
     41 O           1.1840  -19.4486  -42.5442 O.2       6 UNK        -0.5000 
     42 CA          2.1216  -17.4113  -41.7051 C.3       6 UNK         0.1400 
     43 CB          3.6122  -17.2270  -42.0269 C.3       6 UNK        -0.1800 
     44 N           1.4691  -16.1082  -41.5828 N.am      6 UNK        -0.5000 
     45 C           0.3383  -15.8999  -40.8926 C.2       5 UNK         0.5000 
     46 O          -0.2159  -16.7648  -40.2141 O.2       5 UNK        -0.5000 
     47 CA         -0.2933  -14.4970  -40.9850 C.3       5 UNK         0.1400 
     48 CB          0.2265  -13.5974  -39.8535 C.3       5 UNK        -0.1800 
     49 N          -0.0544  -13.8367  -42.2695 N.am      5 UNK        -0.5000 
     50 C          -0.5649  -14.2398  -43.4416 C.2       4 UNK         0.5000 
     51 O          -1.3173  -15.2059  -43.5624 O.2       4 UNK        -0.5000 
     52 CA         -0.1137  -13.4631  -44.6947 C.3       4 UNK         0.1400 
     53 CB         -1.0338  -12.2603  -44.9469 C.3       4 UNK        -0.1800 
     54 N           1.2767  -13.0031  -44.6335 N.am      4 UNK        -0.5000 
     55 C           2.3487  -13.7895  -44.4754 C.2       3 UNK         0.5000 
     56 O           2.2753  -15.0131  -44.3452 O.2       3 UNK        -0.5000 
     57 CA          3.7174  -13.0812  -44.4507 C.3       3 UNK         0.1400 
     58 CB          4.8754  -14.0424  -44.1300 C.3       3 UNK        -0.1800 
     59 N           4.0048  -12.4122  -45.7174 N.am      3 UNK        -0.5000 
     60 C           3.5134  -11.2393  -46.1292 C.2       2 UNK         0.5000 
     61 O           2.7062  -10.5785  -45.4734 O.2       2 UNK        -0.5000 
     62 CA          3.9932  -10.7131  -47.4977 C.3       2 UNK         0.1400 
     63 CB          5.4090  -10.1156  -47.3939 C.3       2 UNK        -0.1800 
     64 N           3.9062  -11.6750  -48.6060 N.am      2 UNK        -0.5000 
     65 C           4.5503  -12.8398  -48.7829 C.2       1 UNK         0.5000 
     66 O           5.3438  -13.3234  -47.9739 O.2       1 UNK        -0.5000 
     67 C          -1.4549  -22.7958  -47.2781 C.2       11 UNK         0.5000 
     68 O          -1.8278  -23.4790  -48.2291 O.2       11 UNK        -0.5000 
     69 N          -2.2126  -22.5585  -46.1986 N.am      12 UNK        -0.5000 
     70 CA         -3.5324  -23.1447  -45.9708 C.3       12 UNK         0.1400 
     71 CB         -4.1842  -22.4922  -44.7456 C.3       12 UNK        -0.1800 
     72 C          -3.4729  -24.6758  -45.8263 C.2       12 UNK         0.5000 
     73 O          -4.2491  -25.3720  -46.4805 O.2       12 UNK        -0.5000 
     74 N          -2.5179  -25.1748  -45.0270 N.am      13 UNK        -0.5000 
     75 CA         -2.2446  -26.6040  -44.8509 C.3       13 UNK         0.1400 
     76 CB         -1.2446  -26.7984  -43.7015 C.3       13 UNK        -0.1800 
     77 C          -1.7305  -27.2817  -46.1354 C.2       13 UNK         0.5000 
     78 O          -2.0818  -28.4324  -46.3979 O.2       13 UNK        -0.5000 
     79 N          -0.9351  -26.5480  -46.9256 N.am      14 UNK        -0.5000 
     80 CA         -0.4295  -26.9777  -48.2316 C.3       14 UNK         0.1400 
     81 CB          0.7755  -26.1001  -48.6052 C.3       14 UNK        -0.1800 
     82 C          -1.4877  -26.9307  -49.3550 C.2       14 UNK         0.5000 
     83 O          -1.2331  -27.4695  -50.4327 O.2       14 UNK        -0.5000 
     84 N          -2.6283  -26.2696  -49.1000 N.am      15 UNK        -0.5000 
     85 CA         -3.7060  -25.9457  -50.0424 C.3       15 UNK         0.1400 
     86 CB         -4.4251  -27.2200  -50.5303 C.3       15 UNK        -0.1800 
     87 C          -3.2280  -25.0324  -51.1935 C.2       15 UNK         0.5000 
     88 O          -3.6641  -25.1845  -52.3346 O.2       15 UNK        -0.5000 
     89 N          -2.3319  -24.0989  -50.8560 N.am      16 UNK        -0.5000 
     90 CA         -1.6998  -23.1410  -51.7589 C.3       16 UNK         0.1400 
     91 CB         -0.1796  -23.2136  -51.5419 C.3       16 UNK        -0.1800 
     92 C          -2.1995  -21.7008  -51.5324 C.2       16 UNK         0.5000 
     93 O          -1.9050  -20.8352  -52.3543 O.2       16 UNK        -0.5000 
     94 N          -2.9121  -21.4596  -50.4216 N.am      17 UNK        -0.5000 
     95 CA         -3.4241  -20.1547  -49.9914 C.3       17 UNK         0.1400 
     96 CB         -3.8791  -20.2693  -48.5243 C.3       17 UNK        -0.1800 
     97 C          -4.5599  -19.5982  -50.8760 C.2       17 UNK         0.5000 
     98 O          -4.9679  -20.2302  -51.8550 O.2       17 UNK        -0.5000 
     99 N          -5.0540  -18.4094  -50.5010 N.am      18 UNK        -0.5000 
    100 CA        -6.1832  -17.7043  -51.1106 C.3       18 UNK         0.1400 
    101 CB        -6.4668  -16.4237  -50.3115 C.3       18 UNK        -0.1800 
    102 C         -7.4444  -18.5801  -51.2064 C.2       18 UNK         0.5000 
    103 O         -7.8786  -19.1331  -50.1946 O.2       18 UNK        -0.5000 
    104 N         -7.9663  -18.7159  -52.4313 N.am      19 UNK        -0.5000 
    105 CA        -9.1039  -19.5381  -52.8612 C.3       19 UNK         0.1400 
    106 CB       -10.3838  -19.2114  -52.0661 C.3       19 UNK        -0.1800 
    107 C         -8.8257  -21.0558  -52.8965 C.2       19 UNK         0.5000 
    108 O         -9.5675  -21.7741  -53.5682 O.2       19 UNK        -0.5000 
    109 N         -7.7651  -21.5262  -52.2249 N.am      20 UNK        -0.5000 
    110 CA        -7.2743  -22.9012  -52.3199 C.3       20 UNK         0.1400 
    111 CB        -6.4415  -23.2470  -51.0757 C.3       20 UNK        -0.1800 
    112 C         -6.4665  -23.1007  -53.6151 C.2       20 UNK         0.5000 
    113 O         -6.6452  -24.1140  -54.2920 O.2       20 UNK        -0.5000 
    114 N         -5.6449  -22.1014  -53.9627 N.am      21 UNK        -0.5000 
    115 CA        -4.9338  -22.0093  -55.2366 C.3       21 UNK         0.1400 
    116 CB        -3.6354  -22.8318  -55.2015 C.3       21 UNK        -0.1800 
    117 C         -4.6377  -20.5496  -55.6109 C.2       21 UNK         0.5000 
    118 O         -4.7344  -20.2041  -56.7893 O.2       21 UNK        -0.5000 
    119 N         -4.2775  -19.7206  -54.6213 N.am      22 UNK        -0.5000 
    120 CA        -3.9949  -18.2897  -54.8025 C.3       22 UNK         0.1400 
    121 C         -5.2784  -17.4501  -55.0647 C.2       22 UNK         0.5000 
    122 N         -5.1541  -16.3091  -55.7268 N.am      22 UNK        -0.7600 
    123 O         -6.3784  -17.7998  -54.6393 O.2       22 UNK        -0.5000 
    124 C124       -3.1651  -17.7217  -53.6175 C.3       23 UNK        -0.0398 
    125 S125       -1.9160  -16.5124  -54.1581 S.3       23 UNK        -0.2404 
    126 C126       -0.3698  -17.4299  -53.8417 C.3       23 UNK        -0.0205 
    127 H127        3.6281  -11.1071  -53.1869 H         1 UNK         0.0600 
    128 H128        5.2709  -11.2569  -53.8170 H         1 UNK         0.0600 
    129 H129        4.8768   -9.9693  -52.6729 H         1 UNK         0.0600 
    130 H130        3.1703  -12.6304  -51.6241 H         1 UNK         0.3000 
    131 H131        5.1564  -14.1932  -50.3039 H         1 UNK         0.0600 
    132 H132        3.1019  -15.2765  -50.7950 H         1 UNK         0.0800 
    133 H133        3.1778  -15.1752  -49.0610 H         1 UNK         0.0800 
    134 H134        0.6187  -15.3280  -48.3480 H         1 UNK         0.0800 
    135 H135       -0.6716  -14.7478  -49.3688 H         1 UNK         0.0800 
    136 H136       -0.4636  -15.4194  -51.9570 H         1 UNK         0.1150 
    137 H137        0.7049  -19.5143  -52.4704 H         1 UNK         0.1150 
    138 H138        1.4563  -17.5065  -48.7612 H         1 UNK         0.1150 
    139 H139        1.4409  -20.8109  -50.5568 H         1 UNK         0.0800 
    140 H140        2.8740  -19.8546  -50.2894 H         1 UNK         0.0800 
    141 H141       -0.4436  -20.9617  -49.0478 H         1 UNK         0.0800 
    142 H142       -0.6104  -20.0940  -47.5520 H         1 UNK         0.0800 
    143 H143        0.5859  -22.8934  -47.8614 H         1 UNK         0.0600 
    144 H144        0.5351  -21.2058  -45.5124 H         1 UNK         0.3000 
    145 H145        1.5970  -23.8707  -43.3318 H         1 UNK         0.0600 
    146 H146        3.2202  -22.0683  -42.8803 H         1 UNK         0.0600 
    147 H147        3.5062  -22.7309  -44.4823 H         1 UNK         0.0600 
    148 H148        2.6944  -21.1792  -44.3069 H         1 UNK         0.0600 
    149 H149        0.8379  -21.2258  -42.6734 H         1 UNK         0.3000 
    150 H150       -2.3233  -22.2296  -41.2320 H         1 UNK         0.0600 
    151 H151       -0.3098  -22.5657  -39.7966 H         1 UNK         0.0600 
    152 H152       -1.1133  -21.0451  -39.4374 H         1 UNK         0.0600 
    153 H153        0.3757  -21.0510  -40.3756 H         1 UNK         0.0600 
    154 H154       -0.8479  -19.8554  -42.3101 H         1 UNK         0.3000 
    155 H155       -3.6777  -18.7117  -43.9118 H         1 UNK         0.0600 
    156 H156       -2.7415  -17.2590  -41.3793 H         1 UNK         0.0600 
    157 H157       -3.6165  -16.5372  -42.7292 H         1 UNK         0.0600 
    158 H158       -4.4022  -17.7353  -41.7149 H         1 UNK         0.0600 
    159 H159       -1.3416  -17.2424  -43.4348 H         1 UNK         0.3000 
    160 H160        0.9898  -19.0788  -45.4007 H         1 UNK         0.0600 
    161 H161        1.1892  -16.8233  -46.4613 H         1 UNK         0.0600 
    162 H162       -0.4212  -16.4039  -45.8771 H         1 UNK         0.0600 
    163 H163       -0.2255  -17.6913  -47.0512 H         1 UNK         0.0600 
    164 H164        1.3717  -16.6726  -44.0359 H         1 UNK         0.3000 
    165 H165        2.0478  -17.9394  -40.7518 H         1 UNK         0.0600 
    166 H166        4.1044  -16.6049  -41.2792 H         1 UNK         0.0600 
    167 H167        4.1258  -18.1891  -42.0392 H         1 UNK         0.0600 
    168 H168        3.7654  -16.7660  -43.0024 H         1 UNK         0.0600 
    169 H169        1.8302  -15.3657  -42.1655 H         1 UNK         0.3000 
    170 H170       -1.3722  -14.6135  -40.8612 H         1 UNK         0.0600 
    171 H171        1.3003  -13.4251  -39.9366 H         1 UNK         0.0600 
    172 H172       -0.2717  -12.6277  -39.8598 H         1 UNK         0.0600 
    173 H173        0.0410  -14.0502  -38.8785 H         1 UNK         0.0600 
    174 H174        0.5567  -13.0333  -42.2637 H         1 UNK         0.3000 
    175 H175       -0.1963  -14.1347  -45.5501 H         1 UNK         0.0600 
    176 H176       -0.7787  -11.7583  -45.8805 H         1 UNK         0.0600 
    177 H177       -0.9677  -11.5269  -44.1424 H         1 UNK         0.0600 
    178 H178       -2.0759  -12.5743  -45.0218 H         1 UNK         0.0600 
    179 H179        1.4410  -12.0112  -44.7710 H         1 UNK         0.3000 
    180 H180        3.6812  -12.3308  -43.6583 H         1 UNK         0.0600 
    181 H181        4.9614  -14.8336  -44.8761 H         1 UNK         0.0600 
    182 H182        4.7322  -14.5159  -43.1583 H         1 UNK         0.0600 
    183 H183        5.8277  -13.5133  -44.0929 H         1 UNK         0.0600 
    184 H184        4.6253  -12.8993  -46.3606 H         1 UNK         0.3000 
    185 H185        3.3189   -9.8986  -47.7671 H         1 UNK         0.0600 
    186 H186        6.1519  -10.8674  -47.1259 H         1 UNK         0.0600 
    187 H187        5.7156   -9.6650  -48.3380 H         1 UNK         0.0600 
    188 H188        5.4472   -9.3349  -46.6332 H         1 UNK         0.0600 
    189 H189        3.2600  -11.4117  -49.3368 H         1 UNK         0.3000 
    190 H190       -1.8576  -21.9235  -45.4929 H         1 UNK         0.3000 
    191 H191       -4.1520  -22.9194  -46.8409 H         1 UNK         0.0600 
    192 H192       -4.2711  -21.4131  -44.8749 H         1 UNK         0.0600 
    193 H193       -5.1893  -22.8829  -44.5830 H         1 UNK         0.0600 
    194 H194       -3.6106  -22.6759  -43.8373 H         1 UNK         0.0600 
    195 H195       -1.9404  -24.5370  -44.4861 H         1 UNK         0.3000 
    196 H196       -3.1810  -27.0920  -44.5726 H         1 UNK         0.0600 
    197 H197       -1.0236  -27.8554  -43.5479 H         1 UNK         0.0600 
    198 H198       -1.6430  -26.4105  -42.7639 H         1 UNK         0.0600 
    199 H199       -0.3006  -26.2891  -43.8997 H         1 UNK         0.0600 
    200 H200       -0.6407  -25.6341  -46.6011 H         1 UNK         0.3000 
    201 H201       -0.0856  -28.0105  -48.1465 H         1 UNK         0.0600 
    202 H202        1.5405  -26.1235  -47.8287 H         1 UNK         0.0600 
    203 H203        0.4816  -25.0622  -48.7577 H         1 UNK         0.0600 
    204 H204        1.2399  -26.4458  -49.5295 H         1 UNK         0.0600 
    205 H205       -2.7277  -25.8578  -48.1811 H         1 UNK         0.3000 
    206 H206       -4.4303  -25.3595  -49.4751 H         1 UNK         0.0600 
    207 H207       -4.7521  -27.8329  -49.6904 H         1 UNK         0.0600 
    208 H208       -5.3122  -26.9677  -51.1123 H         1 UNK         0.0600 
    209 H209       -3.7834  -27.8323  -51.1641 H         1 UNK         0.0600 
    210 H210       -2.0564  -24.0346  -49.8766 H         1 UNK         0.3000 
    211 H211       -1.9056  -23.4094  -52.7949 H         1 UNK         0.0600 
    212 H212        0.0936  -22.9665  -50.5158 H         1 UNK         0.0600 
    213 H213        0.3457  -22.5214  -52.2013 H         1 UNK         0.0600 
    214 H214        0.1986  -24.2139  -51.7540 H         1 UNK         0.0600 
    215 H215       -3.1119  -22.2417  -49.8160 H         1 UNK         0.3000 
    216 H216       -2.6000  -19.4398  -50.0434 H         1 UNK         0.0600 
    217 H217       -4.2845  -19.3322  -48.1425 H         1 UNK         0.0600 
    218 H218       -3.0457  -20.5210  -47.8735 H         1 UNK         0.0600 
    219 H219       -4.6498  -21.0311  -48.4021 H         1 UNK         0.0600 
    220 H220       -4.6702  -17.9743  -49.6756 H         1 UNK         0.3000 
    221 H221       -5.8883  -17.4075  -52.1147 H         1 UNK         0.0600 
    222 H222       -6.7311  -16.6452  -49.2767 H         1 UNK         0.0600 
    223 H223       -5.6002  -15.7622  -50.3039 H         1 UNK         0.0600 
    224 H224       -7.2957  -15.8664  -50.7499 H         1 UNK         0.0600 
    225 H225       -7.4680  -18.2724  -53.2022 H         1 UNK         0.3000 
    226 H226       -9.2854  -19.2465  -53.8968 H         1 UNK         0.0600 
    227 H227      -10.5860  -18.1403  -52.0643 H         1 UNK         0.0600 
    228 H228      -11.2501  -19.7042  -52.5088 H         1 UNK         0.0600 
    229 H229      -10.3197  -19.5451  -51.0303 H         1 UNK         0.0600 
    230 H230       -7.1956  -20.8733  -51.7030 H         1 UNK         0.3000 
    231 H231       -8.1305  -23.5788  -52.3448 H         1 UNK         0.0600 
    232 H232       -5.5103  -22.6832  -51.0353 H         1 UNK         0.0600 
    233 H233       -6.1843  -24.3061  -51.0748 H         1 UNK         0.0600 
    234 H234       -6.9961  -23.0471  -50.1588 H         1 UNK         0.0600 
    235 H235       -5.5570  -21.3120  -53.3298 H         1 UNK         0.3000 
    236 H236       -5.5785  -22.4156  -56.0191 H         1 UNK         0.0600 
    237 H237       -3.8141  -23.8581  -54.8804 H         1 UNK         0.0600 
    238 H238       -3.1782  -22.8740  -56.1906 H         1 UNK         0.0600 
    239 H239       -2.9061  -22.3858  -54.5275 H         1 UNK         0.0600 
    240 H240       -4.2396  -20.0603  -53.6668 H         1 UNK         0.3000 
    241 H241       -3.3847  -18.2235  -55.7059 H         1 UNK         0.0600 
    242 H242       -4.2568  -15.9877  -56.0567 H         1 UNK         0.3800 
    243 H243       -5.9743  -15.7476  -55.8948 H         1 UNK         0.3800 
    244 H244       -3.7917  -17.2445  -52.8660 H         1 UNK         0.0800 
    245 H245       -2.6490  -18.5221  -53.0898 H         1 UNK         0.0800 
    246 H246       -0.4708  -18.4405  -54.2417 H         1 UNK         0.0800 
    247 H247        0.4317  -16.9556  -54.4091 H         1 UNK         0.0800 
@<TRIPOS>BOND
     1    1    2 1    
     2    1  127 1    
     3    1  128 1    
     4    1  129 1    
     5    2    3 2    
     6    2    4 am   BACKBONE|DICT|INTERRES
     7    4    5 1    
     8    4  130 1    
     9    5    6 1    
    10    5   65 1    
    11    5  131 1    
    12    6    7 1    
    13    6  132 1    
    14    6  133 1    
    15    7    8 1    
    16    8    9 1    
    17    8  134 1    
    18    8  135 1    
    19    9   10 ar   
    20    9   14 ar   
    21   10   11 ar   
    22   10  136 1    
    23   11   12 ar   
    24   11  126 1    
    25   12   13 ar   
    26   12  137 1    
    27   13   14 ar   
    28   13   15 1    
    29   14  138 1    
    30   15   16 1    
    31   15  139 1    
    32   15  140 1    
    33   16   17 1    
    34   17   18 1    
    35   17  141 1    
    36   17  142 1    
    37   18   19 1    
    38   18   67 1    
    39   18  143 1    
    40   19   20 am   BACKBONE|DICT|INTERRES
    41   19  144 1    
    42   20   21 2    
    43   20   22 1    
    44   22   23 1    
    45   22   24 1    
    46   22  145 1    
    47   23  146 1    
    48   23  147 1    
    49   23  148 1    
    50   24   25 am   BACKBONE|DICT|INTERRES
    51   24  149 1    
    52   25   26 2    
    53   25   27 1    
    54   27   28 1    
    55   27   29 1    
    56   27  150 1    
    57   28  151 1    
    58   28  152 1    
    59   28  153 1    
    60   29   30 am   BACKBONE|DICT|INTERRES
    61   29  154 1    
    62   30   31 2    
    63   30   32 1    
    64   32   33 1    
    65   32   34 1    
    66   32  155 1    
    67   33  156 1    
    68   33  157 1    
    69   33  158 1    
    70   34   35 am   BACKBONE|DICT|INTERRES
    71   34  159 1    
    72   35   36 2    
    73   35   37 1    
    74   37   38 1    
    75   37   39 1    
    76   37  160 1    
    77   38  161 1    
    78   38  162 1    
    79   38  163 1    
    80   39   40 am   BACKBONE|DICT|INTERRES
    81   39  164 1    
    82   40   41 2    
    83   40   42 1    
    84   42   43 1    
    85   42   44 1    
    86   42  165 1    
    87   43  166 1    
    88   43  167 1    
    89   43  168 1    
    90   44   45 am   BACKBONE|DICT|INTERRES
    91   44  169 1    
    92   45   46 2    
    93   45   47 1    
    94   47   48 1    
    95   47   49 1    
    96   47  170 1    
    97   48  171 1    
    98   48  172 1    
    99   48  173 1    
   100   49   50 am   BACKBONE|DICT|INTERRES
   101   49  174 1    
   102   50   51 2    
   103   50   52 1    
   104   52   53 1    
   105   52   54 1    
   106   52  175 1    
   107   53  176 1    
   108   53  177 1    
   109   53  178 1    
   110   54   55 am   BACKBONE|DICT|INTERRES
   111   54  179 1    
   112   55   56 2    
   113   55   57 1    
   114   57   58 1    
   115   57   59 1    
   116   57  180 1    
   117   58  181 1    
   118   58  182 1    
   119   58  183 1    
   120   59   60 am   BACKBONE|DICT|INTERRES
   121   59  184 1    
   122   60   61 2    
   123   60   62 1    
   124   62   63 1    
   125   62   64 1    
   126   62  185 1    
   127   63  186 1    
   128   63  187 1    
   129   63  188 1    
   130   64   65 am   BACKBONE|DICT|INTERRES
   131   64  189 1    
   132   65   66 2    
   133   67   68 2    
   134   67   69 am   BACKBONE|DICT|INTERRES
   135   69   70 1    
   136   69  190 1    
   137   70   71 1    
   138   70   72 1    
   139   70  191 1    
   140   71  192 1    
   141   71  193 1    
   142   71  194 1    
   143   72   73 2    
   144   72   74 am   BACKBONE|DICT|INTERRES
   145   74   75 1    
   146   74  195 1    
   147   75   76 1    
   148   75   77 1    
   149   75  196 1    
   150   76  197 1    
   151   76  198 1    
   152   76  199 1    
   153   77   78 2    
   154   77   79 am   BACKBONE|DICT|INTERRES
   155   79   80 1    
   156   79  200 1    
   157   80   81 1    
   158   80   82 1    
   159   80  201 1    
   160   81  202 1    
   161   81  203 1    
   162   81  204 1    
   163   82   83 2    
   164   82   84 am   BACKBONE|DICT|INTERRES
   165   84   85 1    
   166   84  205 1    
   167   85   86 1    
   168   85   87 1    
   169   85  206 1    
   170   86  207 1    
   171   86  208 1    
   172   86  209 1    
   173   87   88 2    
   174   87   89 am   BACKBONE|DICT|INTERRES
   175   89   90 1    
   176   89  210 1    
   177   90   91 1    
   178   90   92 1    
   179   90  211 1    
   180   91  212 1    
   181   91  213 1    
   182   91  214 1    
   183   92   93 2    
   184   92   94 am   BACKBONE|DICT|INTERRES
   185   94   95 1    
   186   94  215 1    
   187   95   96 1    
   188   95   97 1    
   189   95  216 1    
   190   96  217 1    
   191   96  218 1    
   192   96  219 1    
   193   97   98 2    
   194   97   99 am   BACKBONE|DICT|INTERRES
   195   99  100 1    
   196   99  220 1    
   197  100  101 1    
   198  100  102 1    
   199  100  221 1    
   200  101  222 1    
   201  101  223 1    
   202  101  224 1    
   203  102  103 2    
   204  102  104 am   BACKBONE|DICT|INTERRES
   205  104  105 1    
   206  104  225 1    
   207  105  106 1    
   208  105  107 1    
   209  105  226 1    
   210  106  227 1    
   211  106  228 1    
   212  106  229 1    
   213  107  108 2    
   214  107  109 am   BACKBONE|DICT|INTERRES
   215  109  110 1    
   216  109  230 1    
   217  110  111 1    
   218  110  112 1    
   219  110  231 1    
   220  111  232 1    
   221  111  233 1    
   222  111  234 1    
   223  112  113 2    
   224  112  114 am   BACKBONE|DICT|INTERRES
   225  114  115 1    
   226  114  235 1    
   227  115  116 1    
   228  115  117 1    
   229  115  236 1    
   230  116  237 1    
   231  116  238 1    
   232  116  239 1    
   233  117  118 2    
   234  117  119 am   BACKBONE|DICT|INTERRES
   235  119  120 1    
   236  119  240 1    
   237  120  121 1    
   238  120  124 1    
   239  120  241 1    
   240  121  122 am   BACKBONE|DICT|INTERRES
   241  121  123 2    
   242  122  242 1    
   243  122  243 1    
   244  124  125 1    
   245  124  244 1    
   246  124  245 1    
   247  125  126 1    
   248  126  246 1    
   249  126  247 1    
@<TRIPOS>SUBSTRUCTURE
     1 UNK         1 GROUP             0       ****    0 ROOT    
