@<TRIPOS>MOLECULE
3R540
247   249    1
SMALL
USER_CHARGES


@<TRIPOS>ATOM
      1 CA          7.3482  -16.3413  -50.2643 C.3       0 UNK        -0.1800 
      2 C           6.0603  -16.8647  -49.6447 C.2       0 UNK         0.5000 
      3 O           5.9389  -18.0665  -49.4087 O.2       0 UNK        -0.5000 
      4 N           5.1026  -15.9681  -49.3792 N.am      1 UNK        -0.5000 
      5 CA          3.7932  -16.2556  -48.7833 C.3       1 UNK         0.1400 
      6 C6          2.7630  -15.1393  -49.1021 C.3       23 UNK        -0.0398 
      7 S7          2.5279  -14.8747  -50.8955 S.3       23 UNK        -0.2404 
      8 C8          0.7486  -15.2350  -51.1264 C.3       23 UNK        -0.0205 
      9 C9          0.3313  -16.6990  -50.9716 C.ar      23 UNK        -0.0193 
     10 C10        -1.0203  -16.9902  -50.7528 C.ar      23 UNK        -0.1150 
     11 C11        -1.4579  -18.3113  -50.6032 C.ar      23 UNK        -0.0193 
     12 C12        -0.5271  -19.3491  -50.6762 C.ar      23 UNK        -0.1150 
     13 C13         0.8225  -19.0795  -50.9067 C.ar      23 UNK        -0.0193 
     14 C14         1.2426  -17.7578  -51.0721 C.ar      23 UNK        -0.1150 
     15 C15         1.8265  -20.2204  -50.9580 C.3       23 UNK        -0.0205 
     16 S16         3.0500  -20.1386  -49.6096 S.3       23 UNK        -0.2404 
     17 C17         2.0076  -19.9859  -48.1201 C.3       23 UNK        -0.0398 
     18 CA          1.6868  -21.3490  -47.4689 C.3       11 UNK         0.1400 
     19 N           1.6535  -21.2507  -46.0116 N.am      11 UNK        -0.5000 
     20 C           1.6327  -22.2982  -45.1789 C.2       10 UNK         0.5000 
     21 O           1.6930  -23.4719  -45.5465 O.2       10 UNK        -0.5000 
     22 CA          1.4709  -21.9706  -43.6861 C.3       10 UNK         0.1400 
     23 CB          2.8284  -21.6527  -43.0422 C.3       10 UNK        -0.1800 
     24 N           0.5489  -20.8546  -43.4682 N.am      10 UNK        -0.5000 
     25 C          -0.7738  -20.9322  -43.6640 C.2       9 UNK         0.5000 
     26 O          -1.3463  -21.9495  -44.0544 O.2       9 UNK        -0.5000 
     27 CA         -1.5958  -19.6599  -43.3919 C.3       9 UNK         0.1400 
     28 CB         -1.8322  -19.5023  -41.8829 C.3       9 UNK        -0.1800 
     29 N          -1.0235  -18.4217  -43.9300 N.am      9 UNK        -0.5000 
     30 C          -0.6997  -18.2052  -45.2139 C.2       8 UNK         0.5000 
     31 O          -0.7087  -19.0828  -46.0754 O.2       8 UNK        -0.5000 
     32 CA         -0.3095  -16.7645  -45.5966 C.3       8 UNK         0.1400 
     33 CB         -0.3698  -16.5083  -47.1171 C.3       8 UNK        -0.1800 
     34 N          -1.0737  -15.7543  -44.8559 N.am      8 UNK        -0.5000 
     35 C          -2.3850  -15.4864  -44.9487 C.2       7 UNK         0.5000 
     36 O          -3.1674  -16.0960  -45.6782 O.2       7 UNK        -0.5000 
     37 CA         -2.8872  -14.3174  -44.0765 C.3       7 UNK         0.1400 
     38 CB         -4.4250  -14.1838  -44.0453 C.3       7 UNK        -0.1800 
     39 N          -2.3203  -14.3409  -42.7242 N.am      7 UNK        -0.5000 
     40 C          -2.5407  -15.2515  -41.7623 C.2       6 UNK         0.5000 
     41 O          -3.3117  -16.2017  -41.8910 O.2       6 UNK        -0.5000 
     42 CA         -1.7647  -15.0813  -40.4383 C.3       6 UNK         0.1400 
     43 CB         -1.2938  -16.4333  -39.8739 C.3       6 UNK        -0.1800 
     44 N          -0.5945  -14.2222  -40.6129 N.am      6 UNK        -0.5000 
     45 C          -0.4993  -12.9396  -40.2393 C.2       5 UNK         0.5000 
     46 O          -1.3840  -12.3371  -39.6310 O.2       5 UNK        -0.5000 
     47 CA          0.7926  -12.1912  -40.6313 C.3       5 UNK         0.1400 
     48 CB          1.7484  -12.1091  -39.4314 C.3       5 UNK        -0.1800 
     49 N           1.5065  -12.7901  -41.7636 N.am      5 UNK        -0.5000 
     50 C           1.0435  -12.8660  -43.0194 C.2       4 UNK         0.5000 
     51 O          -0.0473  -12.4198  -43.3747 O.2       4 UNK        -0.5000 
     52 CA          1.9181  -13.6304  -44.0317 C.3       4 UNK         0.1400 
     53 CB          2.9474  -12.6778  -44.6588 C.3       4 UNK        -0.1800 
     54 N           2.6126  -14.7945  -43.4664 N.am      4 UNK        -0.5000 
     55 C           2.0402  -15.8196  -42.8169 C.2       3 UNK         0.5000 
     56 O           0.8296  -15.8904  -42.5948 O.2       3 UNK        -0.5000 
     57 CA          2.9871  -16.9407  -42.3453 C.3       3 UNK         0.1400 
     58 CB          2.2422  -18.1432  -41.7317 C.3       3 UNK        -0.1800 
     59 N           3.9164  -17.3531  -43.4035 N.am      3 UNK        -0.5000 
     60 C           3.6241  -17.9749  -44.5553 C.2       2 UNK         0.5000 
     61 O           2.5191  -18.4410  -44.8444 O.2       2 UNK        -0.5000 
     62 CA          4.7955  -18.1219  -45.5460 C.3       2 UNK         0.1400 
     63 CB          5.2595  -19.5854  -45.6082 C.3       2 UNK        -0.1800 
     64 N           4.4873  -17.6659  -46.9038 N.am      2 UNK        -0.5000 
     65 C           3.9444  -16.4947  -47.2643 C.2       1 UNK         0.5000 
     66 O           3.6238  -15.6118  -46.4687 O.2       1 UNK        -0.5000 
     67 C           0.3744  -21.9429  -48.0147 C.2       11 UNK         0.5000 
     68 O           0.4136  -22.8652  -48.8269 O.2       11 UNK        -0.5000 
     69 N          -0.7638  -21.4360  -47.5219 N.am      12 UNK        -0.5000 
     70 CA         -2.1096  -21.8972  -47.8519 C.3       12 UNK         0.1400 
     71 CB         -3.1457  -20.9810  -47.1846 C.3       12 UNK        -0.1800 
     72 C          -2.3515  -23.3648  -47.4659 C.2       12 UNK         0.5000 
     73 O          -2.9679  -24.0904  -48.2439 O.2       12 UNK        -0.5000 
     74 N          -1.8364  -23.7913  -46.3051 N.am      13 UNK        -0.5000 
     75 CA         -1.8845  -25.1814  -45.8494 C.3       13 UNK         0.1400 
     76 CB         -1.3685  -25.2688  -44.4052 C.3       13 UNK        -0.1800 
     77 C          -1.1025  -26.1410  -46.7670 C.2       13 UNK         0.5000 
     78 O          -1.5713  -27.2506  -47.0226 O.2       13 UNK        -0.5000 
     79 N           0.0595  -25.6921  -47.2599 N.am      14 UNK        -0.5000 
     80 CA          0.9096  -26.4453  -48.1804 C.3       14 UNK         0.1400 
     81 CB          2.3251  -25.8467  -48.1662 C.3       14 UNK        -0.1800 
     82 C           0.3464  -26.4819  -49.6135 C.2       14 UNK         0.5000 
     83 O           0.3475  -27.5413  -50.2413 O.2       14 UNK        -0.5000 
     84 N          -0.1155  -25.3261  -50.1068 N.am      15 UNK        -0.5000 
     85 CA         -0.5548  -25.1187  -51.4887 C.3       15 UNK         0.1400 
     86 CB         -0.2314  -23.6701  -51.8881 C.3       15 UNK        -0.1800 
     87 C          -2.0452  -25.4261  -51.7330 C.2       15 UNK         0.5000 
     88 O          -2.5154  -25.2152  -52.8519 O.2       15 UNK        -0.5000 
     89 N          -2.7728  -25.8755  -50.6991 N.am      16 UNK        -0.5000 
     90 CA         -4.2167  -26.1532  -50.6895 C.3       16 UNK         0.1400 
     91 CB         -4.5468  -27.3767  -51.5691 C.3       16 UNK        -0.1800 
     92 C          -5.0404  -24.8994  -51.0546 C.2       16 UNK         0.5000 
     93 O          -5.8570  -24.9221  -51.9769 O.2       16 UNK        -0.5000 
     94 N          -4.7350  -23.8048  -50.3457 N.am      17 UNK        -0.5000 
     95 CA         -5.2376  -22.4341  -50.4911 C.3       17 UNK         0.1400 
     96 CB         -6.7681  -22.3785  -50.3218 C.3       17 UNK        -0.1800 
     97 C          -4.7758  -21.7064  -51.7706 C.2       17 UNK         0.5000 
     98 O          -5.1293  -20.5398  -51.9454 O.2       17 UNK        -0.5000 
     99 N          -3.9920  -22.3804  -52.6291 N.am      18 UNK        -0.5000 
    100 CA        -3.4833  -21.9053  -53.9213 C.3       18 UNK         0.1400 
    101 CB        -2.3275  -20.9058  -53.7110 C.3       18 UNK        -0.1800 
    102 C         -4.6059  -21.3844  -54.8480 C.2       18 UNK         0.5000 
    103 O         -4.4512  -20.3548  -55.5083 O.2       18 UNK        -0.5000 
    104 N         -5.7351  -22.1096  -54.8429 N.am      19 UNK        -0.5000 
    105 CA        -6.9970  -21.7909  -55.5107 C.3       19 UNK         0.1400 
    106 CB        -6.8470  -21.9138  -57.0447 C.3       19 UNK        -0.1800 
    107 C         -7.5682  -20.4398  -55.0267 C.2       19 UNK         0.5000 
    108 O         -7.8329  -20.2855  -53.8330 O.2       19 UNK        -0.5000 
    109 N         -7.7533  -19.4884  -55.9493 N.am      20 UNK        -0.5000 
    110 CA        -8.3552  -18.1762  -55.7077 C.3       20 UNK         0.1400 
    111 CB        -8.6974  -17.5429  -57.0662 C.3       20 UNK        -0.1800 
    112 C         -7.4974  -17.2119  -54.8617 C.2       20 UNK         0.5000 
    113 O         -8.0135  -16.1712  -54.4517 O.2       20 UNK        -0.5000 
    114 N         -6.2174  -17.5418  -54.6315 N.am      21 UNK        -0.5000 
    115 CA        -5.2760  -16.7227  -53.8660 C.3       21 UNK         0.1400 
    116 CB        -3.8607  -17.2953  -54.0082 C.3       21 UNK        -0.1800 
    117 C         -5.6729  -16.5629  -52.3859 C.2       21 UNK         0.5000 
    118 O         -5.7117  -15.4312  -51.9000 O.2       21 UNK        -0.5000 
    119 N         -5.9855  -17.6793  -51.7142 N.am      22 UNK        -0.5000 
    120 CA        -6.4831  -17.7045  -50.3269 C.3       22 UNK         0.1400 
    121 C         -7.8895  -18.3566  -50.1977 C.2       22 UNK         0.5000 
    122 N         -8.4432  -19.0036  -51.2175 N.am      22 UNK        -0.7600 
    123 O         -8.5106  -18.2564  -49.1432 O.2       22 UNK        -0.5000 
    124 C124       -5.4828  -18.3638  -49.3374 C.3       23 UNK        -0.0398 
    125 S125       -3.8388  -17.5677  -49.2857 S.3       23 UNK        -0.2404 
    126 C126       -2.9320  -18.6534  -50.4307 C.3       23 UNK        -0.0205 
    127 H127        7.3141  -15.2629  -50.4216 H         1 UNK         0.0600 
    128 H128        7.5216  -16.8200  -51.2280 H         1 UNK         0.0600 
    129 H129        8.1944  -16.5640  -49.6144 H         1 UNK         0.0600 
    130 H130        5.2714  -14.9954  -49.5918 H         1 UNK         0.3000 
    131 H131        3.4142  -17.1824  -49.2155 H         1 UNK         0.0600 
    132 H132        1.8008  -15.3779  -48.6510 H         1 UNK         0.0800 
    133 H133        3.0749  -14.1899  -48.6632 H         1 UNK         0.0800 
    134 H134        0.1789  -14.6159  -50.4313 H         1 UNK         0.0800 
    135 H135        0.4654  -14.9098  -52.1281 H         1 UNK         0.0800 
    136 H136       -1.7384  -16.1836  -50.7065 H         1 UNK         0.1150 
    137 H137       -0.8547  -20.3729  -50.5638 H         1 UNK         0.1150 
    138 H138        2.2875  -17.5678  -51.2674 H         1 UNK         0.1150 
    139 H139        1.3202  -21.1850  -50.9141 H         1 UNK         0.0800 
    140 H140        2.3504  -20.1933  -51.9142 H         1 UNK         0.0800 
    141 H141        2.5805  -19.3806  -47.4222 H         1 UNK         0.0800 
    142 H142        1.1104  -19.3963  -48.3103 H         1 UNK         0.0800 
    143 H143        2.4885  -22.0503  -47.7116 H         1 UNK         0.0600 
    144 H144        1.5816  -20.3188  -45.6195 H         1 UNK         0.3000 
    145 H145        1.0616  -22.8556  -43.1941 H         1 UNK         0.0600 
    146 H146        2.7267  -21.4925  -41.9688 H         1 UNK         0.0600 
    147 H147        3.5288  -22.4768  -43.1827 H         1 UNK         0.0600 
    148 H148        3.2820  -20.7608  -43.4730 H         1 UNK         0.0600 
    149 H149        0.9525  -19.9665  -43.2092 H         1 UNK         0.3000 
    150 H150       -2.5666  -19.7950  -43.8724 H         1 UNK         0.0600 
    151 H151       -2.2486  -20.4147  -41.4538 H         1 UNK         0.0600 
    152 H152       -2.5404  -18.7016  -41.6762 H         1 UNK         0.0600 
    153 H153       -0.9065  -19.2825  -41.3500 H         1 UNK         0.0600 
    154 H154       -0.9674  -17.6371  -43.2962 H         1 UNK         0.3000 
    155 H155        0.7291  -16.6349  -45.2975 H         1 UNK         0.0600 
    156 H156       -0.1537  -15.4666  -47.3512 H         1 UNK         0.0600 
    157 H157       -1.3498  -16.7470  -47.5313 H         1 UNK         0.0600 
    158 H158        0.3596  -17.1236  -47.6445 H         1 UNK         0.0600 
    159 H159       -0.5478  -15.2674  -44.1417 H         1 UNK         0.3000 
    160 H160       -2.4985  -13.4119  -44.5447 H         1 UNK         0.0600 
    161 H161       -4.9067  -15.0835  -43.6619 H         1 UNK         0.0600 
    162 H162       -4.8192  -14.0082  -45.0468 H         1 UNK         0.0600 
    163 H163       -4.7358  -13.3445  -43.4233 H         1 UNK         0.0600 
    164 H164       -1.6482  -13.6072  -42.5342 H         1 UNK         0.3000 
    165 H165       -2.4562  -14.6389  -39.7189 H         1 UNK         0.0600 
    166 H166       -0.6414  -16.9541  -40.5744 H         1 UNK         0.0600 
    167 H167       -0.7445  -16.3007  -38.9418 H         1 UNK         0.0600 
    168 H168       -2.1387  -17.0885  -39.6592 H         1 UNK         0.0600 
    169 H169        0.1592  -14.6320  -41.1535 H         1 UNK         0.3000 
    170 H170        0.5079  -11.1756  -40.9139 H         1 UNK         0.0600 
    171 H171        1.2623  -11.6392  -38.5753 H         1 UNK         0.0600 
    172 H172        2.0838  -13.0980  -39.1163 H         1 UNK         0.0600 
    173 H173        2.6303  -11.5139  -39.6686 H         1 UNK         0.0600 
    174 H174        2.4094  -13.1952  -41.5640 H         1 UNK         0.3000 
    175 H175        1.2652  -13.9938  -44.8273 H         1 UNK         0.0600 
    176 H176        3.6609  -12.3119  -43.9195 H         1 UNK         0.0600 
    177 H177        3.5104  -13.1666  -45.4532 H         1 UNK         0.0600 
    178 H178        2.4577  -11.8091  -45.1010 H         1 UNK         0.0600 
    179 H179        3.6040  -14.8434  -43.6496 H         1 UNK         0.3000 
    180 H180        3.6010  -16.5060  -41.5553 H         1 UNK         0.0600 
    181 H181        1.4980  -18.5450  -42.4151 H         1 UNK         0.0600 
    182 H182        1.7172  -17.8492  -40.8223 H         1 UNK         0.0600 
    183 H183        2.9311  -18.9441  -41.4648 H         1 UNK         0.0600 
    184 H184        4.8701  -17.0475  -43.2687 H         1 UNK         0.3000 
    185 H185        5.6311  -17.5144  -45.1936 H         1 UNK         0.0600 
    186 H186        6.1350  -19.6955  -46.2485 H         1 UNK         0.0600 
    187 H187        5.5336  -19.9523  -44.6183 H         1 UNK         0.0600 
    188 H188        4.4782  -20.2405  -45.9955 H         1 UNK         0.0600 
    189 H189        4.7951  -18.2726  -47.6558 H         1 UNK         0.3000 
    190 H190       -0.7080  -20.6431  -46.8819 H         1 UNK         0.3000 
    191 H191       -2.2271  -21.8177  -48.9342 H         1 UNK         0.0600 
    192 H192       -3.0263  -19.9480  -47.5110 H         1 UNK         0.0600 
    193 H193       -4.1632  -21.2866  -47.4289 H         1 UNK         0.0600 
    194 H194       -3.0521  -20.9960  -46.0986 H         1 UNK         0.0600 
    195 H195       -1.4034  -23.1185  -45.6801 H         1 UNK         0.3000 
    196 H196       -2.9297  -25.4977  -45.8551 H         1 UNK         0.0600 
    197 H197       -1.3997  -26.2959  -44.0397 H         1 UNK         0.0600 
    198 H198       -1.9786  -24.6661  -43.7323 H         1 UNK         0.0600 
    199 H199       -0.3382  -24.9213  -44.3237 H         1 UNK         0.0600 
    200 H200        0.3808  -24.7704  -46.9913 H         1 UNK         0.3000 
    201 H201        0.9784  -27.4748  -47.8224 H         1 UNK         0.0600 
    202 H202        2.7560  -25.8807  -47.1654 H         1 UNK         0.0600 
    203 H203        2.3290  -24.8066  -48.4940 H         1 UNK         0.0600 
    204 H204        2.9912  -26.4024  -48.8273 H         1 UNK         0.0600 
    205 H205       -0.0406  -24.4877  -49.5329 H         1 UNK         0.3000 
    206 H206        0.0168  -25.7781  -52.1449 H         1 UNK         0.0600 
    207 H207        0.8225  -23.4444  -51.7264 H         1 UNK         0.0600 
    208 H208       -0.4369  -23.5009  -52.9455 H         1 UNK         0.0600 
    209 H209       -0.8216  -22.9538  -51.3150 H         1 UNK         0.0600 
    210 H210       -2.3064  -25.9513  -49.8053 H         1 UNK         0.3000 
    211 H211       -4.4769  -26.4059  -49.6604 H         1 UNK         0.0600 
    212 H212       -4.3425  -27.1891  -52.6236 H         1 UNK         0.0600 
    213 H213       -5.6007  -27.6436  -51.4839 H         1 UNK         0.0600 
    214 H214       -3.9657  -28.2473  -51.2653 H         1 UNK         0.0600 
    215 H215       -4.0386  -23.9263  -49.6095 H         1 UNK         0.3000 
    216 H216       -4.7997  -21.8767  -49.6638 H         1 UNK         0.0600 
    217 H217       -7.0856  -22.8914  -49.4141 H         1 UNK         0.0600 
    218 H218       -7.2880  -22.8311  -51.1664 H         1 UNK         0.0600 
    219 H219       -7.1136  -21.3478  -50.2471 H         1 UNK         0.0600 
    220 H220       -3.7764  -23.3452  -52.4130 H         1 UNK         0.3000 
    221 H221       -3.0674  -22.7776  -54.4274 H         1 UNK         0.0600 
    222 H222       -2.6252  -20.0641  -53.0915 H         1 UNK         0.0600 
    223 H223       -1.4824  -21.3814  -53.2169 H         1 UNK         0.0600 
    224 H224       -1.9620  -20.5097  -54.6589 H         1 UNK         0.0600 
    225 H225       -5.7666  -22.9063  -54.2217 H         1 UNK         0.3000 
    226 H226       -7.7125  -22.5494  -55.1904 H         1 UNK         0.0600 
    227 H227       -7.8036  -21.7670  -57.5477 H         1 UNK         0.0600 
    228 H228       -6.1393  -21.1915  -57.4529 H         1 UNK         0.0600 
    229 H229       -6.4940  -22.9077  -57.3199 H         1 UNK         0.0600 
    230 H230       -7.4789  -19.6871  -56.9004 H         1 UNK         0.3000 
    231 H231       -9.2881  -18.3322  -55.1618 H         1 UNK         0.0600 
    232 H232       -9.1932  -16.5797  -56.9378 H         1 UNK         0.0600 
    233 H233       -9.3728  -18.1779  -57.6398 H         1 UNK         0.0600 
    234 H234       -7.8026  -17.3737  -57.6666 H         1 UNK         0.0600 
    235 H235       -5.8683  -18.4185  -54.9965 H         1 UNK         0.3000 
    236 H236       -5.2725  -15.7247  -54.3095 H         1 UNK         0.0600 
    237 H237       -3.8355  -18.3386  -53.7045 H         1 UNK         0.0600 
    238 H238       -3.1450  -16.7495  -53.3917 H         1 UNK         0.0600 
    239 H239       -3.5146  -17.2422  -55.0404 H         1 UNK         0.0600 
    240 H240       -5.8800  -18.5850  -52.1585 H         1 UNK         0.3000 
    241 H241       -6.6315  -16.6799  -49.9822 H         1 UNK         0.0600 
    242 H242       -9.3604  -19.4003  -51.0935 H         1 UNK         0.3800 
    243 H243       -7.9579  -19.1692  -52.0909 H         1 UNK         0.3800 
    244 H244       -5.3682  -19.4243  -49.5585 H         1 UNK         0.0800 
    245 H245       -5.8808  -18.3194  -48.3222 H         1 UNK         0.0800 
    246 H246       -3.4045  -18.6002  -51.4083 H         1 UNK         0.0800 
    247 H247       -3.0396  -19.6826  -50.0879 H         1 UNK         0.0800 
@<TRIPOS>BOND
     1    1    2 1    
     2    1  127 1    
     3    1  128 1    
     4    1  129 1    
     5    2    3 2    
     6    2    4 am   BACKBONE|DICT|INTERRES
     7    4    5 1    
     8    4  130 1    
     9    5    6 1    
    10    5   65 1    
    11    5  131 1    
    12    6    7 1    
    13    6  132 1    
    14    6  133 1    
    15    7    8 1    
    16    8    9 1    
    17    8  134 1    
    18    8  135 1    
    19    9   10 ar   
    20    9   14 ar   
    21   10   11 ar   
    22   10  136 1    
    23   11   12 ar   
    24   11  126 1    
    25   12   13 ar   
    26   12  137 1    
    27   13   14 ar   
    28   13   15 1    
    29   14  138 1    
    30   15   16 1    
    31   15  139 1    
    32   15  140 1    
    33   16   17 1    
    34   17   18 1    
    35   17  141 1    
    36   17  142 1    
    37   18   19 1    
    38   18   67 1    
    39   18  143 1    
    40   19   20 am   BACKBONE|DICT|INTERRES
    41   19  144 1    
    42   20   21 2    
    43   20   22 1    
    44   22   23 1    
    45   22   24 1    
    46   22  145 1    
    47   23  146 1    
    48   23  147 1    
    49   23  148 1    
    50   24   25 am   BACKBONE|DICT|INTERRES
    51   24  149 1    
    52   25   26 2    
    53   25   27 1    
    54   27   28 1    
    55   27   29 1    
    56   27  150 1    
    57   28  151 1    
    58   28  152 1    
    59   28  153 1    
    60   29   30 am   BACKBONE|DICT|INTERRES
    61   29  154 1    
    62   30   31 2    
    63   30   32 1    
    64   32   33 1    
    65   32   34 1    
    66   32  155 1    
    67   33  156 1    
    68   33  157 1    
    69   33  158 1    
    70   34   35 am   BACKBONE|DICT|INTERRES
    71   34  159 1    
    72   35   36 2    
    73   35   37 1    
    74   37   38 1    
    75   37   39 1    
    76   37  160 1    
    77   38  161 1    
    78   38  162 1    
    79   38  163 1    
    80   39   40 am   BACKBONE|DICT|INTERRES
    81   39  164 1    
    82   40   41 2    
    83   40   42 1    
    84   42   43 1    
    85   42   44 1    
    86   42  165 1    
    87   43  166 1    
    88   43  167 1    
    89   43  168 1    
    90   44   45 am   BACKBONE|DICT|INTERRES
    91   44  169 1    
    92   45   46 2    
    93   45   47 1    
    94   47   48 1    
    95   47   49 1    
    96   47  170 1    
    97   48  171 1    
    98   48  172 1    
    99   48  173 1    
   100   49   50 am   BACKBONE|DICT|INTERRES
   101   49  174 1    
   102   50   51 2    
   103   50   52 1    
   104   52   53 1    
   105   52   54 1    
   106   52  175 1    
   107   53  176 1    
   108   53  177 1    
   109   53  178 1    
   110   54   55 am   BACKBONE|DICT|INTERRES
   111   54  179 1    
   112   55   56 2    
   113   55   57 1    
   114   57   58 1    
   115   57   59 1    
   116   57  180 1    
   117   58  181 1    
   118   58  182 1    
   119   58  183 1    
   120   59   60 am   BACKBONE|DICT|INTERRES
   121   59  184 1    
   122   60   61 2    
   123   60   62 1    
   124   62   63 1    
   125   62   64 1    
   126   62  185 1    
   127   63  186 1    
   128   63  187 1    
   129   63  188 1    
   130   64   65 am   BACKBONE|DICT|INTERRES
   131   64  189 1    
   132   65   66 2    
   133   67   68 2    
   134   67   69 am   BACKBONE|DICT|INTERRES
   135   69   70 1    
   136   69  190 1    
   137   70   71 1    
   138   70   72 1    
   139   70  191 1    
   140   71  192 1    
   141   71  193 1    
   142   71  194 1    
   143   72   73 2    
   144   72   74 am   BACKBONE|DICT|INTERRES
   145   74   75 1    
   146   74  195 1    
   147   75   76 1    
   148   75   77 1    
   149   75  196 1    
   150   76  197 1    
   151   76  198 1    
   152   76  199 1    
   153   77   78 2    
   154   77   79 am   BACKBONE|DICT|INTERRES
   155   79   80 1    
   156   79  200 1    
   157   80   81 1    
   158   80   82 1    
   159   80  201 1    
   160   81  202 1    
   161   81  203 1    
   162   81  204 1    
   163   82   83 2    
   164   82   84 am   BACKBONE|DICT|INTERRES
   165   84   85 1    
   166   84  205 1    
   167   85   86 1    
   168   85   87 1    
   169   85  206 1    
   170   86  207 1    
   171   86  208 1    
   172   86  209 1    
   173   87   88 2    
   174   87   89 am   BACKBONE|DICT|INTERRES
   175   89   90 1    
   176   89  210 1    
   177   90   91 1    
   178   90   92 1    
   179   90  211 1    
   180   91  212 1    
   181   91  213 1    
   182   91  214 1    
   183   92   93 2    
   184   92   94 am   BACKBONE|DICT|INTERRES
   185   94   95 1    
   186   94  215 1    
   187   95   96 1    
   188   95   97 1    
   189   95  216 1    
   190   96  217 1    
   191   96  218 1    
   192   96  219 1    
   193   97   98 2    
   194   97   99 am   BACKBONE|DICT|INTERRES
   195   99  100 1    
   196   99  220 1    
   197  100  101 1    
   198  100  102 1    
   199  100  221 1    
   200  101  222 1    
   201  101  223 1    
   202  101  224 1    
   203  102  103 2    
   204  102  104 am   BACKBONE|DICT|INTERRES
   205  104  105 1    
   206  104  225 1    
   207  105  106 1    
   208  105  107 1    
   209  105  226 1    
   210  106  227 1    
   211  106  228 1    
   212  106  229 1    
   213  107  108 2    
   214  107  109 am   BACKBONE|DICT|INTERRES
   215  109  110 1    
   216  109  230 1    
   217  110  111 1    
   218  110  112 1    
   219  110  231 1    
   220  111  232 1    
   221  111  233 1    
   222  111  234 1    
   223  112  113 2    
   224  112  114 am   BACKBONE|DICT|INTERRES
   225  114  115 1    
   226  114  235 1    
   227  115  116 1    
   228  115  117 1    
   229  115  236 1    
   230  116  237 1    
   231  116  238 1    
   232  116  239 1    
   233  117  118 2    
   234  117  119 am   BACKBONE|DICT|INTERRES
   235  119  120 1    
   236  119  240 1    
   237  120  121 1    
   238  120  124 1    
   239  120  241 1    
   240  121  122 am   BACKBONE|DICT|INTERRES
   241  121  123 2    
   242  122  242 1    
   243  122  243 1    
   244  124  125 1    
   245  124  244 1    
   246  124  245 1    
   247  125  126 1    
   248  126  246 1    
   249  126  247 1    
@<TRIPOS>SUBSTRUCTURE
     1 UNK         1 GROUP             0       ****    0 ROOT    
