@<TRIPOS>MOLECULE
3R540
247   249    1
SMALL
USER_CHARGES


@<TRIPOS>ATOM
      1 CA         -3.8043  -12.6824  -45.8234 C.3       0 UNK        -0.1800 
      2 C          -2.6018  -12.2210  -46.6345 C.2       0 UNK         0.5000 
      3 O          -2.0739  -11.1371  -46.3834 O.2       0 UNK        -0.5000 
      4 N          -2.1809  -13.0319  -47.6126 N.am      1 UNK        -0.5000 
      5 CA         -1.0023  -12.7941  -48.4505 C.3       1 UNK         0.1400 
      6 C6         -1.1394  -13.5007  -49.8256 C.3       23 UNK        -0.0398 
      7 S7         -0.9761  -15.3234  -49.8032 S.3       23 UNK        -0.2404 
      8 C8          0.5277  -15.5119  -50.8110 C.3       23 UNK        -0.0205 
      9 C9          0.8306  -16.9678  -51.1204 C.ar      23 UNK        -0.0193 
     10 C10         0.3967  -17.5332  -52.3221 C.ar      23 UNK        -0.1150 
     11 C11         0.6936  -18.8629  -52.6312 C.ar      23 UNK        -0.0193 
     12 C12         1.4449  -19.6231  -51.7308 C.ar      23 UNK        -0.1150 
     13 C13         1.8882  -19.0715  -50.5241 C.ar      23 UNK        -0.0193 
     14 C14         1.5767  -17.7401  -50.2265 C.ar      23 UNK        -0.1150 
     15 C15         2.7421  -19.9041  -49.5723 C.3       23 UNK        -0.0205 
     16 S16         2.1454  -19.8741  -47.8498 S.3       23 UNK        -0.2404 
     17 C17         0.5515  -20.7482  -47.9848 C.3       23 UNK        -0.0398 
     18 CA          0.4646  -21.9793  -47.0495 C.3       11 UNK         0.1400 
     19 N           0.5236  -21.6273  -45.6282 N.am      11 UNK        -0.5000 
     20 C           0.6759  -22.5109  -44.6315 C.2       10 UNK         0.5000 
     21 O           0.9253  -23.7033  -44.8082 O.2       10 UNK        -0.5000 
     22 CA          0.4667  -21.9927  -43.1955 C.3       10 UNK         0.1400 
     23 CB          1.7744  -21.4405  -42.6088 C.3       10 UNK        -0.1800 
     24 N          -0.5903  -20.9823  -43.1049 N.am      10 UNK        -0.5000 
     25 C          -1.8857  -21.2224  -43.3577 C.2       9 UNK         0.5000 
     26 O          -2.3294  -22.3347  -43.6422 O.2       9 UNK        -0.5000 
     27 CA         -2.8425  -20.0166  -43.3255 C.3       9 UNK         0.1400 
     28 CB         -3.2751  -19.7045  -41.8855 C.3       9 UNK        -0.1800 
     29 N          -2.2692  -18.8190  -43.9398 N.am      9 UNK        -0.5000 
     30 C          -1.9397  -18.7070  -45.2347 C.2       8 UNK         0.5000 
     31 O          -2.1400  -19.5902  -46.0670 O.2       8 UNK        -0.5000 
     32 CA         -1.2127  -17.4164  -45.6599 C.3       8 UNK         0.1400 
     33 CB         -2.2131  -16.2732  -45.8717 C.3       8 UNK        -0.1800 
     34 N          -0.1890  -17.0036  -44.6972 N.am      8 UNK        -0.5000 
     35 C           0.8724  -17.7499  -44.3584 C.2       7 UNK         0.5000 
     36 O           1.1214  -18.8473  -44.8521 O.2       7 UNK        -0.5000 
     37 CA          1.7624  -17.2179  -43.2249 C.3       7 UNK         0.1400 
     38 CB          2.7587  -16.1674  -43.7420 C.3       7 UNK        -0.1800 
     39 N           0.9534  -16.6633  -42.1394 N.am      7 UNK        -0.5000 
     40 C           0.2414  -17.4087  -41.2806 C.2       6 UNK         0.5000 
     41 O           0.2453  -18.6397  -41.2836 O.2       6 UNK        -0.5000 
     42 CA         -0.6530  -16.6579  -40.2742 C.3       6 UNK         0.1400 
     43 CB          0.1496  -16.2725  -39.0228 C.3       6 UNK        -0.1800 
     44 N          -1.2654  -15.4562  -40.8423 N.am      6 UNK        -0.5000 
     45 C          -2.1697  -15.4593  -41.8321 C.2       5 UNK         0.5000 
     46 O          -2.6451  -16.4857  -42.3134 O.2       5 UNK        -0.5000 
     47 CA         -2.5691  -14.0924  -42.4250 C.3       5 UNK         0.1400 
     48 CB         -3.8412  -13.5613  -41.7490 C.3       5 UNK        -0.1800 
     49 N          -1.5148  -13.0753  -42.3442 N.am      5 UNK        -0.5000 
     50 C          -0.2933  -13.1991  -42.8802 C.2       4 UNK         0.5000 
     51 O           0.0725  -14.1920  -43.5134 O.2       4 UNK        -0.5000 
     52 CA          0.7064  -12.0762  -42.5741 C.3       4 UNK         0.1400 
     53 CB          1.0953  -12.1223  -41.0793 C.3       4 UNK        -0.1800 
     54 N           1.8865  -12.2565  -43.4159 N.am      4 UNK        -0.5000 
     55 C           2.9295  -11.4231  -43.5066 C.2       3 UNK         0.5000 
     56 O           2.9944  -10.3390  -42.9253 O.2       3 UNK        -0.5000 
     57 CA          4.1117  -11.8741  -44.3854 C.3       3 UNK         0.1400 
     58 CB          5.1013  -12.7131  -43.5621 C.3       3 UNK        -0.1800 
     59 N           3.7131  -12.6337  -45.5712 N.am      3 UNK        -0.5000 
     60 C           3.0772  -12.1104  -46.6273 C.2       2 UNK         0.5000 
     61 O           2.7344  -10.9277  -46.6959 O.2       2 UNK        -0.5000 
     62 CA          2.8112  -13.0364  -47.8342 C.3       2 UNK         0.1400 
     63 CB          3.1280  -14.5314  -47.5834 C.3       2 UNK        -0.1800 
     64 N           1.4521  -12.8556  -48.3544 N.am      2 UNK        -0.5000 
     65 C           0.3122  -13.1344  -47.7056 C.2       1 UNK         0.5000 
     66 O           0.2785  -13.6424  -46.5833 O.2       1 UNK        -0.5000 
     67 C          -0.7996  -22.8106  -47.3462 C.2       11 UNK         0.5000 
     68 O          -0.6858  -23.9191  -47.8693 O.2       11 UNK        -0.5000 
     69 N          -1.9768  -22.2882  -46.9681 N.am      12 UNK        -0.5000 
     70 CA         -3.2862  -22.8956  -47.2270 C.3       12 UNK         0.1400 
     71 CB         -4.3966  -21.9542  -46.7414 C.3       12 UNK        -0.1800 
     72 C          -3.4643  -24.3044  -46.6309 C.2       12 UNK         0.5000 
     73 O          -4.1879  -25.1151  -47.2092 O.2       12 UNK        -0.5000 
     74 N          -2.7592  -24.5969  -45.5298 N.am      13 UNK        -0.5000 
     75 CA         -2.6685  -25.9174  -44.9030 C.3       13 UNK         0.1400 
     76 CB         -1.8624  -25.7990  -43.6008 C.3       13 UNK        -0.1800 
     77 C          -2.0721  -27.0158  -45.8120 C.2       13 UNK         0.5000 
     78 O          -2.3421  -28.1940  -45.5762 O.2       13 UNK        -0.5000 
     79 N          -1.3056  -26.6298  -46.8444 N.am      14 UNK        -0.5000 
     80 CA         -0.7820  -27.5322  -47.8746 C.3       14 UNK         0.1400 
     81 CB          0.5000  -26.9286  -48.4711 C.3       14 UNK        -0.1800 
     82 C          -1.8071  -27.8404  -48.9881 C.2       14 UNK         0.5000 
     83 O          -1.4961  -28.6271  -49.8834 O.2       14 UNK        -0.5000 
     84 N          -2.9915  -27.2110  -48.9366 N.am      15 UNK        -0.5000 
     85 CA         -4.1562  -27.3346  -49.8224 C.3       15 UNK         0.1400 
     86 CB         -4.6860  -28.7804  -49.8677 C.3       15 UNK        -0.1800 
     87 C          -3.9534  -26.7668  -51.2392 C.2       15 UNK         0.5000 
     88 O          -4.8230  -26.0429  -51.7229 O.2       15 UNK        -0.5000 
     89 N          -2.8247  -27.0908  -51.8810 N.am      16 UNK        -0.5000 
     90 CA         -2.4590  -26.6124  -53.2157 C.3       16 UNK         0.1400 
     91 CB         -1.3020  -27.4636  -53.7598 C.3       16 UNK        -0.1800 
     92 C          -2.0844  -25.1198  -53.2177 C.2       16 UNK         0.5000 
     93 O          -2.4800  -24.3841  -54.1220 O.2       16 UNK        -0.5000 
     94 N          -1.3570  -24.6908  -52.1796 N.am      17 UNK        -0.5000 
     95 CA         -0.9112  -23.3157  -51.9613 C.3       17 UNK         0.1400 
     96 CB          0.4142  -23.3573  -51.1819 C.3       17 UNK        -0.1800 
     97 C          -2.0033  -22.4786  -51.2633 C.2       17 UNK         0.5000 
     98 O          -1.7570  -21.8785  -50.2187 O.2       17 UNK        -0.5000 
     99 N          -3.2069  -22.4704  -51.8472 N.am      18 UNK        -0.5000 
    100 CA        -4.4402  -21.8760  -51.3285 C.3       18 UNK         0.1400 
    101 CB        -5.6204  -22.4466  -52.1357 C.3       18 UNK        -0.1800 
    102 C         -4.4610  -20.3292  -51.2731 C.2       18 UNK         0.5000 
    103 O         -5.3833  -19.7168  -51.8101 O.2       18 UNK        -0.5000 
    104 N         -3.4683  -19.7269  -50.6038 N.am      19 UNK        -0.5000 
    105 CA        -3.3798  -18.3211  -50.1835 C.3       19 UNK         0.1400 
    106 CB        -4.2329  -18.1139  -48.9168 C.3       19 UNK        -0.1800 
    107 C         -3.7146  -17.2998  -51.2936 C.2       19 UNK         0.5000 
    108 O         -4.6367  -16.4957  -51.1467 O.2       19 UNK        -0.5000 
    109 N         -2.9673  -17.3901  -52.4004 N.am      20 UNK        -0.5000 
    110 CA        -3.0530  -16.5767  -53.6208 C.3       20 UNK         0.1400 
    111 CB        -2.9639  -15.0647  -53.3266 C.3       20 UNK        -0.1800 
    112 C         -4.2246  -16.9359  -54.5578 C.2       20 UNK         0.5000 
    113 O         -4.3184  -16.3550  -55.6394 O.2       20 UNK        -0.5000 
    114 N         -5.0361  -17.9374  -54.1929 N.am      21 UNK        -0.5000 
    115 CA        -5.9727  -18.6332  -55.0809 C.3       21 UNK         0.1400 
    116 CB        -7.3521  -18.7217  -54.4045 C.3       21 UNK        -0.1800 
    117 C         -5.4032  -20.0203  -55.4515 C.2       21 UNK         0.5000 
    118 O         -6.1594  -20.9707  -55.6552 O.2       21 UNK        -0.5000 
    119 N         -4.0681  -20.1030  -55.5174 N.am      22 UNK        -0.5000 
    120 CA        -3.2025  -21.2832  -55.6962 C.3       22 UNK         0.1400 
    121 C         -3.3519  -22.0552  -57.0479 C.2       22 UNK         0.5000 
    122 N         -4.5059  -22.0351  -57.6981 N.am      22 UNK        -0.7600 
    123 O         -2.4090  -22.6820  -57.5242 O.2       22 UNK        -0.5000 
    124 C124       -1.7197  -20.9150  -55.3983 C.3       23 UNK        -0.0398 
    125 S125       -1.4917  -20.0662  -53.7971 S.3       23 UNK        -0.2404 
    126 C126        0.2183  -19.4723  -53.9419 C.3       23 UNK        -0.0205 
    127 H127       -4.7085  -12.1914  -46.1826 H         1 UNK         0.0600 
    128 H128       -3.6720  -12.4221  -44.7737 H         1 UNK         0.0600 
    129 H129       -3.9477  -13.7608  -45.8919 H         1 UNK         0.0600 
    130 H130       -2.6346  -13.9223  -47.7536 H         1 UNK         0.3000 
    131 H131       -0.9630  -11.7219  -48.6552 H         1 UNK         0.0600 
    132 H132       -2.1115  -13.2634  -50.2604 H         1 UNK         0.0800 
    133 H133       -0.4158  -13.0793  -50.5243 H         1 UNK         0.0800 
    134 H134        0.4106  -14.9582  -51.7439 H         1 UNK         0.0800 
    135 H135        1.3729  -15.0603  -50.2915 H         1 UNK         0.0800 
    136 H136       -0.1635  -16.9318  -53.0220 H         1 UNK         0.1150 
    137 H137        1.6996  -20.6413  -51.9836 H         1 UNK         0.1150 
    138 H138        1.9229  -17.3018  -49.3010 H         1 UNK         0.1150 
    139 H139        2.8022  -20.9412  -49.9060 H         1 UNK         0.0800 
    140 H140        3.7608  -19.5153  -49.5940 H         1 UNK         0.0800 
    141 H141       -0.2458  -20.0356  -47.7750 H         1 UNK         0.0800 
    142 H142        0.4102  -21.0524  -49.0212 H         1 UNK         0.0800 
    143 H143        1.3236  -22.6183  -47.2659 H         1 UNK         0.0600 
    144 H144        0.4131  -20.6448  -45.3965 H         1 UNK         0.3000 
    145 H145        0.1598  -22.8434  -42.5834 H         1 UNK         0.0600 
    146 H146        1.6390  -21.1195  -41.5758 H         1 UNK         0.0600 
    147 H147        2.5540  -22.2031  -42.6131 H         1 UNK         0.0600 
    148 H148        2.1480  -20.5899  -43.1777 H         1 UNK         0.0600 
    149 H149       -0.3052  -20.0462  -42.8426 H         1 UNK         0.3000 
    150 H150       -3.7349  -20.2848  -43.8936 H         1 UNK         0.0600 
    151 H151       -3.7199  -20.5809  -41.4125 H         1 UNK         0.0600 
    152 H152       -4.0203  -18.9092  -41.8620 H         1 UNK         0.0600 
    153 H153       -2.4318  -19.3908  -41.2701 H         1 UNK         0.0600 
    154 H154       -2.1409  -18.0149  -43.3317 H         1 UNK         0.3000 
    155 H155       -0.7094  -17.6095  -46.6098 H         1 UNK         0.0600 
    156 H156       -1.6992  -15.3450  -46.1143 H         1 UNK         0.0600 
    157 H157       -2.8230  -16.0978  -44.9864 H         1 UNK         0.0600 
    158 H158       -2.8899  -16.4983  -46.6947 H         1 UNK         0.0600 
    159 H159       -0.2932  -16.0890  -44.2706 H         1 UNK         0.3000 
    160 H160        2.3394  -18.0557  -42.8276 H         1 UNK         0.0600 
    161 H161        2.2588  -15.3285  -44.2245 H         1 UNK         0.0600 
    162 H162        3.4324  -16.6069  -44.4785 H         1 UNK         0.0600 
    163 H163        3.3728  -15.7750  -42.9318 H         1 UNK         0.0600 
    164 H164        0.8229  -15.6606  -42.1457 H         1 UNK         0.3000 
    165 H165       -1.4542  -17.3356  -39.9716 H         1 UNK         0.0600 
    166 H166        0.9523  -15.5723  -39.2578 H         1 UNK         0.0600 
    167 H167       -0.4901  -15.8105  -38.2706 H         1 UNK         0.0600 
    168 H168        0.6044  -17.1521  -38.5652 H         1 UNK         0.0600 
    169 H169       -0.9337  -14.5679  -40.4980 H         1 UNK         0.3000 
    170 H170       -2.7851  -14.2541  -43.4816 H         1 UNK         0.0600 
    171 H171       -4.6530  -14.2864  -41.8210 H         1 UNK         0.0600 
    172 H172       -3.6780  -13.3547  -40.6906 H         1 UNK         0.0600 
    173 H173       -4.1865  -12.6419  -42.2221 H         1 UNK         0.0600 
    174 H174       -1.7378  -12.2400  -41.8222 H         1 UNK         0.3000 
    175 H175        0.2406  -11.1187  -42.8146 H         1 UNK         0.0600 
    176 H176        1.7617  -11.3043  -40.8076 H         1 UNK         0.0600 
    177 H177        0.2198  -12.0348  -40.4352 H         1 UNK         0.0600 
    178 H178        1.5971  -13.0571  -40.8258 H         1 UNK         0.0600 
    179 H179        1.8642  -13.1020  -43.9736 H         1 UNK         0.3000 
    180 H180        4.6323  -10.9745  -44.7212 H         1 UNK         0.0600 
    181 H181        5.9850  -12.9692  -44.1469 H         1 UNK         0.0600 
    182 H182        5.4426  -12.1632  -42.6840 H         1 UNK         0.0600 
    183 H183        4.6490  -13.6412  -43.2113 H         1 UNK         0.0600 
    184 H184        3.9638  -13.6110  -45.5920 H         1 UNK         0.3000 
    185 H185        3.4826  -12.6936  -48.6226 H         1 UNK         0.0600 
    186 H186        2.9276  -15.1269  -48.4730 H         1 UNK         0.0600 
    187 H187        4.1809  -14.6776  -47.3403 H         1 UNK         0.0600 
    188 H188        2.5375  -14.9515  -46.7687 H         1 UNK         0.0600 
    189 H189        1.3974  -12.3954  -49.2515 H         1 UNK         0.3000 
    190 H190       -1.9889  -21.3613  -46.5475 H         1 UNK         0.3000 
    191 H191       -3.3807  -22.9980  -48.3090 H         1 UNK         0.0600 
    192 H192       -5.3827  -22.3666  -46.9587 H         1 UNK         0.0600 
    193 H193       -4.3347  -20.9846  -47.2348 H         1 UNK         0.0600 
    194 H194       -4.3380  -21.7900  -45.6657 H         1 UNK         0.0600 
    195 H195       -2.2470  -23.8453  -45.0806 H         1 UNK         0.3000 
    196 H196       -3.6838  -26.2266  -44.6475 H         1 UNK         0.0600 
    197 H197       -1.8148  -26.7567  -43.0810 H         1 UNK         0.0600 
    198 H198       -2.3174  -25.0815  -42.9177 H         1 UNK         0.0600 
    199 H199       -0.8384  -25.4779  -43.7914 H         1 UNK         0.0600 
    200 H200       -1.1298  -25.6391  -46.9904 H         1 UNK         0.3000 
    201 H201       -0.5155  -28.4827  -47.4080 H         1 UNK         0.0600 
    202 H202        1.2134  -26.6611  -47.6914 H         1 UNK         0.0600 
    203 H203        0.2905  -26.0340  -49.0566 H         1 UNK         0.0600 
    204 H204        0.9943  -27.6403  -49.1333 H         1 UNK         0.0600 
    205 H205       -3.1316  -26.5518  -48.1780 H         1 UNK         0.3000 
    206 H206       -4.9330  -26.7253  -49.3575 H         1 UNK         0.0600 
    207 H207       -4.8920  -29.1555  -48.8652 H         1 UNK         0.0600 
    208 H208       -5.6175  -28.8336  -50.4324 H         1 UNK         0.0600 
    209 H209       -3.9804  -29.4621  -50.3431 H         1 UNK         0.0600 
    210 H210       -2.1749  -27.7100  -51.4039 H         1 UNK         0.3000 
    211 H211       -3.3185  -26.7424  -53.8768 H         1 UNK         0.0600 
    212 H212       -0.4186  -27.3993  -53.1232 H         1 UNK         0.0600 
    213 H213       -1.0126  -27.1360  -54.7592 H         1 UNK         0.0600 
    214 H214       -1.5864  -28.5135  -53.8320 H         1 UNK         0.0600 
    215 H215       -1.1237  -25.3554  -51.4574 H         1 UNK         0.3000 
    216 H216       -0.7102  -22.8429  -52.9243 H         1 UNK         0.0600 
    217 H217        0.7623  -22.3569  -50.9359 H         1 UNK         0.0600 
    218 H218        1.1981  -23.8388  -51.7665 H         1 UNK         0.0600 
    219 H219        0.3144  -23.9045  -50.2464 H         1 UNK         0.0600 
    220 H220       -3.2947  -22.9864  -52.7140 H         1 UNK         0.3000 
    221 H221       -4.5594  -22.2172  -50.2988 H         1 UNK         0.0600 
    222 H222       -5.5564  -22.1703  -53.1884 H         1 UNK         0.0600 
    223 H223       -5.6506  -23.5340  -52.0780 H         1 UNK         0.0600 
    224 H224       -6.5750  -22.0805  -51.7558 H         1 UNK         0.0600 
    225 H225       -2.7256  -20.3378  -50.2680 H         1 UNK         0.3000 
    226 H226       -2.3380  -18.1455  -49.9100 H         1 UNK         0.0600 
    227 H227       -3.8797  -18.7409  -48.0988 H         1 UNK         0.0600 
    228 H228       -4.1846  -17.0795  -48.5760 H         1 UNK         0.0600 
    229 H229       -5.2822  -18.3512  -49.0951 H         1 UNK         0.0600 
    230 H230       -2.2774  -18.1303  -52.4299 H         1 UNK         0.3000 
    231 H231       -2.1601  -16.8350  -54.1908 H         1 UNK         0.0600 
    232 H232       -2.8403  -14.4959  -54.2487 H         1 UNK         0.0600 
    233 H233       -2.1096  -14.8359  -52.6901 H         1 UNK         0.0600 
    234 H234       -3.8612  -14.6884  -52.8358 H         1 UNK         0.0600 
    235 H235       -4.9133  -18.3644  -53.2795 H         1 UNK         0.3000 
    236 H236       -6.0966  -18.0831  -56.0154 H         1 UNK         0.0600 
    237 H237       -7.3290  -19.3507  -53.5148 H         1 UNK         0.0600 
    238 H238       -7.7094  -17.7354  -54.1085 H         1 UNK         0.0600 
    239 H239       -8.0932  -19.1445  -55.0837 H         1 UNK         0.0600 
    240 H240       -3.5621  -19.2482  -55.3470 H         1 UNK         0.3000 
    241 H241       -3.5116  -21.9993  -54.9342 H         1 UNK         0.0600 
    242 H242       -5.3098  -21.6050  -57.2524 H         1 UNK         0.3800 
    243 H243       -4.6071  -22.5306  -58.5697 H         1 UNK         0.3800 
    244 H244       -1.3247  -20.2775  -56.1911 H         1 UNK         0.0800 
    245 H245       -1.1008  -21.8140  -55.3867 H         1 UNK         0.0800 
    246 H246        0.2820  -18.7336  -54.7424 H         1 UNK         0.0800 
    247 H247        0.8673  -20.3006  -54.2306 H         1 UNK         0.0800 
@<TRIPOS>BOND
     1    1    2 1    
     2    1  127 1    
     3    1  128 1    
     4    1  129 1    
     5    2    3 2    
     6    2    4 am   BACKBONE|DICT|INTERRES
     7    4    5 1    
     8    4  130 1    
     9    5    6 1    
    10    5   65 1    
    11    5  131 1    
    12    6    7 1    
    13    6  132 1    
    14    6  133 1    
    15    7    8 1    
    16    8    9 1    
    17    8  134 1    
    18    8  135 1    
    19    9   10 ar   
    20    9   14 ar   
    21   10   11 ar   
    22   10  136 1    
    23   11   12 ar   
    24   11  126 1    
    25   12   13 ar   
    26   12  137 1    
    27   13   14 ar   
    28   13   15 1    
    29   14  138 1    
    30   15   16 1    
    31   15  139 1    
    32   15  140 1    
    33   16   17 1    
    34   17   18 1    
    35   17  141 1    
    36   17  142 1    
    37   18   19 1    
    38   18   67 1    
    39   18  143 1    
    40   19   20 am   BACKBONE|DICT|INTERRES
    41   19  144 1    
    42   20   21 2    
    43   20   22 1    
    44   22   23 1    
    45   22   24 1    
    46   22  145 1    
    47   23  146 1    
    48   23  147 1    
    49   23  148 1    
    50   24   25 am   BACKBONE|DICT|INTERRES
    51   24  149 1    
    52   25   26 2    
    53   25   27 1    
    54   27   28 1    
    55   27   29 1    
    56   27  150 1    
    57   28  151 1    
    58   28  152 1    
    59   28  153 1    
    60   29   30 am   BACKBONE|DICT|INTERRES
    61   29  154 1    
    62   30   31 2    
    63   30   32 1    
    64   32   33 1    
    65   32   34 1    
    66   32  155 1    
    67   33  156 1    
    68   33  157 1    
    69   33  158 1    
    70   34   35 am   BACKBONE|DICT|INTERRES
    71   34  159 1    
    72   35   36 2    
    73   35   37 1    
    74   37   38 1    
    75   37   39 1    
    76   37  160 1    
    77   38  161 1    
    78   38  162 1    
    79   38  163 1    
    80   39   40 am   BACKBONE|DICT|INTERRES
    81   39  164 1    
    82   40   41 2    
    83   40   42 1    
    84   42   43 1    
    85   42   44 1    
    86   42  165 1    
    87   43  166 1    
    88   43  167 1    
    89   43  168 1    
    90   44   45 am   BACKBONE|DICT|INTERRES
    91   44  169 1    
    92   45   46 2    
    93   45   47 1    
    94   47   48 1    
    95   47   49 1    
    96   47  170 1    
    97   48  171 1    
    98   48  172 1    
    99   48  173 1    
   100   49   50 am   BACKBONE|DICT|INTERRES
   101   49  174 1    
   102   50   51 2    
   103   50   52 1    
   104   52   53 1    
   105   52   54 1    
   106   52  175 1    
   107   53  176 1    
   108   53  177 1    
   109   53  178 1    
   110   54   55 am   BACKBONE|DICT|INTERRES
   111   54  179 1    
   112   55   56 2    
   113   55   57 1    
   114   57   58 1    
   115   57   59 1    
   116   57  180 1    
   117   58  181 1    
   118   58  182 1    
   119   58  183 1    
   120   59   60 am   BACKBONE|DICT|INTERRES
   121   59  184 1    
   122   60   61 2    
   123   60   62 1    
   124   62   63 1    
   125   62   64 1    
   126   62  185 1    
   127   63  186 1    
   128   63  187 1    
   129   63  188 1    
   130   64   65 am   BACKBONE|DICT|INTERRES
   131   64  189 1    
   132   65   66 2    
   133   67   68 2    
   134   67   69 am   BACKBONE|DICT|INTERRES
   135   69   70 1    
   136   69  190 1    
   137   70   71 1    
   138   70   72 1    
   139   70  191 1    
   140   71  192 1    
   141   71  193 1    
   142   71  194 1    
   143   72   73 2    
   144   72   74 am   BACKBONE|DICT|INTERRES
   145   74   75 1    
   146   74  195 1    
   147   75   76 1    
   148   75   77 1    
   149   75  196 1    
   150   76  197 1    
   151   76  198 1    
   152   76  199 1    
   153   77   78 2    
   154   77   79 am   BACKBONE|DICT|INTERRES
   155   79   80 1    
   156   79  200 1    
   157   80   81 1    
   158   80   82 1    
   159   80  201 1    
   160   81  202 1    
   161   81  203 1    
   162   81  204 1    
   163   82   83 2    
   164   82   84 am   BACKBONE|DICT|INTERRES
   165   84   85 1    
   166   84  205 1    
   167   85   86 1    
   168   85   87 1    
   169   85  206 1    
   170   86  207 1    
   171   86  208 1    
   172   86  209 1    
   173   87   88 2    
   174   87   89 am   BACKBONE|DICT|INTERRES
   175   89   90 1    
   176   89  210 1    
   177   90   91 1    
   178   90   92 1    
   179   90  211 1    
   180   91  212 1    
   181   91  213 1    
   182   91  214 1    
   183   92   93 2    
   184   92   94 am   BACKBONE|DICT|INTERRES
   185   94   95 1    
   186   94  215 1    
   187   95   96 1    
   188   95   97 1    
   189   95  216 1    
   190   96  217 1    
   191   96  218 1    
   192   96  219 1    
   193   97   98 2    
   194   97   99 am   BACKBONE|DICT|INTERRES
   195   99  100 1    
   196   99  220 1    
   197  100  101 1    
   198  100  102 1    
   199  100  221 1    
   200  101  222 1    
   201  101  223 1    
   202  101  224 1    
   203  102  103 2    
   204  102  104 am   BACKBONE|DICT|INTERRES
   205  104  105 1    
   206  104  225 1    
   207  105  106 1    
   208  105  107 1    
   209  105  226 1    
   210  106  227 1    
   211  106  228 1    
   212  106  229 1    
   213  107  108 2    
   214  107  109 am   BACKBONE|DICT|INTERRES
   215  109  110 1    
   216  109  230 1    
   217  110  111 1    
   218  110  112 1    
   219  110  231 1    
   220  111  232 1    
   221  111  233 1    
   222  111  234 1    
   223  112  113 2    
   224  112  114 am   BACKBONE|DICT|INTERRES
   225  114  115 1    
   226  114  235 1    
   227  115  116 1    
   228  115  117 1    
   229  115  236 1    
   230  116  237 1    
   231  116  238 1    
   232  116  239 1    
   233  117  118 2    
   234  117  119 am   BACKBONE|DICT|INTERRES
   235  119  120 1    
   236  119  240 1    
   237  120  121 1    
   238  120  124 1    
   239  120  241 1    
   240  121  122 am   BACKBONE|DICT|INTERRES
   241  121  123 2    
   242  122  242 1    
   243  122  243 1    
   244  124  125 1    
   245  124  244 1    
   246  124  245 1    
   247  125  126 1    
   248  126  246 1    
   249  126  247 1    
@<TRIPOS>SUBSTRUCTURE
     1 UNK         1 GROUP             0       ****    0 ROOT    
