@<TRIPOS>MOLECULE
3R540
247   249    1
SMALL
USER_CHARGES


@<TRIPOS>ATOM
      1 CA         -2.7117  -16.8118  -47.3529 C.3       0 UNK        -0.1800 
      2 C          -1.8067  -15.5905  -47.3930 C.2       0 UNK         0.5000 
      3 O          -2.1591  -14.5630  -46.8118 O.2       0 UNK        -0.5000 
      4 N          -0.6509  -15.6976  -48.0601 N.am      1 UNK        -0.5000 
      5 CA          0.3530  -14.6295  -48.1334 C.3       1 UNK         0.1400 
      6 C6          0.1244  -13.6851  -49.3468 C.3       23 UNK        -0.0398 
      7 S7          0.6398  -14.3512  -50.9732 S.3       23 UNK        -0.2404 
      8 C8         -0.9421  -14.5327  -51.8601 C.3       23 UNK        -0.0205 
      9 C9         -1.7805  -15.7036  -51.3641 C.ar      23 UNK        -0.0193 
     10 C10        -3.1344  -15.5213  -51.0679 C.ar      23 UNK        -0.1150 
     11 C11        -3.9222  -16.5963  -50.6436 C.ar      23 UNK        -0.0193 
     12 C12        -3.3400  -17.8592  -50.4968 C.ar      23 UNK        -0.1150 
     13 C13        -1.9838  -18.0501  -50.7734 C.ar      23 UNK        -0.0193 
     14 C14        -1.2156  -16.9752  -51.2257 C.ar      23 UNK        -0.1150 
     15 C15        -1.3453  -19.4162  -50.6002 C.3       23 UNK        -0.0205 
     16 S16        -0.2626  -19.4783  -49.1384 S.3       23 UNK        -0.2404 
     17 C17         0.4363  -21.1532  -49.3590 C.3       23 UNK        -0.0398 
     18 CA          0.4580  -22.0375  -48.0901 C.3       11 UNK         0.1400 
     19 N           1.3225  -21.4973  -47.0423 N.am      11 UNK        -0.5000 
     20 C           1.8726  -22.2376  -46.0701 C.2       10 UNK         0.5000 
     21 O           1.7352  -23.4567  -45.9759 O.2       10 UNK        -0.5000 
     22 CA          2.6832  -21.4796  -45.0050 C.3       10 UNK         0.1400 
     23 CB          4.1366  -21.2865  -45.4634 C.3       10 UNK        -0.1800 
     24 N           2.1063  -20.1764  -44.6797 N.am      10 UNK        -0.5000 
     25 C           0.9082  -19.9873  -44.1184 C.2       9 UNK         0.5000 
     26 O           0.1278  -20.9004  -43.8375 O.2       9 UNK        -0.5000 
     27 CA          0.4969  -18.5218  -43.9067 C.3       9 UNK         0.1400 
     28 CB         -0.2406  -18.0100  -45.1516 C.3       9 UNK        -0.1800 
     29 N          -0.3439  -18.3353  -42.7240 N.am      9 UNK        -0.5000 
     30 C           0.0578  -18.5640  -41.4631 C.2       8 UNK         0.5000 
     31 O           1.1858  -18.9658  -41.1727 O.2       8 UNK        -0.5000 
     32 CA         -0.9314  -18.2682  -40.3178 C.3       8 UNK         0.1400 
     33 CB         -0.4894  -17.0207  -39.5356 C.3       8 UNK        -0.1800 
     34 N          -2.3054  -18.0746  -40.7754 N.am      8 UNK        -0.5000 
     35 C          -3.1497  -19.0675  -41.0855 C.2       7 UNK         0.5000 
     36 O          -2.8795  -20.2602  -40.9430 O.2       7 UNK        -0.5000 
     37 CA         -4.5278  -18.6709  -41.6567 C.3       7 UNK         0.1400 
     38 CB         -5.6184  -18.8281  -40.5859 C.3       7 UNK        -0.1800 
     39 N          -4.6013  -17.3128  -42.2078 N.am      7 UNK        -0.5000 
     40 C          -3.8761  -16.8552  -43.2370 C.2       6 UNK         0.5000 
     41 O          -3.0176  -17.5315  -43.8002 O.2       6 UNK        -0.5000 
     42 CA         -4.1458  -15.4164  -43.7254 C.3       6 UNK         0.1400 
     43 CB         -5.0461  -14.5875  -42.7814 C.3       6 UNK        -0.1800 
     44 N          -2.9144  -14.6799  -44.0241 N.am      6 UNK        -0.5000 
     45 C          -1.9085  -14.4019  -43.1852 C.2       5 UNK         0.5000 
     46 O          -1.8456  -14.7964  -42.0179 O.2       5 UNK        -0.5000 
     47 CA         -0.8325  -13.4477  -43.7307 C.3       5 UNK         0.1400 
     48 CB         -1.1893  -11.9950  -43.3785 C.3       5 UNK        -0.1800 
     49 N           0.4837  -13.7529  -43.1751 N.am      5 UNK        -0.5000 
     50 C           1.3615  -14.5773  -43.7532 C.2       4 UNK         0.5000 
     51 O           1.1569  -15.1457  -44.8271 O.2       4 UNK        -0.5000 
     52 CA          2.6988  -14.7847  -43.0260 C.3       4 UNK         0.1400 
     53 CB          2.5192  -15.5225  -41.6874 C.3       4 UNK        -0.1800 
     54 N           3.5797  -15.5480  -43.9016 N.am      4 UNK        -0.5000 
     55 C           4.9129  -15.5810  -43.8724 C.2       3 UNK         0.5000 
     56 O           5.5854  -14.9738  -43.0380 O.2       3 UNK        -0.5000 
     57 CA          5.6349  -16.4029  -44.9632 C.3       3 UNK         0.1400 
     58 CB          6.0197  -17.7988  -44.4335 C.3       3 UNK        -0.1800 
     59 N           4.9342  -16.4943  -46.2561 N.am      3 UNK        -0.5000 
     60 C           3.8108  -17.1603  -46.5522 C.2       2 UNK         0.5000 
     61 O           3.1568  -17.8039  -45.7315 O.2       2 UNK        -0.5000 
     62 CA          3.3302  -17.1021  -48.0105 C.3       2 UNK         0.1400 
     63 CB          3.2619  -18.5124  -48.6158 C.3       2 UNK        -0.1800 
     64 N           2.0103  -16.4784  -48.0898 N.am      2 UNK        -0.5000 
     65 C           1.8043  -15.1532  -48.0328 C.2       1 UNK         0.5000 
     66 O           2.7223  -14.3385  -47.9162 O.2       1 UNK        -0.5000 
     67 C          -0.9466  -22.3752  -47.5489 C.2       11 UNK         0.5000 
     68 O          -1.4953  -23.4120  -47.9143 O.2       11 UNK        -0.5000 
     69 N          -1.4815  -21.5476  -46.6366 N.am      12 UNK        -0.5000 
     70 CA         -2.7601  -21.7864  -45.9600 C.3       12 UNK         0.1400 
     71 CB         -3.1813  -20.5477  -45.1568 C.3       12 UNK        -0.1800 
     72 C          -2.7128  -23.0357  -45.0636 C.2       12 UNK         0.5000 
     73 O          -3.6303  -23.8554  -45.1164 O.2       12 UNK        -0.5000 
     74 N          -1.6059  -23.1986  -44.3248 N.am      13 UNK        -0.5000 
     75 CA         -1.2969  -24.3794  -43.5138 C.3       13 UNK         0.1400 
     76 CB         -0.0232  -24.1059  -42.7002 C.3       13 UNK        -0.1800 
     77 C          -1.1470  -25.6771  -44.3369 C.2       13 UNK         0.5000 
     78 O          -1.3841  -26.7616  -43.8048 O.2       13 UNK        -0.5000 
     79 N          -0.7949  -25.5435  -45.6224 N.am      14 UNK        -0.5000 
     80 CA         -0.7022  -26.6258  -46.6032 C.3       14 UNK         0.1400 
     81 CB          0.4452  -26.3083  -47.5782 C.3       14 UNK        -0.1800 
     82 C          -2.0322  -26.8771  -47.3505 C.2       14 UNK         0.5000 
     83 O          -2.0229  -27.5779  -48.3632 O.2       14 UNK        -0.5000 
     84 N          -3.1448  -26.3168  -46.8473 N.am      15 UNK        -0.5000 
     85 CA         -4.5059  -26.3831  -47.3917 C.3       15 UNK         0.1400 
     86 CB         -5.0336  -27.8332  -47.4273 C.3       15 UNK        -0.1800 
     87 C          -4.6152  -25.6533  -48.7442 C.2       15 UNK         0.5000 
     88 O          -5.0489  -26.2315  -49.7424 O.2       15 UNK        -0.5000 
     89 N          -4.1743  -24.3893  -48.7412 N.am      16 UNK        -0.5000 
     90 CA         -4.0727  -23.4293  -49.8469 C.3       16 UNK         0.1400 
     91 CB         -5.4184  -23.2088  -50.5631 C.3       16 UNK        -0.1800 
     92 C          -2.9422  -23.7498  -50.8400 C.2       16 UNK         0.5000 
     93 O          -2.2032  -22.8356  -51.2020 O.2       16 UNK        -0.5000 
     94 N          -2.8090  -25.0267  -51.2306 N.am      17 UNK        -0.5000 
     95 CA         -1.7768  -25.5898  -52.1070 C.3       17 UNK         0.1400 
     96 CB         -0.4413  -25.6913  -51.3360 C.3       17 UNK        -0.1800 
     97 C          -1.6807  -24.8235  -53.4448 C.2       17 UNK         0.5000 
     98 O          -2.6697  -24.7687  -54.1793 O.2       17 UNK        -0.5000 
     99 N          -0.5196  -24.2167  -53.7237 N.am      18 UNK        -0.5000 
    100 CA        -0.3309  -23.2158  -54.7701 C.3       18 UNK         0.1400 
    101 CB         1.1668  -23.1233  -55.1101 C.3       18 UNK        -0.1800 
    102 C         -0.9053  -21.8739  -54.2772 C.2       18 UNK         0.5000 
    103 O         -0.1800  -21.0737  -53.6852 O.2       18 UNK        -0.5000 
    104 N         -2.2164  -21.6916  -54.4807 N.am      19 UNK        -0.5000 
    105 CA        -3.0279  -20.6153  -53.9052 C.3       19 UNK         0.1400 
    106 CB        -4.5109  -20.9511  -54.1213 C.3       19 UNK        -0.1800 
    107 C         -2.7052  -19.1965  -54.4155 C.2       19 UNK         0.5000 
    108 O         -3.1695  -18.2317  -53.8099 O.2       19 UNK        -0.5000 
    109 N         -1.9281  -19.0868  -55.5044 N.am      20 UNK        -0.5000 
    110 CA        -1.3963  -17.8512  -56.0879 C.3       20 UNK         0.1400 
    111 CB        -0.2743  -17.2893  -55.1846 C.3       20 UNK        -0.1800 
    112 C         -2.5140  -16.8358  -56.4062 C.2       20 UNK         0.5000 
    113 O         -3.3468  -17.1121  -57.2719 O.2       20 UNK        -0.5000 
    114 N         -2.5439  -15.7104  -55.6791 N.am      21 UNK        -0.5000 
    115 CA        -3.5599  -14.6588  -55.7689 C.3       21 UNK         0.1400 
    116 CB        -3.1594  -13.5027  -54.8396 C.3       21 UNK        -0.1800 
    117 C         -4.9894  -15.1359  -55.4398 C.2       21 UNK         0.5000 
    118 O         -5.9482  -14.5514  -55.9463 O.2       21 UNK        -0.5000 
    119 N         -5.1045  -16.1894  -54.6231 N.am      22 UNK        -0.5000 
    120 CA        -6.3642  -16.8683  -54.2894 C.3       22 UNK         0.1400 
    121 C         -6.6821  -18.0718  -55.2263 C.2       22 UNK         0.5000 
    122 N         -5.8968  -18.3526  -56.2610 N.am      22 UNK        -0.7600 
    123 O         -7.6800  -18.7587  -55.0262 O.2       22 UNK        -0.5000 
    124 C124       -6.4125  -17.2683  -52.7918 C.3       23 UNK        -0.0398 
    125 S125       -6.3848  -15.8027  -51.7022 S.3       23 UNK        -0.2404 
    126 C126       -5.3891  -16.3854  -50.2933 C.3       23 UNK        -0.0205 
    127 H127       -2.9102  -17.0944  -46.3220 H         1 UNK         0.0600 
    128 H128       -2.2644  -17.6691  -47.8529 H         1 UNK         0.0600 
    129 H129       -3.6666  -16.5890  -47.8254 H         1 UNK         0.0600 
    130 H130       -0.4644  -16.5287  -48.6013 H         1 UNK         0.3000 
    131 H131        0.2456  -14.0147  -47.2371 H         1 UNK         0.0600 
    132 H132       -0.9231  -13.3838  -49.3891 H         1 UNK         0.0800 
    133 H133        0.6818  -12.7605  -49.1897 H         1 UNK         0.0800 
    134 H134       -1.4970  -13.5956  -51.7945 H         1 UNK         0.0800 
    135 H135       -0.7278  -14.6889  -52.9176 H         1 UNK         0.0800 
    136 H136       -3.5834  -14.5439  -51.1732 H         1 UNK         0.1150 
    137 H137       -3.9382  -18.6913  -50.1540 H         1 UNK         0.1150 
    138 H138       -0.1715  -17.1290  -51.4594 H         1 UNK         0.1150 
    139 H139       -2.1103  -20.1887  -50.5112 H         1 UNK         0.0800 
    140 H140       -0.7650  -19.6526  -51.4929 H         1 UNK         0.0800 
    141 H141        1.4532  -21.0378  -49.7361 H         1 UNK         0.0800 
    142 H142       -0.1012  -21.6749  -50.1518 H         1 UNK         0.0800 
    143 H143        0.8941  -22.9896  -48.4017 H         1 UNK         0.0600 
    144 H144        1.4725  -20.5000  -47.0415 H         1 UNK         0.3000 
    145 H145        2.6846  -22.0839  -44.0956 H         1 UNK         0.0600 
    146 H146        4.7399  -20.8337  -44.6767 H         1 UNK         0.0600 
    147 H147        4.5976  -22.2421  -45.7164 H         1 UNK         0.0600 
    148 H148        4.2005  -20.6458  -46.3438 H         1 UNK         0.0600 
    149 H149        2.6448  -19.3544  -44.9499 H         1 UNK         0.3000 
    150 H150        1.3943  -17.9181  -43.7622 H         1 UNK         0.0600 
    151 H151        0.4224  -17.9791  -46.0159 H         1 UNK         0.0600 
    152 H152       -0.6202  -17.0011  -44.9975 H         1 UNK         0.0600 
    153 H153       -1.0874  -18.6422  -45.4110 H         1 UNK         0.0600 
    154 H154       -1.2986  -18.0386  -42.8980 H         1 UNK         0.3000 
    155 H155       -0.9041  -19.1201  -39.6351 H         1 UNK         0.0600 
    156 H156       -0.4668  -16.1347  -40.1702 H         1 UNK         0.0600 
    157 H157        0.5123  -17.1516  -39.1242 H         1 UNK         0.0600 
    158 H158       -1.1593  -16.8193  -38.6997 H         1 UNK         0.0600 
    159 H159       -2.5924  -17.1214  -40.9521 H         1 UNK         0.3000 
    160 H160       -4.7459  -19.3659  -42.4701 H         1 UNK         0.0600 
    161 H161       -5.4692  -18.1352  -39.7568 H         1 UNK         0.0600 
    162 H162       -5.6201  -19.8380  -40.1733 H         1 UNK         0.0600 
    163 H163       -6.6099  -18.6482  -41.0016 H         1 UNK         0.0600 
    164 H164       -5.2758  -16.6931  -41.7834 H         1 UNK         0.3000 
    165 H165       -4.6705  -15.5194  -44.6761 H         1 UNK         0.0600 
    166 H166       -5.1995  -13.5824  -43.1747 H         1 UNK         0.0600 
    167 H167       -6.0337  -15.0376  -42.6745 H         1 UNK         0.0600 
    168 H168       -4.6120  -14.4876  -41.7857 H         1 UNK         0.0600 
    169 H169       -2.8074  -14.3976  -44.9952 H         1 UNK         0.3000 
    170 H170       -0.7996  -13.5299  -44.8185 H         1 UNK         0.0600 
    171 H171       -2.1578  -11.7185  -43.7975 H         1 UNK         0.0600 
    172 H172       -1.2429  -11.8426  -42.2997 H         1 UNK         0.0600 
    173 H173       -0.4522  -11.2995  -43.7802 H         1 UNK         0.0600 
    174 H174        0.6882  -13.3612  -42.2676 H         1 UNK         0.3000 
    175 H175        3.1366  -13.8007  -42.8464 H         1 UNK         0.0600 
    176 H176        2.1265  -16.5259  -41.8401 H         1 UNK         0.0600 
    177 H177        3.4667  -15.6153  -41.1568 H         1 UNK         0.0600 
    178 H178        1.8305  -14.9948  -41.0271 H         1 UNK         0.0600 
    179 H179        3.0954  -16.0599  -44.6334 H         1 UNK         0.3000 
    180 H180        6.5636  -15.8720  -45.1778 H         1 UNK         0.0600 
    181 H181        6.5495  -18.3783  -45.1895 H         1 UNK         0.0600 
    182 H182        5.1467  -18.3717  -44.1201 H         1 UNK         0.0600 
    183 H183        6.6770  -17.7158  -43.5672 H         1 UNK         0.0600 
    184 H184        5.3620  -15.9576  -46.9981 H         1 UNK         0.3000 
    185 H185        4.0370  -16.5175  -48.6034 H         1 UNK         0.0600 
    186 H186        2.9185  -18.4831  -49.6502 H         1 UNK         0.0600 
    187 H187        4.2441  -18.9864  -48.6111 H         1 UNK         0.0600 
    188 H188        2.5860  -19.1577  -48.0568 H         1 UNK         0.0600 
    189 H189        1.2222  -17.1041  -48.1182 H         1 UNK         0.3000 
    190 H190       -0.9574  -20.7359  -46.3495 H         1 UNK         0.3000 
    191 H191       -3.5161  -21.9569  -46.7291 H         1 UNK         0.0600 
    192 H192       -4.1560  -20.6994  -44.6921 H         1 UNK         0.0600 
    193 H193       -3.2641  -19.6696  -45.7972 H         1 UNK         0.0600 
    194 H194       -2.4755  -20.3190  -44.3577 H         1 UNK         0.0600 
    195 H195       -0.9224  -22.4454  -44.3022 H         1 UNK         0.3000 
    196 H196       -2.1238  -24.5276  -42.8164 H         1 UNK         0.0600 
    197 H197        0.8355  -23.9276  -43.3482 H         1 UNK         0.0600 
    198 H198       -0.1448  -23.2320  -42.0595 H         1 UNK         0.0600 
    199 H199        0.2200  -24.9515  -42.0556 H         1 UNK         0.0600 
    200 H200       -0.6212  -24.6126  -45.9770 H         1 UNK         0.3000 
    201 H201       -0.4494  -27.5545  -46.0880 H         1 UNK         0.0600 
    202 H202        0.2302  -25.4259  -48.1801 H         1 UNK         0.0600 
    203 H203        0.6210  -27.1379  -48.2638 H         1 UNK         0.0600 
    204 H204        1.3784  -26.1288  -47.0441 H         1 UNK         0.0600 
    205 H205       -3.0415  -25.7201  -46.0354 H         1 UNK         0.3000 
    206 H206       -5.1370  -25.8290  -46.6953 H         1 UNK         0.0600 
    207 H207       -4.9516  -28.3063  -46.4488 H         1 UNK         0.0600 
    208 H208       -6.0864  -27.8542  -47.7109 H         1 UNK         0.0600 
    209 H209       -4.4936  -28.4508  -48.1452 H         1 UNK         0.0600 
    210 H210       -3.7156  -24.0800  -47.8944 H         1 UNK         0.3000 
    211 H211       -3.8053  -22.4824  -49.3747 H         1 UNK         0.0600 
    212 H212       -5.7360  -24.0895  -51.1215 H         1 UNK         0.0600 
    213 H213       -5.3443  -22.3852  -51.2740 H         1 UNK         0.0600 
    214 H214       -6.2066  -22.9561  -49.8541 H         1 UNK         0.0600 
    215 H215       -3.5008  -25.6819  -50.8813 H         1 UNK         0.3000 
    216 H216       -2.0960  -26.6027  -52.3556 H         1 UNK         0.0600 
    217 H217       -0.0806  -24.7168  -51.0041 H         1 UNK         0.0600 
    218 H218        0.3370  -26.1528  -51.9450 H         1 UNK         0.0600 
    219 H219       -0.5593  -26.3139  -50.4495 H         1 UNK         0.0600 
    220 H220        0.2209  -24.2841  -53.0412 H         1 UNK         0.3000 
    221 H221       -0.8650  -23.5197  -55.6730 H         1 UNK         0.0600 
    222 H222        1.5403  -24.0708  -55.4990 H         1 UNK         0.0600 
    223 H223        1.7675  -22.8605  -54.2383 H         1 UNK         0.0600 
    224 H224        1.3460  -22.3651  -55.8733 H         1 UNK         0.0600 
    225 H225       -2.7291  -22.4371  -54.9319 H         1 UNK         0.3000 
    226 H226       -2.8433  -20.6102  -52.8300 H         1 UNK         0.0600 
    227 H227       -4.7701  -20.9601  -55.1805 H         1 UNK         0.0600 
    228 H228       -4.7596  -21.9275  -53.7052 H         1 UNK         0.0600 
    229 H229       -5.1531  -20.2191  -53.6309 H         1 UNK         0.0600 
    230 H230       -1.6358  -19.9438  -55.9497 H         1 UNK         0.3000 
    231 H231       -0.9476  -18.1226  -57.0444 H         1 UNK         0.0600 
    232 H232       -0.6343  -17.0389  -54.1862 H         1 UNK         0.0600 
    233 H233        0.1723  -16.3929  -55.6168 H         1 UNK         0.0600 
    234 H234        0.5265  -18.0193  -55.0652 H         1 UNK         0.0600 
    235 H235       -1.8446  -15.5965  -54.9611 H         1 UNK         0.3000 
    236 H236       -3.5640  -14.2906  -56.7967 H         1 UNK         0.0600 
    237 H237       -3.1545  -13.8143  -53.7946 H         1 UNK         0.0600 
    238 H238       -2.1682  -13.1201  -55.0838 H         1 UNK         0.0600 
    239 H239       -3.8594  -12.6710  -54.9286 H         1 UNK         0.0600 
    240 H240       -4.2652  -16.6455  -54.2761 H         1 UNK         0.3000 
    241 H241       -7.1883  -16.1717  -54.4531 H         1 UNK         0.0600 
    242 H242       -6.1370  -19.1242  -56.8620 H         1 UNK         0.3800 
    243 H243       -5.0780  -17.7934  -56.4713 H         1 UNK         0.3800 
    244 H244       -5.5798  -17.9300  -52.5504 H         1 UNK         0.0800 
    245 H245       -7.3231  -17.8245  -52.5639 H         1 UNK         0.0800 
    246 H246       -5.4521  -15.6460  -49.4941 H         1 UNK         0.0800 
    247 H247       -5.8333  -17.3004  -49.8982 H         1 UNK         0.0800 
@<TRIPOS>BOND
     1    1    2 1    
     2    1  127 1    
     3    1  128 1    
     4    1  129 1    
     5    2    3 2    
     6    2    4 am   BACKBONE|DICT|INTERRES
     7    4    5 1    
     8    4  130 1    
     9    5    6 1    
    10    5   65 1    
    11    5  131 1    
    12    6    7 1    
    13    6  132 1    
    14    6  133 1    
    15    7    8 1    
    16    8    9 1    
    17    8  134 1    
    18    8  135 1    
    19    9   10 ar   
    20    9   14 ar   
    21   10   11 ar   
    22   10  136 1    
    23   11   12 ar   
    24   11  126 1    
    25   12   13 ar   
    26   12  137 1    
    27   13   14 ar   
    28   13   15 1    
    29   14  138 1    
    30   15   16 1    
    31   15  139 1    
    32   15  140 1    
    33   16   17 1    
    34   17   18 1    
    35   17  141 1    
    36   17  142 1    
    37   18   19 1    
    38   18   67 1    
    39   18  143 1    
    40   19   20 am   BACKBONE|DICT|INTERRES
    41   19  144 1    
    42   20   21 2    
    43   20   22 1    
    44   22   23 1    
    45   22   24 1    
    46   22  145 1    
    47   23  146 1    
    48   23  147 1    
    49   23  148 1    
    50   24   25 am   BACKBONE|DICT|INTERRES
    51   24  149 1    
    52   25   26 2    
    53   25   27 1    
    54   27   28 1    
    55   27   29 1    
    56   27  150 1    
    57   28  151 1    
    58   28  152 1    
    59   28  153 1    
    60   29   30 am   BACKBONE|DICT|INTERRES
    61   29  154 1    
    62   30   31 2    
    63   30   32 1    
    64   32   33 1    
    65   32   34 1    
    66   32  155 1    
    67   33  156 1    
    68   33  157 1    
    69   33  158 1    
    70   34   35 am   BACKBONE|DICT|INTERRES
    71   34  159 1    
    72   35   36 2    
    73   35   37 1    
    74   37   38 1    
    75   37   39 1    
    76   37  160 1    
    77   38  161 1    
    78   38  162 1    
    79   38  163 1    
    80   39   40 am   BACKBONE|DICT|INTERRES
    81   39  164 1    
    82   40   41 2    
    83   40   42 1    
    84   42   43 1    
    85   42   44 1    
    86   42  165 1    
    87   43  166 1    
    88   43  167 1    
    89   43  168 1    
    90   44   45 am   BACKBONE|DICT|INTERRES
    91   44  169 1    
    92   45   46 2    
    93   45   47 1    
    94   47   48 1    
    95   47   49 1    
    96   47  170 1    
    97   48  171 1    
    98   48  172 1    
    99   48  173 1    
   100   49   50 am   BACKBONE|DICT|INTERRES
   101   49  174 1    
   102   50   51 2    
   103   50   52 1    
   104   52   53 1    
   105   52   54 1    
   106   52  175 1    
   107   53  176 1    
   108   53  177 1    
   109   53  178 1    
   110   54   55 am   BACKBONE|DICT|INTERRES
   111   54  179 1    
   112   55   56 2    
   113   55   57 1    
   114   57   58 1    
   115   57   59 1    
   116   57  180 1    
   117   58  181 1    
   118   58  182 1    
   119   58  183 1    
   120   59   60 am   BACKBONE|DICT|INTERRES
   121   59  184 1    
   122   60   61 2    
   123   60   62 1    
   124   62   63 1    
   125   62   64 1    
   126   62  185 1    
   127   63  186 1    
   128   63  187 1    
   129   63  188 1    
   130   64   65 am   BACKBONE|DICT|INTERRES
   131   64  189 1    
   132   65   66 2    
   133   67   68 2    
   134   67   69 am   BACKBONE|DICT|INTERRES
   135   69   70 1    
   136   69  190 1    
   137   70   71 1    
   138   70   72 1    
   139   70  191 1    
   140   71  192 1    
   141   71  193 1    
   142   71  194 1    
   143   72   73 2    
   144   72   74 am   BACKBONE|DICT|INTERRES
   145   74   75 1    
   146   74  195 1    
   147   75   76 1    
   148   75   77 1    
   149   75  196 1    
   150   76  197 1    
   151   76  198 1    
   152   76  199 1    
   153   77   78 2    
   154   77   79 am   BACKBONE|DICT|INTERRES
   155   79   80 1    
   156   79  200 1    
   157   80   81 1    
   158   80   82 1    
   159   80  201 1    
   160   81  202 1    
   161   81  203 1    
   162   81  204 1    
   163   82   83 2    
   164   82   84 am   BACKBONE|DICT|INTERRES
   165   84   85 1    
   166   84  205 1    
   167   85   86 1    
   168   85   87 1    
   169   85  206 1    
   170   86  207 1    
   171   86  208 1    
   172   86  209 1    
   173   87   88 2    
   174   87   89 am   BACKBONE|DICT|INTERRES
   175   89   90 1    
   176   89  210 1    
   177   90   91 1    
   178   90   92 1    
   179   90  211 1    
   180   91  212 1    
   181   91  213 1    
   182   91  214 1    
   183   92   93 2    
   184   92   94 am   BACKBONE|DICT|INTERRES
   185   94   95 1    
   186   94  215 1    
   187   95   96 1    
   188   95   97 1    
   189   95  216 1    
   190   96  217 1    
   191   96  218 1    
   192   96  219 1    
   193   97   98 2    
   194   97   99 am   BACKBONE|DICT|INTERRES
   195   99  100 1    
   196   99  220 1    
   197  100  101 1    
   198  100  102 1    
   199  100  221 1    
   200  101  222 1    
   201  101  223 1    
   202  101  224 1    
   203  102  103 2    
   204  102  104 am   BACKBONE|DICT|INTERRES
   205  104  105 1    
   206  104  225 1    
   207  105  106 1    
   208  105  107 1    
   209  105  226 1    
   210  106  227 1    
   211  106  228 1    
   212  106  229 1    
   213  107  108 2    
   214  107  109 am   BACKBONE|DICT|INTERRES
   215  109  110 1    
   216  109  230 1    
   217  110  111 1    
   218  110  112 1    
   219  110  231 1    
   220  111  232 1    
   221  111  233 1    
   222  111  234 1    
   223  112  113 2    
   224  112  114 am   BACKBONE|DICT|INTERRES
   225  114  115 1    
   226  114  235 1    
   227  115  116 1    
   228  115  117 1    
   229  115  236 1    
   230  116  237 1    
   231  116  238 1    
   232  116  239 1    
   233  117  118 2    
   234  117  119 am   BACKBONE|DICT|INTERRES
   235  119  120 1    
   236  119  240 1    
   237  120  121 1    
   238  120  124 1    
   239  120  241 1    
   240  121  122 am   BACKBONE|DICT|INTERRES
   241  121  123 2    
   242  122  242 1    
   243  122  243 1    
   244  124  125 1    
   245  124  244 1    
   246  124  245 1    
   247  125  126 1    
   248  126  246 1    
   249  126  247 1    
@<TRIPOS>SUBSTRUCTURE
     1 UNK         1 GROUP             0       ****    0 ROOT    
