@<TRIPOS>MOLECULE
3R540
247   249    1
SMALL
USER_CHARGES


@<TRIPOS>ATOM
      1 CA          4.4710  -10.8983  -47.2041 C.3       0 UNK        -0.1800 
      2 C           3.5131  -12.0800  -47.2087 C.2       0 UNK         0.5000 
      3 O           3.4419  -12.8115  -46.2214 O.2       0 UNK        -0.5000 
      4 N           2.7674  -12.2611  -48.3074 N.am      1 UNK        -0.5000 
      5 CA          1.8001  -13.3479  -48.5147 C.3       1 UNK         0.1400 
      6 C6          1.1463  -13.2920  -49.9164 C.3       23 UNK        -0.0398 
      7 S7          2.3448  -13.4093  -51.2902 S.3       23 UNK        -0.2404 
      8 C8          2.5778  -15.2092  -51.4756 C.3       23 UNK        -0.0205 
      9 C9          1.2676  -15.9583  -51.6728 C.ar      23 UNK        -0.0193 
     10 C10         0.5598  -15.8530  -52.8726 C.ar      23 UNK        -0.1150 
     11 C11        -0.6559  -16.5226  -53.0363 C.ar      23 UNK        -0.0193 
     12 C12        -1.1568  -17.3117  -51.9957 C.ar      23 UNK        -0.1150 
     13 C13        -0.4614  -17.4205  -50.7846 C.ar      23 UNK        -0.0193 
     14 C14         0.7538  -16.7459  -50.6398 C.ar      23 UNK        -0.1150 
     15 C15        -0.9543  -18.2534  -49.6038 C.3       23 UNK        -0.0205 
     16 S16        -2.6871  -18.8208  -49.6729 S.3       23 UNK        -0.2404 
     17 C17        -2.9903  -19.3971  -47.9659 C.3       23 UNK        -0.0398 
     18 CA         -2.1550  -20.6380  -47.5569 C.3       11 UNK         0.1400 
     19 N          -0.7680  -20.2883  -47.2383 N.am      11 UNK        -0.5000 
     20 C           0.2322  -21.1575  -47.0494 C.2       10 UNK         0.5000 
     21 O           0.0822  -22.3787  -47.0608 O.2       10 UNK        -0.5000 
     22 CA          1.6303  -20.5746  -46.7563 C.3       10 UNK         0.1400 
     23 CB          1.7394  -19.0483  -46.9724 C.3       10 UNK        -0.1800 
     24 N           2.1028  -20.9199  -45.4127 N.am      10 UNK        -0.5000 
     25 C           1.4545  -20.7227  -44.2566 C.2       9 UNK         0.5000 
     26 O           0.3080  -20.2722  -44.1769 O.2       9 UNK        -0.5000 
     27 CA          2.2244  -21.1100  -42.9858 C.3       9 UNK         0.1400 
     28 CB          3.4347  -20.1861  -42.7538 C.3       9 UNK        -0.1800 
     29 N           1.3334  -21.0325  -41.8361 N.am      9 UNK        -0.5000 
     30 C           1.4155  -21.7664  -40.7230 C.2       8 UNK         0.5000 
     31 O           2.2610  -22.6467  -40.5524 O.2       8 UNK        -0.5000 
     32 CA          0.4082  -21.4231  -39.6022 C.3       8 UNK         0.1400 
     33 CB          0.5790  -22.3077  -38.3539 C.3       8 UNK        -0.1800 
     34 N           0.5239  -20.0172  -39.2028 N.am      8 UNK        -0.5000 
     35 C          -0.0089  -18.9897  -39.8746 C.2       7 UNK         0.5000 
     36 O          -0.7394  -19.1438  -40.8550 O.2       7 UNK        -0.5000 
     37 CA          0.3683  -17.5759  -39.3926 C.3       7 UNK         0.1400 
     38 CB          1.8882  -17.3457  -39.4755 C.3       7 UNK        -0.1800 
     39 N          -0.2928  -16.5735  -40.2230 N.am      7 UNK        -0.5000 
     40 C          -1.4800  -16.0144  -39.9602 C.2       6 UNK         0.5000 
     41 O          -2.0949  -16.1806  -38.9054 O.2       6 UNK        -0.5000 
     42 CA         -2.0926  -15.1190  -41.0559 C.3       6 UNK         0.1400 
     43 CB         -1.8505  -13.6355  -40.7374 C.3       6 UNK        -0.1800 
     44 N          -1.5762  -15.4196  -42.3932 N.am      6 UNK        -0.5000 
     45 C          -1.9267  -16.4913  -43.1184 C.2       5 UNK         0.5000 
     46 O          -2.8136  -17.2760  -42.7823 O.2       5 UNK        -0.5000 
     47 CA         -1.1764  -16.7302  -44.4452 C.3       5 UNK         0.1400 
     48 CB         -2.0110  -16.2227  -45.6306 C.3       5 UNK        -0.1800 
     49 N           0.1553  -16.1207  -44.5044 N.am      5 UNK        -0.5000 
     50 C           1.1972  -16.4900  -43.7451 C.2       4 UNK         0.5000 
     51 O           1.1427  -17.3712  -42.8913 O.2       4 UNK        -0.5000 
     52 CA          2.5077  -15.7061  -43.9308 C.3       4 UNK         0.1400 
     53 CB          3.2342  -16.1325  -45.2144 C.3       4 UNK        -0.1800 
     54 N           2.2850  -14.2622  -43.9454 N.am      4 UNK        -0.5000 
     55 C           1.8574  -13.5534  -42.8910 C.2       3 UNK         0.5000 
     56 O           1.6630  -14.0338  -41.7745 O.2       3 UNK        -0.5000 
     57 CA          1.5530  -12.0664  -43.1391 C.3       3 UNK         0.1400 
     58 CB          2.8347  -11.2212  -43.0813 C.3       3 UNK        -0.1800 
     59 N           0.8778  -11.8532  -44.4195 N.am      3 UNK        -0.5000 
     60 C          -0.3772  -12.2434  -44.6837 C.2       2 UNK         0.5000 
     61 O          -1.1090  -12.7937  -43.8631 O.2       2 UNK        -0.5000 
     62 CA         -0.8927  -12.0058  -46.1131 C.3       2 UNK         0.1400 
     63 CB         -1.4868  -10.5958  -46.2468 C.3       2 UNK        -0.1800 
     64 N           0.1446  -12.1925  -47.1273 N.am      2 UNK        -0.5000 
     65 C           0.7030  -13.3727  -47.4319 C.2       1 UNK         0.5000 
     66 O           0.4117  -14.4341  -46.8801 O.2       1 UNK        -0.5000 
     67 C          -2.8477  -21.4138  -46.4178 C.2       11 UNK         0.5000 
     68 O          -3.7250  -22.2260  -46.7112 O.2       11 UNK        -0.5000 
     69 N          -2.4409  -21.1894  -45.1590 N.am      12 UNK        -0.5000 
     70 CA         -2.9709  -21.9145  -44.0027 C.3       12 UNK         0.1400 
     71 CB         -2.6459  -21.1485  -42.7134 C.3       12 UNK        -0.1800 
     72 C          -2.4263  -23.3510  -43.9294 C.2       12 UNK         0.5000 
     73 O          -3.1718  -24.2659  -43.5802 O.2       12 UNK        -0.5000 
     74 N          -1.1469  -23.5257  -44.2881 N.am      13 UNK        -0.5000 
     75 CA         -0.4779  -24.8256  -44.3519 C.3       13 UNK         0.1400 
     76 CB          1.0438  -24.6194  -44.3386 C.3       13 UNK        -0.1800 
     77 C          -0.9153  -25.6373  -45.5837 C.2       13 UNK         0.5000 
     78 O          -1.1203  -26.8466  -45.4773 O.2       13 UNK        -0.5000 
     79 N          -1.0761  -24.9501  -46.7223 N.am      14 UNK        -0.5000 
     80 CA         -1.5360  -25.5170  -47.9903 C.3       14 UNK         0.1400 
     81 CB         -1.1554  -24.5516  -49.1250 C.3       14 UNK        -0.1800 
     82 C          -3.0495  -25.8079  -48.0263 C.2       14 UNK         0.5000 
     83 O          -3.5015  -26.4743  -48.9558 O.2       14 UNK        -0.5000 
     84 N          -3.8089  -25.2801  -47.0539 N.am      15 UNK        -0.5000 
     85 CA         -5.2715  -25.3415  -46.9408 C.3       15 UNK         0.1400 
     86 CB         -5.7412  -26.7833  -46.6568 C.3       15 UNK        -0.1800 
     87 C          -5.9666  -24.6992  -48.1604 C.2       15 UNK         0.5000 
     88 O          -6.8431  -25.3053  -48.7782 O.2       15 UNK        -0.5000 
     89 N          -5.5087  -23.4854  -48.4974 N.am      16 UNK        -0.5000 
     90 CA         -5.9154  -22.6291  -49.6174 C.3       16 UNK         0.1400 
     91 CB         -7.4146  -22.2776  -49.5435 C.3       16 UNK        -0.1800 
     92 C          -5.5105  -23.1400  -51.0168 C.2       16 UNK         0.5000 
     93 O          -5.8201  -22.4709  -52.0039 O.2       16 UNK        -0.5000 
     94 N          -4.7789  -24.2624  -51.1083 N.am      17 UNK        -0.5000 
     95 CA         -4.2789  -24.8073  -52.3766 C.3       17 UNK         0.1400 
     96 CB         -3.7032  -26.2129  -52.1593 C.3       17 UNK        -0.1800 
     97 C          -3.2421  -23.8945  -53.0603 C.2       17 UNK         0.5000 
     98 O          -3.1479  -23.8978  -54.2865 O.2       17 UNK        -0.5000 
     99 N          -2.5178  -23.0954  -52.2635 N.am      18 UNK        -0.5000 
    100 CA        -1.6101  -22.0539  -52.7431 C.3       18 UNK         0.1400 
    101 CB        -0.7694  -21.5248  -51.5718 C.3       18 UNK        -0.1800 
    102 C         -2.3619  -20.9156  -53.4586 C.2       18 UNK         0.5000 
    103 O         -1.9456  -20.5047  -54.5387 O.2       18 UNK        -0.5000 
    104 N         -3.4930  -20.4741  -52.8884 N.am      19 UNK        -0.5000 
    105 CA        -4.3808  -19.4792  -53.4959 C.3       19 UNK         0.1400 
    106 CB        -5.4154  -18.9996  -52.4672 C.3       19 UNK        -0.1800 
    107 C         -5.0719  -20.0072  -54.7659 C.2       19 UNK         0.5000 
    108 O         -5.2186  -19.2591  -55.7335 O.2       19 UNK        -0.5000 
    109 N         -5.4373  -21.2971  -54.7627 N.am      20 UNK        -0.5000 
    110 CA        -5.9729  -22.0031  -55.9283 C.3       20 UNK         0.1400 
    111 CB        -6.4845  -23.3877  -55.5047 C.3       20 UNK        -0.1800 
    112 C         -4.9522  -22.1206  -57.0790 C.2       20 UNK         0.5000 
    113 O         -5.3484  -22.0513  -58.2428 O.2       20 UNK        -0.5000 
    114 N         -3.6628  -22.2680  -56.7394 N.am      21 UNK        -0.5000 
    115 CA        -2.5495  -22.2577  -57.6887 C.3       21 UNK         0.1400 
    116 CB        -1.2897  -22.8389  -57.0284 C.3       21 UNK        -0.1800 
    117 C         -2.2807  -20.8558  -58.2699 C.2       21 UNK         0.5000 
    118 O         -1.9739  -20.7539  -59.4589 O.2       21 UNK        -0.5000 
    119 N         -2.4210  -19.8054  -57.4463 N.am      22 UNK        -0.5000 
    120 CA        -2.3959  -18.3996  -57.8911 C.3       22 UNK         0.1400 
    121 C         -3.5772  -18.0502  -58.8398 C.2       22 UNK         0.5000 
    122 N         -4.8041  -18.4244  -58.4975 N.am      22 UNK        -0.7600 
    123 O         -3.3798  -17.4348  -59.8840 O.2       22 UNK        -0.5000 
    124 C124       -2.3718  -17.3868  -56.7183 C.3       23 UNK        -0.0398 
    125 S125       -0.9584  -17.5709  -55.5857 S.3       23 UNK        -0.2404 
    126 C126       -1.4525  -16.3624  -54.3199 C.3       23 UNK        -0.0205 
    127 H127        4.4184  -10.3294  -48.1326 H         1 UNK         0.0600 
    128 H128        5.4953  -11.2481  -47.0760 H         1 UNK         0.0600 
    129 H129        4.2334  -10.2271  -46.3787 H         1 UNK         0.0600 
    130 H130        2.8871  -11.6348  -49.0910 H         1 UNK         0.3000 
    131 H131        2.3494  -14.2881  -48.4326 H         1 UNK         0.0600 
    132 H132        0.6089  -12.3502  -50.0407 H         1 UNK         0.0800 
    133 H133        0.3883  -14.0680  -50.0247 H         1 UNK         0.0800 
    134 H134        3.1118  -15.5887  -50.6030 H         1 UNK         0.0800 
    135 H135        3.2281  -15.3937  -52.3318 H         1 UNK         0.0800 
    136 H136        0.9476  -15.2365  -53.6717 H         1 UNK         0.1150 
    137 H137       -2.0935  -17.8295  -52.1371 H         1 UNK         0.1150 
    138 H138        1.2985  -16.8235  -49.7090 H         1 UNK         0.1150 
    139 H139       -0.3102  -19.1299  -49.5464 H         1 UNK         0.0800 
    140 H140       -0.8144  -17.6783  -48.6875 H         1 UNK         0.0800 
    141 H141       -4.0585  -19.6193  -47.9186 H         1 UNK         0.0800 
    142 H142       -2.8323  -18.5726  -47.2705 H         1 UNK         0.0800 
    143 H143       -2.1287  -21.3201  -48.4084 H         1 UNK         0.0600 
    144 H144       -0.5625  -19.3064  -47.1403 H         1 UNK         0.3000 
    145 H145        2.3096  -21.0571  -47.4603 H         1 UNK         0.0600 
    146 H146        1.4619  -18.7682  -47.9878 H         1 UNK         0.0600 
    147 H147        1.1154  -18.4833  -46.2788 H         1 UNK         0.0600 
    148 H148        2.7680  -18.7180  -46.8327 H         1 UNK         0.0600 
    149 H149        3.0224  -21.3365  -45.3780 H         1 UNK         0.3000 
    150 H150        2.5747  -22.1360  -43.1093 H         1 UNK         0.0600 
    151 H151        4.1325  -20.2233  -43.5908 H         1 UNK         0.0600 
    152 H152        3.9879  -20.4784  -41.8612 H         1 UNK         0.0600 
    153 H153        3.1277  -19.1476  -42.6280 H         1 UNK         0.0600 
    154 H154        0.5927  -20.3398  -41.9199 H         1 UNK         0.3000 
    155 H155       -0.5928  -21.6048  -39.9996 H         1 UNK         0.0600 
    156 H156        1.5622  -22.1797  -37.8994 H         1 UNK         0.0600 
    157 H157        0.4662  -23.3633  -38.6042 H         1 UNK         0.0600 
    158 H158       -0.1722  -22.0731  -37.5995 H         1 UNK         0.0600 
    159 H159        1.1369  -19.8260  -38.4236 H         1 UNK         0.3000 
    160 H160        0.0536  -17.4708  -38.3525 H         1 UNK         0.0600 
    161 H161        2.2730  -17.5410  -40.4770 H         1 UNK         0.0600 
    162 H162        2.4273  -17.9953  -38.7855 H         1 UNK         0.0600 
    163 H163        2.1450  -16.3183  -39.2163 H         1 UNK         0.0600 
    164 H164        0.0954  -16.4583  -41.1514 H         1 UNK         0.3000 
    165 H165       -3.1709  -15.2913  -41.0541 H         1 UNK         0.0600 
    166 H166       -2.3659  -12.9908  -41.4492 H         1 UNK         0.0600 
    167 H167       -2.2232  -13.3820  -39.7441 H         1 UNK         0.0600 
    168 H168       -0.7898  -13.3852  -40.7639 H         1 UNK         0.0600 
    169 H169       -0.8975  -14.7736  -42.7756 H         1 UNK         0.3000 
    170 H170       -1.0508  -17.8099  -44.5529 H         1 UNK         0.0600 
    171 H171       -3.0031  -16.6757  -45.6355 H         1 UNK         0.0600 
    172 H172       -2.1445  -15.1412  -45.5885 H         1 UNK         0.0600 
    173 H173       -1.5359  -16.4634  -46.5814 H         1 UNK         0.0600 
    174 H174        0.2900  -15.3985  -45.2070 H         1 UNK         0.3000 
    175 H175        3.1580  -15.9359  -43.0840 H         1 UNK         0.0600 
    176 H176        2.6250  -15.9629  -46.1030 H         1 UNK         0.0600 
    177 H177        4.1672  -15.5829  -45.3404 H         1 UNK         0.0600 
    178 H178        3.4851  -17.1927  -45.1784 H         1 UNK         0.0600 
    179 H179        2.4715  -13.7778  -44.8190 H         1 UNK         0.3000 
    180 H180        0.8872  -11.7255  -42.3431 H         1 UNK         0.0600 
    181 H181        2.6138  -10.1609  -43.2046 H         1 UNK         0.0600 
    182 H182        3.5466  -11.5079  -43.8556 H         1 UNK         0.0600 
    183 H183        3.3339  -11.3391  -42.1187 H         1 UNK         0.0600 
    184 H184        1.4274  -11.4507  -45.1637 H         1 UNK         0.3000 
    185 H185       -1.6878  -12.7298  -46.3036 H         1 UNK         0.0600 
    186 H186       -1.9244  -10.4441  -47.2337 H         1 UNK         0.0600 
    187 H187       -2.2784  -10.4355  -45.5136 H         1 UNK         0.0600 
    188 H188       -0.7330   -9.8231  -46.0904 H         1 UNK         0.0600 
    189 H189        0.4601  -11.3661  -47.6140 H         1 UNK         0.3000 
    190 H190       -1.6670  -20.5581  -44.9833 H         1 UNK         0.3000 
    191 H191       -4.0579  -21.9694  -44.0954 H         1 UNK         0.0600 
    192 H192       -3.1099  -21.6243  -41.8488 H         1 UNK         0.0600 
    193 H193       -3.0120  -20.1226  -42.7563 H         1 UNK         0.0600 
    194 H194       -1.5735  -21.1114  -42.5264 H         1 UNK         0.0600 
    195 H195       -0.6230  -22.7226  -44.6051 H         1 UNK         0.3000 
    196 H196       -0.7469  -25.4001  -43.4628 H         1 UNK         0.0600 
    197 H197        1.3764  -23.9910  -45.1656 H         1 UNK         0.0600 
    198 H198        1.3641  -24.1540  -43.4070 H         1 UNK         0.0600 
    199 H199        1.5678  -25.5727  -44.4189 H         1 UNK         0.0600 
    200 H200       -0.8050  -23.9695  -46.7421 H         1 UNK         0.3000 
    201 H201       -1.0155  -26.4624  -48.1559 H         1 UNK         0.0600 
    202 H202       -0.0852  -24.3437  -49.1241 H         1 UNK         0.0600 
    203 H203       -1.6802  -23.6007  -49.0349 H         1 UNK         0.0600 
    204 H204       -1.3981  -24.9733  -50.0998 H         1 UNK         0.0600 
    205 H205       -3.3437  -24.7122  -46.3597 H         1 UNK         0.3000 
    206 H206       -5.5390  -24.7312  -46.0768 H         1 UNK         0.0600 
    207 H207       -5.2414  -27.1931  -45.7791 H         1 UNK         0.0600 
    208 H208       -6.8140  -26.8117  -46.4627 H         1 UNK         0.0600 
    209 H209       -5.5440  -27.4501  -47.4966 H         1 UNK         0.0600 
    210 H210       -4.7956  -23.0834  -47.8898 H         1 UNK         0.3000 
    211 H211       -5.3625  -21.6987  -49.4797 H         1 UNK         0.0600 
    212 H212       -7.6726  -21.5117  -50.2759 H         1 UNK         0.0600 
    213 H213       -7.6805  -21.8872  -48.5613 H         1 UNK         0.0600 
    214 H214       -8.0464  -23.1428  -49.7450 H         1 UNK         0.0600 
    215 H215       -4.5806  -24.7936  -50.2706 H         1 UNK         0.3000 
    216 H216       -5.1318  -24.8999  -53.0510 H         1 UNK         0.0600 
    217 H217       -2.8098  -26.1941  -51.5363 H         1 UNK         0.0600 
    218 H218       -3.4260  -26.6693  -53.1103 H         1 UNK         0.0600 
    219 H219       -4.4316  -26.8701  -51.6837 H         1 UNK         0.0600 
    220 H220       -2.6570  -23.1622  -51.2678 H         1 UNK         0.3000 
    221 H221       -0.9296  -22.5038  -53.4694 H         1 UNK         0.0600 
    222 H222       -0.1091  -22.2991  -51.1809 H         1 UNK         0.0600 
    223 H223       -1.3962  -21.1799  -50.7518 H         1 UNK         0.0600 
    224 H224       -0.1424  -20.6880  -51.8832 H         1 UNK         0.0600 
    225 H225       -3.8033  -20.8898  -52.0239 H         1 UNK         0.3000 
    226 H226       -3.7735  -18.6207  -53.7883 H         1 UNK         0.0600 
    227 H227       -6.0360  -19.8176  -52.1013 H         1 UNK         0.0600 
    228 H228       -4.9331  -18.5336  -51.6090 H         1 UNK         0.0600 
    229 H229       -6.0814  -18.2550  -52.9048 H         1 UNK         0.0600 
    230 H230       -5.3406  -21.8264  -53.9029 H         1 UNK         0.3000 
    231 H231       -6.8246  -21.4282  -56.2981 H         1 UNK         0.0600 
    232 H232       -5.6692  -24.0425  -55.2003 H         1 UNK         0.0600 
    233 H233       -7.0021  -23.8775  -56.3303 H         1 UNK         0.0600 
    234 H234       -7.1879  -23.3155  -54.6748 H         1 UNK         0.0600 
    235 H235       -3.4261  -22.3868  -55.7616 H         1 UNK         0.3000 
    236 H236       -2.8156  -22.9125  -58.5212 H         1 UNK         0.0600 
    237 H237       -0.9469  -22.2284  -56.1942 H         1 UNK         0.0600 
    238 H238       -1.4705  -23.8464  -56.6532 H         1 UNK         0.0600 
    239 H239       -0.4699  -22.9004  -57.7450 H         1 UNK         0.0600 
    240 H240       -2.5905  -19.9710  -56.4607 H         1 UNK         0.3000 
    241 H241       -1.4750  -18.2605  -58.4607 H         1 UNK         0.0600 
    242 H242       -5.5792  -18.2098  -59.1040 H         1 UNK         0.3800 
    243 H243       -4.9735  -18.8700  -57.5997 H         1 UNK         0.3800 
    244 H244       -3.2906  -17.4679  -56.1362 H         1 UNK         0.0800 
    245 H245       -2.3469  -16.3660  -57.1046 H         1 UNK         0.0800 
    246 H246       -1.3238  -15.3542  -54.7167 H         1 UNK         0.0800 
    247 H247       -2.5159  -16.4694  -54.1015 H         1 UNK         0.0800 
@<TRIPOS>BOND
     1    1    2 1    
     2    1  127 1    
     3    1  128 1    
     4    1  129 1    
     5    2    3 2    
     6    2    4 am   BACKBONE|DICT|INTERRES
     7    4    5 1    
     8    4  130 1    
     9    5    6 1    
    10    5   65 1    
    11    5  131 1    
    12    6    7 1    
    13    6  132 1    
    14    6  133 1    
    15    7    8 1    
    16    8    9 1    
    17    8  134 1    
    18    8  135 1    
    19    9   10 ar   
    20    9   14 ar   
    21   10   11 ar   
    22   10  136 1    
    23   11   12 ar   
    24   11  126 1    
    25   12   13 ar   
    26   12  137 1    
    27   13   14 ar   
    28   13   15 1    
    29   14  138 1    
    30   15   16 1    
    31   15  139 1    
    32   15  140 1    
    33   16   17 1    
    34   17   18 1    
    35   17  141 1    
    36   17  142 1    
    37   18   19 1    
    38   18   67 1    
    39   18  143 1    
    40   19   20 am   BACKBONE|DICT|INTERRES
    41   19  144 1    
    42   20   21 2    
    43   20   22 1    
    44   22   23 1    
    45   22   24 1    
    46   22  145 1    
    47   23  146 1    
    48   23  147 1    
    49   23  148 1    
    50   24   25 am   BACKBONE|DICT|INTERRES
    51   24  149 1    
    52   25   26 2    
    53   25   27 1    
    54   27   28 1    
    55   27   29 1    
    56   27  150 1    
    57   28  151 1    
    58   28  152 1    
    59   28  153 1    
    60   29   30 am   BACKBONE|DICT|INTERRES
    61   29  154 1    
    62   30   31 2    
    63   30   32 1    
    64   32   33 1    
    65   32   34 1    
    66   32  155 1    
    67   33  156 1    
    68   33  157 1    
    69   33  158 1    
    70   34   35 am   BACKBONE|DICT|INTERRES
    71   34  159 1    
    72   35   36 2    
    73   35   37 1    
    74   37   38 1    
    75   37   39 1    
    76   37  160 1    
    77   38  161 1    
    78   38  162 1    
    79   38  163 1    
    80   39   40 am   BACKBONE|DICT|INTERRES
    81   39  164 1    
    82   40   41 2    
    83   40   42 1    
    84   42   43 1    
    85   42   44 1    
    86   42  165 1    
    87   43  166 1    
    88   43  167 1    
    89   43  168 1    
    90   44   45 am   BACKBONE|DICT|INTERRES
    91   44  169 1    
    92   45   46 2    
    93   45   47 1    
    94   47   48 1    
    95   47   49 1    
    96   47  170 1    
    97   48  171 1    
    98   48  172 1    
    99   48  173 1    
   100   49   50 am   BACKBONE|DICT|INTERRES
   101   49  174 1    
   102   50   51 2    
   103   50   52 1    
   104   52   53 1    
   105   52   54 1    
   106   52  175 1    
   107   53  176 1    
   108   53  177 1    
   109   53  178 1    
   110   54   55 am   BACKBONE|DICT|INTERRES
   111   54  179 1    
   112   55   56 2    
   113   55   57 1    
   114   57   58 1    
   115   57   59 1    
   116   57  180 1    
   117   58  181 1    
   118   58  182 1    
   119   58  183 1    
   120   59   60 am   BACKBONE|DICT|INTERRES
   121   59  184 1    
   122   60   61 2    
   123   60   62 1    
   124   62   63 1    
   125   62   64 1    
   126   62  185 1    
   127   63  186 1    
   128   63  187 1    
   129   63  188 1    
   130   64   65 am   BACKBONE|DICT|INTERRES
   131   64  189 1    
   132   65   66 2    
   133   67   68 2    
   134   67   69 am   BACKBONE|DICT|INTERRES
   135   69   70 1    
   136   69  190 1    
   137   70   71 1    
   138   70   72 1    
   139   70  191 1    
   140   71  192 1    
   141   71  193 1    
   142   71  194 1    
   143   72   73 2    
   144   72   74 am   BACKBONE|DICT|INTERRES
   145   74   75 1    
   146   74  195 1    
   147   75   76 1    
   148   75   77 1    
   149   75  196 1    
   150   76  197 1    
   151   76  198 1    
   152   76  199 1    
   153   77   78 2    
   154   77   79 am   BACKBONE|DICT|INTERRES
   155   79   80 1    
   156   79  200 1    
   157   80   81 1    
   158   80   82 1    
   159   80  201 1    
   160   81  202 1    
   161   81  203 1    
   162   81  204 1    
   163   82   83 2    
   164   82   84 am   BACKBONE|DICT|INTERRES
   165   84   85 1    
   166   84  205 1    
   167   85   86 1    
   168   85   87 1    
   169   85  206 1    
   170   86  207 1    
   171   86  208 1    
   172   86  209 1    
   173   87   88 2    
   174   87   89 am   BACKBONE|DICT|INTERRES
   175   89   90 1    
   176   89  210 1    
   177   90   91 1    
   178   90   92 1    
   179   90  211 1    
   180   91  212 1    
   181   91  213 1    
   182   91  214 1    
   183   92   93 2    
   184   92   94 am   BACKBONE|DICT|INTERRES
   185   94   95 1    
   186   94  215 1    
   187   95   96 1    
   188   95   97 1    
   189   95  216 1    
   190   96  217 1    
   191   96  218 1    
   192   96  219 1    
   193   97   98 2    
   194   97   99 am   BACKBONE|DICT|INTERRES
   195   99  100 1    
   196   99  220 1    
   197  100  101 1    
   198  100  102 1    
   199  100  221 1    
   200  101  222 1    
   201  101  223 1    
   202  101  224 1    
   203  102  103 2    
   204  102  104 am   BACKBONE|DICT|INTERRES
   205  104  105 1    
   206  104  225 1    
   207  105  106 1    
   208  105  107 1    
   209  105  226 1    
   210  106  227 1    
   211  106  228 1    
   212  106  229 1    
   213  107  108 2    
   214  107  109 am   BACKBONE|DICT|INTERRES
   215  109  110 1    
   216  109  230 1    
   217  110  111 1    
   218  110  112 1    
   219  110  231 1    
   220  111  232 1    
   221  111  233 1    
   222  111  234 1    
   223  112  113 2    
   224  112  114 am   BACKBONE|DICT|INTERRES
   225  114  115 1    
   226  114  235 1    
   227  115  116 1    
   228  115  117 1    
   229  115  236 1    
   230  116  237 1    
   231  116  238 1    
   232  116  239 1    
   233  117  118 2    
   234  117  119 am   BACKBONE|DICT|INTERRES
   235  119  120 1    
   236  119  240 1    
   237  120  121 1    
   238  120  124 1    
   239  120  241 1    
   240  121  122 am   BACKBONE|DICT|INTERRES
   241  121  123 2    
   242  122  242 1    
   243  122  243 1    
   244  124  125 1    
   245  124  244 1    
   246  124  245 1    
   247  125  126 1    
   248  126  246 1    
   249  126  247 1    
@<TRIPOS>SUBSTRUCTURE
     1 UNK         1 GROUP             0       ****    0 ROOT    
