@<TRIPOS>MOLECULE
3R540
247   249    1
SMALL
USER_CHARGES


@<TRIPOS>ATOM
      1 CA         -4.2012  -14.9394  -48.0135 C.3       0 UNK        -0.1800 
      2 C          -3.2248  -15.8215  -47.2403 C.2       0 UNK         0.5000 
      3 O          -3.6607  -16.7596  -46.5772 O.2       0 UNK        -0.5000 
      4 N          -1.9118  -15.5679  -47.2895 N.am      1 UNK        -0.5000 
      5 CA         -1.2325  -14.4701  -47.9828 C.3       1 UNK         0.1400 
      6 C6         -0.2989  -15.0047  -49.0984 C.3       23 UNK        -0.0398 
      7 S7         -1.2426  -15.6087  -50.5392 S.3       23 UNK        -0.2404 
      8 C8         -1.3389  -17.3948  -50.2098 C.3       23 UNK        -0.0205 
      9 C9         -0.1221  -18.1517  -50.7184 C.ar      23 UNK        -0.0193 
     10 C10        -0.0533  -18.5535  -52.0539 C.ar      23 UNK        -0.1150 
     11 C11         0.9975  -19.3524  -52.5086 C.ar      23 UNK        -0.0193 
     12 C12         2.0096  -19.7242  -51.6179 C.ar      23 UNK        -0.1150 
     13 C13         1.9681  -19.3056  -50.2834 C.ar      23 UNK        -0.0193 
     14 C14         0.9032  -18.5158  -49.8443 C.ar      23 UNK        -0.1150 
     15 C15         3.0650  -19.7179  -49.3143 C.3       23 UNK        -0.0205 
     16 S16         2.6932  -21.3108  -48.5161 S.3       23 UNK        -0.2404 
     17 C17         1.6988  -20.7899  -47.0759 C.3       23 UNK        -0.0398 
     18 CA          1.0614  -21.9980  -46.3423 C.3       11 UNK         0.1400 
     19 N           1.0253  -21.8058  -44.8880 N.am      11 UNK        -0.5000 
     20 C           1.3691  -22.7436  -43.9937 C.2       10 UNK         0.5000 
     21 O           1.7283  -23.8809  -44.3007 O.2       10 UNK        -0.5000 
     22 CA          1.3204  -22.3606  -42.5018 C.3       10 UNK         0.1400 
     23 CB          2.7021  -21.8860  -42.0329 C.3       10 UNK        -0.1800 
     24 N           0.3237  -21.3352  -42.1907 N.am      10 UNK        -0.5000 
     25 C          -0.9950  -21.5704  -42.1607 C.2       9 UNK         0.5000 
     26 O          -1.4951  -22.6707  -42.3982 O.2       9 UNK        -0.5000 
     27 CA         -1.9229  -20.3858  -41.8228 C.3       9 UNK         0.1400 
     28 CB         -2.0697  -20.2471  -40.2997 C.3       9 UNK        -0.1800 
     29 N          -1.5475  -19.0814  -42.3792 N.am      9 UNK        -0.5000 
     30 C          -1.1908  -18.8150  -43.6429 C.2       8 UNK         0.5000 
     31 O          -0.9803  -19.6833  -44.4890 O.2       8 UNK        -0.5000 
     32 CA         -1.0392  -17.3362  -44.0396 C.3       8 UNK         0.1400 
     33 CB         -1.5460  -16.3300  -42.9880 C.3       8 UNK        -0.1800 
     34 N           0.3595  -17.0605  -44.3270 N.am      8 UNK        -0.5000 
     35 C           0.9661  -17.2643  -45.5002 C.2       7 UNK         0.5000 
     36 O           0.3679  -17.6007  -46.5200 O.2       7 UNK        -0.5000 
     37 CA          2.4903  -17.0585  -45.5498 C.3       7 UNK         0.1400 
     38 CB          2.8319  -15.6647  -46.0909 C.3       7 UNK        -0.1800 
     39 N           3.1020  -17.2055  -44.2281 N.am      7 UNK        -0.5000 
     40 C           3.8086  -18.2665  -43.8202 C.2       6 UNK         0.5000 
     41 O           4.0504  -19.2430  -44.5293 O.2       6 UNK        -0.5000 
     42 CA          4.3472  -18.2342  -42.3749 C.3       6 UNK         0.1400 
     43 CB          5.7616  -17.6352  -42.3483 C.3       6 UNK        -0.1800 
     44 N           3.5006  -17.4890  -41.4416 N.am      6 UNK        -0.5000 
     45 C           2.2612  -17.8397  -41.0731 C.2       5 UNK         0.5000 
     46 O           1.6809  -18.8497  -41.4726 O.2       5 UNK        -0.5000 
     47 CA          1.5250  -16.8765  -40.1212 C.3       5 UNK         0.1400 
     48 CB          1.8105  -17.2552  -38.6605 C.3       5 UNK        -0.1800 
     49 N           1.8003  -15.4432  -40.3115 N.am      5 UNK        -0.5000 
     50 C           1.7299  -14.7750  -41.4709 C.2       4 UNK         0.5000 
     51 O           1.6130  -15.3181  -42.5697 O.2       4 UNK        -0.5000 
     52 CA          1.7935  -13.2458  -41.4148 C.3       4 UNK         0.1400 
     53 CB          3.1741  -12.7436  -41.8642 C.3       4 UNK        -0.1800 
     54 N           0.7773  -12.7515  -42.3381 N.am      4 UNK        -0.5000 
     55 C          -0.2093  -11.8990  -42.0392 C.2       3 UNK         0.5000 
     56 O          -0.3071  -11.3227  -40.9541 O.2       3 UNK        -0.5000 
     57 CA         -1.2798  -11.6836  -43.1324 C.3       3 UNK         0.1400 
     58 CB         -2.0853  -10.3794  -42.9514 C.3       3 UNK        -0.1800 
     59 N          -0.7429  -11.7980  -44.4934 N.am      3 UNK        -0.5000 
     60 C           0.1466  -10.9985  -45.0972 C.2       2 UNK         0.5000 
     61 O           0.5992   -9.9743  -44.5845 O.2       2 UNK        -0.5000 
     62 CA          0.6239  -11.3884  -46.5160 C.3       2 UNK         0.1400 
     63 CB          2.0992  -11.8302  -46.4812 C.3       2 UNK        -0.1800 
     64 N          -0.1917  -12.3757  -47.2482 N.am      2 UNK        -0.5000 
     65 C          -0.4368  -13.6584  -46.9430 C.2       1 UNK         0.5000 
     66 O          -0.0764  -14.1868  -45.8906 O.2       1 UNK        -0.5000 
     67 C          -0.3378  -22.3215  -46.8988 C.2       11 UNK         0.5000 
     68 O          -0.4369  -23.0626  -47.8759 O.2       11 UNK        -0.5000 
     69 N          -1.3938  -21.7976  -46.2577 N.am      12 UNK        -0.5000 
     70 CA         -2.8067  -21.9122  -46.6345 C.3       12 UNK         0.1400 
     71 CB         -3.6655  -21.2413  -45.5511 C.3       12 UNK        -0.1800 
     72 C          -3.3078  -23.3456  -46.8873 C.2       12 UNK         0.5000 
     73 O          -4.1859  -23.5330  -47.7296 O.2       12 UNK        -0.5000 
     74 N          -2.7318  -24.3261  -46.1805 N.am      13 UNK        -0.5000 
     75 CA         -3.0176  -25.7516  -46.3461 C.3       13 UNK         0.1400 
     76 CB         -2.3763  -26.5238  -45.1832 C.3       13 UNK        -0.1800 
     77 C          -2.5433  -26.3232  -47.6985 C.2       13 UNK         0.5000 
     78 O          -3.1588  -27.2638  -48.2012 O.2       13 UNK        -0.5000 
     79 N          -1.4694  -25.7520  -48.2595 N.am      14 UNK        -0.5000 
     80 CA         -0.8983  -26.1322  -49.5518 C.3       14 UNK         0.1400 
     81 CB          0.6351  -26.1102  -49.4480 C.3       14 UNK        -0.1800 
     82 C          -1.3737  -25.1888  -50.6688 C.2       14 UNK         0.5000 
     83 O          -1.6465  -25.6471  -51.7780 O.2       14 UNK        -0.5000 
     84 N          -1.4738  -23.8911  -50.3521 N.am      15 UNK        -0.5000 
     85 CA         -1.8841  -22.8247  -51.2656 C.3       15 UNK         0.1400 
     86 CB         -1.4739  -21.4773  -50.6556 C.3       15 UNK        -0.1800 
     87 C          -3.3891  -22.8154  -51.5875 C.2       15 UNK         0.5000 
     88 O          -3.7884  -22.1527  -52.5464 O.2       15 UNK        -0.5000 
     89 N          -4.1846  -23.5305  -50.7776 N.am      16 UNK        -0.5000 
     90 CA         -5.6477  -23.5602  -50.7633 C.3       16 UNK         0.1400 
     91 CB         -6.2180  -24.1495  -52.0680 C.3       16 UNK        -0.1800 
     92 C          -6.2043  -22.1709  -50.4056 C.2       16 UNK         0.5000 
     93 O          -6.8310  -21.5065  -51.2327 O.2       16 UNK        -0.5000 
     94 N          -5.9054  -21.7537  -49.1681 N.am      17 UNK        -0.5000 
     95 CA         -6.2111  -20.4525  -48.5739 C.3       17 UNK         0.1400 
     96 CB         -7.7333  -20.2939  -48.3569 C.3       17 UNK        -0.1800 
     97 C          -5.5514  -19.3100  -49.3708 C.2       17 UNK         0.5000 
     98 O          -4.3262  -19.3043  -49.5078 O.2       17 UNK        -0.5000 
     99 N          -6.3585  -18.3777  -49.8915 N.am      18 UNK        -0.5000 
    100 CA        -5.9405  -17.2120  -50.6685 C.3       18 UNK         0.1400 
    101 CB        -7.0608  -16.1579  -50.6149 C.3       18 UNK        -0.1800 
    102 C         -5.5172  -17.5671  -52.1106 C.2       18 UNK         0.5000 
    103 O         -6.0802  -17.0390  -53.0710 O.2       18 UNK        -0.5000 
    104 N         -4.5086  -18.4403  -52.2223 N.am      19 UNK        -0.5000 
    105 CA        -3.7623  -18.7964  -53.4312 C.3       19 UNK         0.1400 
    106 CB        -3.0562  -17.5475  -54.0058 C.3       19 UNK        -0.1800 
    107 C         -4.5863  -19.5239  -54.5115 C.2       19 UNK         0.5000 
    108 O         -4.2127  -19.4690  -55.6842 O.2       19 UNK        -0.5000 
    109 N         -5.6699  -20.2191  -54.1391 N.am      20 UNK        -0.5000 
    110 CA        -6.5435  -20.9087  -55.0956 C.3       20 UNK         0.1400 
    111 CB        -7.8255  -21.3782  -54.3931 C.3       20 UNK        -0.1800 
    112 C         -5.8632  -22.0676  -55.8581 C.2       20 UNK         0.5000 
    113 O         -6.3336  -22.4228  -56.9398 O.2       20 UNK        -0.5000 
    114 N         -4.7700  -22.6167  -55.3089 N.am      21 UNK        -0.5000 
    115 CA        -3.9795  -23.6841  -55.9229 C.3       21 UNK         0.1400 
    116 CB        -3.6598  -24.7398  -54.8510 C.3       21 UNK        -0.1800 
    117 C         -2.6782  -23.1864  -56.5858 C.2       21 UNK         0.5000 
    118 O         -1.9735  -24.0131  -57.1684 O.2       21 UNK        -0.5000 
    119 N         -2.3453  -21.8898  -56.4874 N.am      22 UNK        -0.5000 
    120 CA        -1.0311  -21.3651  -56.9156 C.3       22 UNK         0.1400 
    121 C         -0.9931  -19.8887  -57.4023 C.2       22 UNK         0.5000 
    122 N         -2.0673  -19.1162  -57.3435 N.am      22 UNK        -0.7600 
    123 O          0.0398  -19.4350  -57.8879 O.2       22 UNK        -0.5000 
    124 C124        0.1003  -21.6900  -55.8995 C.3       23 UNK        -0.0398 
    125 S125       -0.2497  -21.1318  -54.1964 S.3       23 UNK        -0.2404 
    126 C126        1.0074  -19.8397  -53.9498 C.3       23 UNK        -0.0205 
    127 H127       -5.2124  -15.3418  -47.9505 H         1 UNK         0.0600 
    128 H128       -3.9303  -14.8867  -49.0677 H         1 UNK         0.0600 
    129 H129       -4.2161  -13.9306  -47.6011 H         1 UNK         0.0600 
    130 H130       -1.2796  -16.1552  -46.7572 H         1 UNK         0.3000 
    131 H131       -1.9501  -13.7818  -48.4299 H         1 UNK         0.0600 
    132 H132        0.3602  -14.2153  -49.4644 H         1 UNK         0.0800 
    133 H133        0.3557  -15.7916  -48.7208 H         1 UNK         0.0800 
    134 H134       -2.2309  -17.7881  -50.6964 H         1 UNK         0.0800 
    135 H135       -1.4820  -17.5776  -49.1440 H         1 UNK         0.0800 
    136 H136       -0.8412  -18.2853  -52.7367 H         1 UNK         0.1150 
    137 H137        2.8218  -20.3516  -51.9573 H         1 UNK         0.1150 
    138 H138        0.8594  -18.2059  -48.8139 H         1 UNK         0.1150 
    139 H139        4.0103  -19.8086  -49.8513 H         1 UNK         0.0800 
    140 H140        3.2197  -18.9470  -48.5579 H         1 UNK         0.0800 
    141 H141        0.9469  -20.0612  -47.3809 H         1 UNK         0.0800 
    142 H142        2.3751  -20.2579  -46.4064 H         1 UNK         0.0800 
    143 H143        1.6781  -22.8743  -46.5534 H         1 UNK         0.0600 
    144 H144        0.6640  -20.9191  -44.5540 H         1 UNK         0.3000 
    145 H145        1.0689  -23.2614  -41.9376 H         1 UNK         0.0600 
    146 H146        2.6926  -21.6061  -40.9794 H         1 UNK         0.0600 
    147 H147        3.4488  -22.6711  -42.1576 H         1 UNK         0.0600 
    148 H148        3.0350  -21.0243  -42.6093 H         1 UNK         0.0600 
    149 H149        0.6727  -20.4023  -41.9827 H         1 UNK         0.3000 
    150 H150       -2.9047  -20.6271  -42.2343 H         1 UNK         0.0600 
    151 H151       -2.3678  -21.1932  -39.8458 H         1 UNK         0.0600 
    152 H152       -2.8308  -19.5111  -40.0402 H         1 UNK         0.0600 
    153 H153       -1.1319  -19.9401  -39.8344 H         1 UNK         0.0600 
    154 H154       -1.6654  -18.2963  -41.7573 H         1 UNK         0.3000 
    155 H155       -1.6311  -17.1931  -44.9429 H         1 UNK         0.0600 
    156 H156       -2.6019  -16.4893  -42.7657 H         1 UNK         0.0600 
    157 H157       -1.4480  -15.3088  -43.3579 H         1 UNK         0.0600 
    158 H158       -0.9893  -16.3917  -42.0538 H         1 UNK         0.0600 
    159 H159        0.9055  -16.6701  -43.5657 H         1 UNK         0.3000 
    160 H160        2.8947  -17.7969  -46.2444 H         1 UNK         0.0600 
    161 H161        2.5052  -14.8895  -45.3985 H         1 UNK         0.0600 
    162 H162        2.3472  -15.4811  -47.0504 H         1 UNK         0.0600 
    163 H163        3.9058  -15.5509  -46.2385 H         1 UNK         0.0600 
    164 H164        2.9013  -16.4677  -43.5615 H         1 UNK         0.3000 
    165 H165        4.4120  -19.2632  -42.0185 H         1 UNK         0.0600 
    166 H166        6.1915  -17.6814  -41.3475 H         1 UNK         0.0600 
    167 H167        6.4305  -18.1834  -43.0132 H         1 UNK         0.0600 
    168 H168        5.7631  -16.5923  -42.6680 H         1 UNK         0.0600 
    169 H169        3.8816  -16.6319  -41.0691 H         1 UNK         0.3000 
    170 H170        0.4576  -17.0195  -40.2953 H         1 UNK         0.0600 
    171 H171        1.1920  -16.6771  -37.9737 H         1 UNK         0.0600 
    172 H172        1.5943  -18.3092  -38.4792 H         1 UNK         0.0600 
    173 H173        2.8553  -17.0842  -38.3981 H         1 UNK         0.0600 
    174 H174        1.9297  -14.9104  -39.4633 H         1 UNK         0.3000 
    175 H175        1.5971  -12.9118  -40.3940 H         1 UNK         0.0600 
    176 H176        3.4169  -13.0780  -42.8740 H         1 UNK         0.0600 
    177 H177        3.2159  -11.6543  -41.8555 H         1 UNK         0.0600 
    178 H178        3.9582  -13.1061  -41.1984 H         1 UNK         0.0600 
    179 H179        0.7490  -13.2325  -43.2283 H         1 UNK         0.3000 
    180 H180       -1.9811  -12.5119  -43.0225 H         1 UNK         0.0600 
    181 H181       -1.4430   -9.4987  -42.9596 H         1 UNK         0.0600 
    182 H182       -2.6210  -10.3810  -42.0015 H         1 UNK         0.0600 
    183 H183       -2.8279  -10.2618  -43.7405 H         1 UNK         0.0600 
    184 H184       -0.9584  -12.6622  -44.9782 H         1 UNK         0.3000 
    185 H185        0.5718  -10.4745  -47.1097 H         1 UNK         0.0600 
    186 H186        2.7384  -11.0244  -46.1184 H         1 UNK         0.0600 
    187 H187        2.2472  -12.6800  -45.8170 H         1 UNK         0.0600 
    188 H188        2.4571  -12.1077  -47.4726 H         1 UNK         0.0600 
    189 H189       -0.5785  -12.0221  -48.1127 H         1 UNK         0.3000 
    190 H190       -1.2066  -21.1497  -45.4946 H         1 UNK         0.3000 
    191 H191       -2.9420  -21.3570  -47.5640 H         1 UNK         0.0600 
    192 H192       -3.4386  -21.6377  -44.5608 H         1 UNK         0.0600 
    193 H193       -4.7299  -21.3994  -45.7260 H         1 UNK         0.0600 
    194 H194       -3.4977  -20.1642  -45.5290 H         1 UNK         0.0600 
    195 H195       -2.0232  -24.0763  -45.5058 H         1 UNK         0.3000 
    196 H196       -4.0998  -25.8878  -46.2921 H         1 UNK         0.0600 
    197 H197       -2.5895  -27.5910  -45.2576 H         1 UNK         0.0600 
    198 H198       -2.7622  -26.1825  -44.2224 H         1 UNK         0.0600 
    199 H199       -1.2919  -26.4052  -45.1711 H         1 UNK         0.0600 
    200 H200       -1.0574  -24.9403  -47.8117 H         1 UNK         0.3000 
    201 H201       -1.2027  -27.1471  -49.8160 H         1 UNK         0.0600 
    202 H202        1.0098  -25.1192  -49.1875 H         1 UNK         0.0600 
    203 H203        1.0944  -26.3967  -50.3948 H         1 UNK         0.0600 
    204 H204        0.9874  -26.8102  -48.6903 H         1 UNK         0.0600 
    205 H205       -1.1708  -23.5935  -49.4270 H         1 UNK         0.3000 
    206 H206       -1.3502  -22.9599  -52.2071 H         1 UNK         0.0600 
    207 H207       -0.3960  -21.4235  -50.5001 H         1 UNK         0.0600 
    208 H208       -1.7499  -20.6541  -51.3136 H         1 UNK         0.0600 
    209 H209       -1.9611  -21.3010  -49.6973 H         1 UNK         0.0600 
    210 H210       -3.7414  -23.9936  -49.9958 H         1 UNK         0.3000 
    211 H211       -5.9374  -24.2318  -49.9536 H         1 UNK         0.0600 
    212 H212       -5.9445  -23.5582  -52.9392 H         1 UNK         0.0600 
    213 H213       -7.3068  -24.1935  -52.0312 H         1 UNK         0.0600 
    214 H214       -5.8561  -25.1648  -52.2277 H         1 UNK         0.0600 
    215 H215       -5.3341  -22.3736  -48.5982 H         1 UNK         0.3000 
    216 H216       -5.7389  -20.4401  -47.5924 H         1 UNK         0.0600 
    217 H217       -7.9625  -19.3638  -47.8352 H         1 UNK         0.0600 
    218 H218       -8.1221  -21.1061  -47.7425 H         1 UNK         0.0600 
    219 H219       -8.2899  -20.2984  -49.2946 H         1 UNK         0.0600 
    220 H220       -7.3539  -18.4971  -49.7743 H         1 UNK         0.3000 
    221 H221       -5.0617  -16.7806  -50.1859 H         1 UNK         0.0600 
    222 H222       -7.9791  -16.5226  -51.0767 H         1 UNK         0.0600 
    223 H223       -7.2900  -15.8775  -49.5867 H         1 UNK         0.0600 
    224 H224       -6.7669  -15.2473  -51.1386 H         1 UNK         0.0600 
    225 H225       -4.1820  -18.8658  -51.3583 H         1 UNK         0.3000 
    226 H226       -2.9922  -19.4994  -53.1122 H         1 UNK         0.0600 
    227 H227       -2.5891  -16.9503  -53.2231 H         1 UNK         0.0600 
    228 H228       -2.2754  -17.8309  -54.7123 H         1 UNK         0.0600 
    229 H229       -3.7544  -16.8989  -54.5360 H         1 UNK         0.0600 
    230 H230       -5.9023  -20.2960  -53.1571 H         1 UNK         0.3000 
    231 H231       -6.8381  -20.1717  -55.8458 H         1 UNK         0.0600 
    232 H232       -8.3208  -20.5537  -53.8798 H         1 UNK         0.0600 
    233 H233       -7.6254  -22.1566  -53.6599 H         1 UNK         0.0600 
    234 H234       -8.5353  -21.7868  -55.1132 H         1 UNK         0.0600 
    235 H235       -4.4572  -22.2868  -54.3988 H         1 UNK         0.3000 
    236 H236       -4.5607  -24.1787  -56.7034 H         1 UNK         0.0600 
    237 H237       -4.5677  -25.1144  -54.3799 H         1 UNK         0.0600 
    238 H238       -3.1474  -25.5986  -55.2858 H         1 UNK         0.0600 
    239 H239       -3.0129  -24.3395  -54.0707 H         1 UNK         0.0600 
    240 H240       -2.9712  -21.2416  -56.0286 H         1 UNK         0.3000 
    241 H241       -0.7736  -21.9006  -57.8315 H         1 UNK         0.0600 
    242 H242       -2.9250  -19.3994  -56.8737 H         1 UNK         0.3800 
    243 H243       -1.9990  -18.1753  -57.6956 H         1 UNK         0.3800 
    244 H244        1.0581  -21.2902  -56.2363 H         1 UNK         0.0800 
    245 H245        0.2445  -22.7702  -55.8582 H         1 UNK         0.0800 
    246 H246        0.8103  -19.0055  -54.6249 H         1 UNK         0.0800 
    247 H247        1.9912  -20.2320  -54.2115 H         1 UNK         0.0800 
@<TRIPOS>BOND
     1    1    2 1    
     2    1  127 1    
     3    1  128 1    
     4    1  129 1    
     5    2    3 2    
     6    2    4 am   BACKBONE|DICT|INTERRES
     7    4    5 1    
     8    4  130 1    
     9    5    6 1    
    10    5   65 1    
    11    5  131 1    
    12    6    7 1    
    13    6  132 1    
    14    6  133 1    
    15    7    8 1    
    16    8    9 1    
    17    8  134 1    
    18    8  135 1    
    19    9   10 ar   
    20    9   14 ar   
    21   10   11 ar   
    22   10  136 1    
    23   11   12 ar   
    24   11  126 1    
    25   12   13 ar   
    26   12  137 1    
    27   13   14 ar   
    28   13   15 1    
    29   14  138 1    
    30   15   16 1    
    31   15  139 1    
    32   15  140 1    
    33   16   17 1    
    34   17   18 1    
    35   17  141 1    
    36   17  142 1    
    37   18   19 1    
    38   18   67 1    
    39   18  143 1    
    40   19   20 am   BACKBONE|DICT|INTERRES
    41   19  144 1    
    42   20   21 2    
    43   20   22 1    
    44   22   23 1    
    45   22   24 1    
    46   22  145 1    
    47   23  146 1    
    48   23  147 1    
    49   23  148 1    
    50   24   25 am   BACKBONE|DICT|INTERRES
    51   24  149 1    
    52   25   26 2    
    53   25   27 1    
    54   27   28 1    
    55   27   29 1    
    56   27  150 1    
    57   28  151 1    
    58   28  152 1    
    59   28  153 1    
    60   29   30 am   BACKBONE|DICT|INTERRES
    61   29  154 1    
    62   30   31 2    
    63   30   32 1    
    64   32   33 1    
    65   32   34 1    
    66   32  155 1    
    67   33  156 1    
    68   33  157 1    
    69   33  158 1    
    70   34   35 am   BACKBONE|DICT|INTERRES
    71   34  159 1    
    72   35   36 2    
    73   35   37 1    
    74   37   38 1    
    75   37   39 1    
    76   37  160 1    
    77   38  161 1    
    78   38  162 1    
    79   38  163 1    
    80   39   40 am   BACKBONE|DICT|INTERRES
    81   39  164 1    
    82   40   41 2    
    83   40   42 1    
    84   42   43 1    
    85   42   44 1    
    86   42  165 1    
    87   43  166 1    
    88   43  167 1    
    89   43  168 1    
    90   44   45 am   BACKBONE|DICT|INTERRES
    91   44  169 1    
    92   45   46 2    
    93   45   47 1    
    94   47   48 1    
    95   47   49 1    
    96   47  170 1    
    97   48  171 1    
    98   48  172 1    
    99   48  173 1    
   100   49   50 am   BACKBONE|DICT|INTERRES
   101   49  174 1    
   102   50   51 2    
   103   50   52 1    
   104   52   53 1    
   105   52   54 1    
   106   52  175 1    
   107   53  176 1    
   108   53  177 1    
   109   53  178 1    
   110   54   55 am   BACKBONE|DICT|INTERRES
   111   54  179 1    
   112   55   56 2    
   113   55   57 1    
   114   57   58 1    
   115   57   59 1    
   116   57  180 1    
   117   58  181 1    
   118   58  182 1    
   119   58  183 1    
   120   59   60 am   BACKBONE|DICT|INTERRES
   121   59  184 1    
   122   60   61 2    
   123   60   62 1    
   124   62   63 1    
   125   62   64 1    
   126   62  185 1    
   127   63  186 1    
   128   63  187 1    
   129   63  188 1    
   130   64   65 am   BACKBONE|DICT|INTERRES
   131   64  189 1    
   132   65   66 2    
   133   67   68 2    
   134   67   69 am   BACKBONE|DICT|INTERRES
   135   69   70 1    
   136   69  190 1    
   137   70   71 1    
   138   70   72 1    
   139   70  191 1    
   140   71  192 1    
   141   71  193 1    
   142   71  194 1    
   143   72   73 2    
   144   72   74 am   BACKBONE|DICT|INTERRES
   145   74   75 1    
   146   74  195 1    
   147   75   76 1    
   148   75   77 1    
   149   75  196 1    
   150   76  197 1    
   151   76  198 1    
   152   76  199 1    
   153   77   78 2    
   154   77   79 am   BACKBONE|DICT|INTERRES
   155   79   80 1    
   156   79  200 1    
   157   80   81 1    
   158   80   82 1    
   159   80  201 1    
   160   81  202 1    
   161   81  203 1    
   162   81  204 1    
   163   82   83 2    
   164   82   84 am   BACKBONE|DICT|INTERRES
   165   84   85 1    
   166   84  205 1    
   167   85   86 1    
   168   85   87 1    
   169   85  206 1    
   170   86  207 1    
   171   86  208 1    
   172   86  209 1    
   173   87   88 2    
   174   87   89 am   BACKBONE|DICT|INTERRES
   175   89   90 1    
   176   89  210 1    
   177   90   91 1    
   178   90   92 1    
   179   90  211 1    
   180   91  212 1    
   181   91  213 1    
   182   91  214 1    
   183   92   93 2    
   184   92   94 am   BACKBONE|DICT|INTERRES
   185   94   95 1    
   186   94  215 1    
   187   95   96 1    
   188   95   97 1    
   189   95  216 1    
   190   96  217 1    
   191   96  218 1    
   192   96  219 1    
   193   97   98 2    
   194   97   99 am   BACKBONE|DICT|INTERRES
   195   99  100 1    
   196   99  220 1    
   197  100  101 1    
   198  100  102 1    
   199  100  221 1    
   200  101  222 1    
   201  101  223 1    
   202  101  224 1    
   203  102  103 2    
   204  102  104 am   BACKBONE|DICT|INTERRES
   205  104  105 1    
   206  104  225 1    
   207  105  106 1    
   208  105  107 1    
   209  105  226 1    
   210  106  227 1    
   211  106  228 1    
   212  106  229 1    
   213  107  108 2    
   214  107  109 am   BACKBONE|DICT|INTERRES
   215  109  110 1    
   216  109  230 1    
   217  110  111 1    
   218  110  112 1    
   219  110  231 1    
   220  111  232 1    
   221  111  233 1    
   222  111  234 1    
   223  112  113 2    
   224  112  114 am   BACKBONE|DICT|INTERRES
   225  114  115 1    
   226  114  235 1    
   227  115  116 1    
   228  115  117 1    
   229  115  236 1    
   230  116  237 1    
   231  116  238 1    
   232  116  239 1    
   233  117  118 2    
   234  117  119 am   BACKBONE|DICT|INTERRES
   235  119  120 1    
   236  119  240 1    
   237  120  121 1    
   238  120  124 1    
   239  120  241 1    
   240  121  122 am   BACKBONE|DICT|INTERRES
   241  121  123 2    
   242  122  242 1    
   243  122  243 1    
   244  124  125 1    
   245  124  244 1    
   246  124  245 1    
   247  125  126 1    
   248  126  246 1    
   249  126  247 1    
@<TRIPOS>SUBSTRUCTURE
     1 UNK         1 GROUP             0       ****    0 ROOT    
