@<TRIPOS>MOLECULE
3R540
247   249    1
SMALL
USER_CHARGES


@<TRIPOS>ATOM
      1 CA          8.6995  -14.4218  -49.7290 C.3       0 UNK        -0.1800 
      2 C           7.7424  -14.5911  -48.5573 C.2       0 UNK         0.5000 
      3 O           8.1642  -14.9991  -47.4746 O.2       0 UNK        -0.5000 
      4 N           6.4574  -14.2877  -48.7723 N.am      1 UNK        -0.5000 
      5 CA          5.4086  -14.3058  -47.7494 C.3       1 UNK         0.1400 
      6 C6          3.9975  -14.4467  -48.3790 C.3       23 UNK        -0.0398 
      7 S7          3.5327  -13.0850  -49.5105 S.3       23 UNK        -0.2404 
      8 C8          3.5704  -13.9035  -51.1358 C.3       23 UNK        -0.0205 
      9 C9          2.3991  -14.8564  -51.3152 C.ar      23 UNK        -0.0193 
     10 C10         1.1109  -14.3514  -51.5145 C.ar      23 UNK        -0.1150 
     11 C11         0.0217  -15.2120  -51.6767 C.ar      23 UNK        -0.0193 
     12 C12         0.2418  -16.5937  -51.6468 C.ar      23 UNK        -0.1150 
     13 C13         1.5224  -17.1135  -51.4421 C.ar      23 UNK        -0.0193 
     14 C14         2.5993  -16.2389  -51.2802 C.ar      23 UNK        -0.1150 
     15 C15         1.7407  -18.6183  -51.3871 C.3       23 UNK        -0.0205 
     16 S16         1.4660  -19.2723  -49.7100 S.3       23 UNK        -0.2404 
     17 C17        -0.3506  -19.1684  -49.5754 C.3       23 UNK        -0.0398 
     18 CA         -0.9707  -20.3828  -48.8472 C.3       11 UNK         0.1400 
     19 N          -0.4740  -20.5013  -47.4705 N.am      11 UNK        -0.5000 
     20 C          -0.4246  -21.6089  -46.7186 C.2       10 UNK         0.5000 
     21 O          -0.9085  -22.6872  -47.0741 O.2       10 UNK        -0.5000 
     22 CA          0.1979  -21.4758  -45.3138 C.3       10 UNK         0.1400 
     23 CB          0.8575  -22.7753  -44.8178 C.3       10 UNK        -0.1800 
     24 N           1.1074  -20.3373  -45.1772 N.am      10 UNK        -0.5000 
     25 C           2.2959  -20.1302  -45.7655 C.2       9 UNK         0.5000 
     26 O           2.8359  -20.9276  -46.5319 O.2       9 UNK        -0.5000 
     27 CA          3.0066  -18.8031  -45.4213 C.3       9 UNK         0.1400 
     28 CB          3.1242  -17.8865  -46.6515 C.3       9 UNK        -0.1800 
     29 N           2.3080  -18.0844  -44.3495 N.am      9 UNK        -0.5000 
     30 C           2.6156  -18.1829  -43.0490 C.2       8 UNK         0.5000 
     31 O           3.6029  -18.7791  -42.6180 O.2       8 UNK        -0.5000 
     32 CA          1.6244  -17.5440  -42.0617 C.3       8 UNK         0.1400 
     33 CB          1.8071  -16.0217  -42.0044 C.3       8 UNK        -0.1800 
     34 N           0.2287  -17.8523  -42.3823 N.am      8 UNK        -0.5000 
     35 C          -0.3448  -19.0503  -42.1963 C.2       7 UNK         0.5000 
     36 O           0.2692  -20.0442  -41.8107 O.2       7 UNK        -0.5000 
     37 CA         -1.8472  -19.1727  -42.4944 C.3       7 UNK         0.1400 
     38 CB         -2.6720  -18.6878  -41.2922 C.3       7 UNK        -0.1800 
     39 N          -2.2328  -18.4035  -43.6759 N.am      7 UNK        -0.5000 
     40 C          -2.7870  -18.9224  -44.7794 C.2       6 UNK         0.5000 
     41 O          -2.9993  -20.1249  -44.9510 O.2       6 UNK        -0.5000 
     42 CA         -3.1594  -17.9299  -45.8981 C.3       6 UNK         0.1400 
     43 CB         -4.5812  -17.3904  -45.6752 C.3       6 UNK        -0.1800 
     44 N          -2.2522  -16.7869  -46.0326 N.am      6 UNK        -0.5000 
     45 C          -0.9229  -16.8407  -46.1929 C.2       5 UNK         0.5000 
     46 O          -0.2924  -17.8869  -46.3271 O.2       5 UNK        -0.5000 
     47 CA         -0.1583  -15.5044  -46.1373 C.3       5 UNK         0.1400 
     48 CB          0.0609  -14.9647  -47.5598 C.3       5 UNK        -0.1800 
     49 N          -0.7810  -14.4624  -45.3086 N.am      5 UNK        -0.5000 
     50 C          -1.1816  -14.5892  -44.0346 C.2       4 UNK         0.5000 
     51 O          -1.1561  -15.6519  -43.4084 O.2       4 UNK        -0.5000 
     52 CA         -1.6650  -13.3072  -43.3363 C.3       4 UNK         0.1400 
     53 CB         -2.7179  -13.6061  -42.2547 C.3       4 UNK        -0.1800 
     54 N          -0.5296  -12.6299  -42.7165 N.am      4 UNK        -0.5000 
     55 C           0.3634  -11.8732  -43.3666 C.2       3 UNK         0.5000 
     56 O           0.2576  -11.5788  -44.5600 O.2       3 UNK        -0.5000 
     57 CA          1.5648  -11.3356  -42.5535 C.3       3 UNK         0.1400 
     58 CB          1.7813  -12.0504  -41.1997 C.3       3 UNK        -0.1800 
     59 N           2.8109  -11.3310  -43.3293 N.am      3 UNK        -0.5000 
     60 C           3.3966  -12.3874  -43.9094 C.2       2 UNK         0.5000 
     61 O           2.9675  -13.5429  -43.8519 O.2       2 UNK        -0.5000 
     62 CA          4.6959  -12.1099  -44.6759 C.3       2 UNK         0.1400 
     63 CB          5.9053  -12.0579  -43.7262 C.3       2 UNK        -0.1800 
     64 N           4.8736  -13.1814  -45.6470 N.am      2 UNK        -0.5000 
     65 C           5.5060  -13.0761  -46.8176 C.2       1 UNK         0.5000 
     66 O           6.1099  -12.0610  -47.1775 O.2       1 UNK        -0.5000 
     67 C          -2.5164  -20.3739  -48.9233 C.2       11 UNK         0.5000 
     68 O          -3.1050  -19.5932  -49.6736 O.2       11 UNK        -0.5000 
     69 N          -3.1348  -21.2489  -48.1319 N.am      12 UNK        -0.5000 
     70 CA         -4.5479  -21.5938  -48.0915 C.3       12 UNK         0.1400 
     71 CB         -5.4242  -20.4341  -47.5869 C.3       12 UNK        -0.1800 
     72 C          -4.6835  -22.8220  -47.1857 C.2       12 UNK         0.5000 
     73 O          -5.3148  -23.7977  -47.5860 O.2       12 UNK        -0.5000 
     74 N          -4.0449  -22.7642  -46.0054 N.am      13 UNK        -0.5000 
     75 CA         -4.0350  -23.8223  -44.9946 C.3       13 UNK         0.1400 
     76 CB         -3.3462  -23.3000  -43.7231 C.3       13 UNK        -0.1800 
     77 C          -3.3849  -25.1342  -45.4758 C.2       13 UNK         0.5000 
     78 O          -4.0257  -26.1841  -45.4176 O.2       13 UNK        -0.5000 
     79 N          -2.1358  -25.0530  -45.9550 N.am      14 UNK        -0.5000 
     80 CA         -1.3873  -26.1953  -46.4913 C.3       14 UNK         0.1400 
     81 CB          0.1159  -25.9864  -46.2563 C.3       14 UNK        -0.1800 
     82 C          -1.6679  -26.4027  -47.9881 C.2       14 UNK         0.5000 
     83 O          -1.6025  -27.5323  -48.4725 O.2       14 UNK        -0.5000 
     84 N          -2.0000  -25.3085  -48.6857 N.am      15 UNK        -0.5000 
     85 CA         -2.3699  -25.2804  -50.1016 C.3       15 UNK         0.1400 
     86 CB         -2.2514  -23.8326  -50.5908 C.3       15 UNK        -0.1800 
     87 C          -3.7776  -25.8451  -50.3954 C.2       15 UNK         0.5000 
     88 O          -4.1443  -25.9639  -51.5676 O.2       15 UNK        -0.5000 
     89 N          -4.5442  -26.1497  -49.3354 N.am      16 UNK        -0.5000 
     90 CA         -5.8820  -26.7556  -49.3130 C.3       16 UNK         0.1400 
     91 CB         -5.8102  -28.2099  -49.8223 C.3       16 UNK        -0.1800 
     92 C          -6.9576  -25.9291  -50.0487 C.2       16 UNK         0.5000 
     93 O          -7.9436  -26.4924  -50.5266 O.2       16 UNK        -0.5000 
     94 N          -6.7207  -24.6133  -50.1615 N.am      17 UNK        -0.5000 
     95 CA         -7.4522  -23.6354  -50.9759 C.3       17 UNK         0.1400 
     96 CB         -8.8741  -23.4188  -50.4195 C.3       17 UNK        -0.1800 
     97 C          -7.4513  -23.9608  -52.4912 C.2       17 UNK         0.5000 
     98 O          -8.2911  -23.4337  -53.2227 O.2       17 UNK        -0.5000 
     99 N          -6.5325  -24.8313  -52.9347 N.am      18 UNK        -0.5000 
    100 CA        -6.4823  -25.3917  -54.2821 C.3       18 UNK         0.1400 
    101 CB        -6.5042  -26.9265  -54.1877 C.3       18 UNK        -0.1800 
    102 C         -5.2351  -24.9072  -55.0303 C.2       18 UNK         0.5000 
    103 O         -5.3613  -24.3885  -56.1402 O.2       18 UNK        -0.5000 
    104 N         -4.0549  -25.0661  -54.4130 N.am      19 UNK        -0.5000 
    105 CA        -2.7780  -24.6109  -54.9761 C.3       19 UNK         0.1400 
    106 CB        -1.6255  -25.3731  -54.3039 C.3       19 UNK        -0.1800 
    107 C         -2.5882  -23.0860  -54.8472 C.2       19 UNK         0.5000 
    108 O         -1.8797  -22.4835  -55.6540 O.2       19 UNK        -0.5000 
    109 N         -3.2479  -22.5006  -53.8454 N.am      20 UNK        -0.5000 
    110 CA        -3.3264  -21.0869  -53.5127 C.3       20 UNK         0.1400 
    111 CB        -1.9875  -20.5804  -52.9439 C.3       20 UNK        -0.1800 
    112 C         -4.4434  -20.9567  -52.4698 C.2       20 UNK         0.5000 
    113 O         -4.7109  -21.9250  -51.7524 O.2       20 UNK        -0.5000 
    114 N         -5.0720  -19.7804  -52.4004 N.am      21 UNK        -0.5000 
    115 CA        -6.1219  -19.4728  -51.4250 C.3       21 UNK         0.1400 
    116 CB        -7.4986  -19.7299  -52.0640 C.3       21 UNK        -0.1800 
    117 C         -6.0160  -18.0401  -50.8692 C.2       21 UNK         0.5000 
    118 O         -6.8414  -17.6609  -50.0374 O.2       21 UNK        -0.5000 
    119 N         -5.0280  -17.2624  -51.3326 N.am      22 UNK        -0.5000 
    120 CA        -4.7782  -15.8802  -50.8930 C.3       22 UNK         0.1400 
    121 C         -3.9789  -15.7620  -49.5631 C.2       22 UNK         0.5000 
    122 N         -3.3868  -16.8280  -49.0423 N.am      22 UNK        -0.7600 
    123 O         -3.9002  -14.6812  -48.9865 O.2       22 UNK        -0.5000 
    124 C124       -4.1579  -15.0199  -52.0265 C.3       23 UNK        -0.0398 
    125 S125       -2.5848  -15.6779  -52.6839 S.3       23 UNK        -0.2404 
    126 C126       -1.3788  -14.6174  -51.8107 C.3       23 UNK        -0.0205 
    127 H127        9.1787  -15.3725  -49.9632 H         1 UNK         0.0600 
    128 H128        9.4764  -13.6999  -49.4771 H         1 UNK         0.0600 
    129 H129        8.1862  -14.0702  -50.6243 H         1 UNK         0.0600 
    130 H130        6.1807  -13.9049  -49.6643 H         1 UNK         0.3000 
    131 H131        5.5710  -15.1888  -47.1270 H         1 UNK         0.0600 
    132 H132        3.9355  -15.3983  -48.9067 H         1 UNK         0.0800 
    133 H133        3.2376  -14.5079  -47.5985 H         1 UNK         0.0800 
    134 H134        4.5208  -14.4230  -51.2659 H         1 UNK         0.0800 
    135 H135        3.5312  -13.1406  -51.9146 H         1 UNK         0.0800 
    136 H136        0.9561  -13.2814  -51.5227 H         1 UNK         0.1150 
    137 H137       -0.5883  -17.2715  -51.7655 H         1 UNK         0.1150 
    138 H138        3.5916  -16.6364  -51.1195 H         1 UNK         0.1150 
    139 H139        1.0879  -19.1254  -52.0993 H         1 UNK         0.0800 
    140 H140        2.7610  -18.8563  -51.6913 H         1 UNK         0.0800 
    141 H141       -0.7598  -19.1108  -50.5827 H         1 UNK         0.0800 
    142 H142       -0.6141  -18.2337  -49.0781 H         1 UNK         0.0800 
    143 H143       -0.6542  -21.2770  -49.3873 H         1 UNK         0.0600 
    144 H144       -0.1369  -19.6347  -47.0598 H         1 UNK         0.3000 
    145 H145       -0.6317  -21.2657  -44.6398 H         1 UNK         0.0600 
    146 H146        1.3368  -22.6294  -43.8496 H         1 UNK         0.0600 
    147 H147        0.1139  -23.5604  -44.6892 H         1 UNK         0.0600 
    148 H148        1.6113  -23.1407  -45.5157 H         1 UNK         0.0600 
    149 H149        0.7726  -19.5946  -44.5831 H         1 UNK         0.3000 
    150 H150        4.0196  -19.0555  -45.1016 H         1 UNK         0.0600 
    151 H151        3.6980  -18.3705  -47.4427 H         1 UNK         0.0600 
    152 H152        3.6362  -16.9575  -46.4019 H         1 UNK         0.0600 
    153 H153        2.1522  -17.6314  -47.0707 H         1 UNK         0.0600 
    154 H154        1.4726  -17.5845  -44.6155 H         1 UNK         0.3000 
    155 H155        1.8415  -17.9434  -41.0686 H         1 UNK         0.0600 
    156 H156        2.8360  -15.7558  -41.7587 H         1 UNK         0.0600 
    157 H157        1.1635  -15.5758  -41.2460 H         1 UNK         0.0600 
    158 H158        1.5673  -15.5556  -42.9596 H         1 UNK         0.0600 
    159 H159       -0.3387  -17.0681  -42.6979 H         1 UNK         0.3000 
    160 H160       -2.0607  -20.2337  -42.6411 H         1 UNK         0.0600 
    161 H161       -2.5123  -17.6267  -41.0954 H         1 UNK         0.0600 
    162 H162       -2.4059  -19.2357  -40.3873 H         1 UNK         0.0600 
    163 H163       -3.7380  -18.8392  -41.4623 H         1 UNK         0.0600 
    164 H164       -2.0584  -17.4043  -43.6438 H         1 UNK         0.3000 
    165 H165       -3.1415  -18.4876  -46.8337 H         1 UNK         0.0600 
    166 H166       -4.9361  -16.8393  -46.5464 H         1 UNK         0.0600 
    167 H167       -5.2936  -18.1941  -45.4906 H         1 UNK         0.0600 
    168 H168       -4.6245  -16.7214  -44.8148 H         1 UNK         0.0600 
    169 H169       -2.6636  -15.8750  -45.8932 H         1 UNK         0.3000 
    170 H170        0.8202  -15.7112  -45.7004 H         1 UNK         0.0600 
    171 H171        0.5587  -15.7036  -48.1906 H         1 UNK         0.0600 
    172 H172       -0.8825  -14.7065  -48.0429 H         1 UNK         0.0600 
    173 H173        0.6884  -14.0733  -47.5535 H         1 UNK         0.0600 
    174 H174       -0.7964  -13.5343  -45.7099 H         1 UNK         0.3000 
    175 H175       -2.1229  -12.6525  -44.0809 H         1 UNK         0.0600 
    176 H176       -3.5724  -14.1354  -42.6785 H         1 UNK         0.0600 
    177 H177       -2.3141  -14.2251  -41.4522 H         1 UNK         0.0600 
    178 H178       -3.0948  -12.6858  -41.8085 H         1 UNK         0.0600 
    179 H179       -0.3580  -12.8465  -41.7456 H         1 UNK         0.3000 
    180 H180        1.3363  -10.2906  -42.3400 H         1 UNK         0.0600 
    181 H181        1.9454  -13.1208  -41.3257 H         1 UNK         0.0600 
    182 H182        0.9268  -11.9173  -40.5354 H         1 UNK         0.0600 
    183 H183        2.6495  -11.6446  -40.6803 H         1 UNK         0.0600 
    184 H184        3.2298  -10.4213  -43.4617 H         1 UNK         0.3000 
    185 H185        4.5927  -11.1554  -45.1966 H         1 UNK         0.0600 
    186 H186        5.7886  -11.2663  -42.9852 H         1 UNK         0.0600 
    187 H187        6.0318  -12.9977  -43.1872 H         1 UNK         0.0600 
    188 H188        6.8279  -11.8582  -44.2716 H         1 UNK         0.0600 
    189 H189        4.3531  -14.0183  -45.4131 H         1 UNK         0.3000 
    190 H190       -2.5308  -21.8470  -47.5759 H         1 UNK         0.3000 
    191 H191       -4.8636  -21.8674  -49.0991 H         1 UNK         0.0600 
    192 H192       -5.2221  -20.2104  -46.5412 H         1 UNK         0.0600 
    193 H193       -6.4810  -20.6911  -47.6643 H         1 UNK         0.0600 
    194 H194       -5.2723  -19.5212  -48.1616 H         1 UNK         0.0600 
    195 H195       -3.6063  -21.8886  -45.7349 H         1 UNK         0.3000 
    196 H196       -5.0745  -24.0449  -44.7449 H         1 UNK         0.0600 
    197 H197       -3.3276  -24.0642  -42.9450 H         1 UNK         0.0600 
    198 H198       -3.8736  -22.4363  -43.3173 H         1 UNK         0.0600 
    199 H199       -2.3161  -22.9989  -43.9138 H         1 UNK         0.0600 
    200 H200       -1.6927  -24.1446  -46.0407 H         1 UNK         0.3000 
    201 H201       -1.6839  -27.1063  -45.9669 H         1 UNK         0.0600 
    202 H202        0.3404  -25.9010  -45.1933 H         1 UNK         0.0600 
    203 H203        0.4824  -25.0892  -46.7560 H         1 UNK         0.0600 
    204 H204        0.6908  -26.8306  -46.6391 H         1 UNK         0.0600 
    205 H205       -1.9739  -24.4199  -48.2052 H         1 UNK         0.3000 
    206 H206       -1.6547  -25.8904  -50.6569 H         1 UNK         0.0600 
    207 H207       -1.2506  -23.4356  -50.4221 H         1 UNK         0.0600 
    208 H208       -2.4496  -23.7639  -51.6568 H         1 UNK         0.0600 
    209 H209       -2.9662  -23.1835  -50.0887 H         1 UNK         0.0600 
    210 H210       -4.1646  -25.9366  -48.4236 H         1 UNK         0.3000 
    211 H211       -6.1853  -26.7822  -48.2654 H         1 UNK         0.0600 
    212 H212       -5.5758  -28.2527  -50.8866 H         1 UNK         0.0600 
    213 H213       -6.7593  -28.7264  -49.6748 H         1 UNK         0.0600 
    214 H214       -5.0480  -28.7772  -49.2879 H         1 UNK         0.0600 
    215 H215       -5.9100  -24.2575  -49.6708 H         1 UNK         0.3000 
    216 H216       -6.9238  -22.6908  -50.8607 H         1 UNK         0.0600 
    217 H217       -9.3639  -22.5795  -50.9144 H         1 UNK         0.0600 
    218 H218       -8.8494  -23.1940  -49.3532 H         1 UNK         0.0600 
    219 H219       -9.5046  -24.2963  -50.5641 H         1 UNK         0.0600 
    220 H220       -5.8506  -25.1923  -52.2758 H         1 UNK         0.3000 
    221 H221       -7.3555  -25.0823  -54.8601 H         1 UNK         0.0600 
    222 H222       -5.6667  -27.3117  -53.6045 H         1 UNK         0.0600 
    223 H223       -7.4230  -27.2750  -53.7153 H         1 UNK         0.0600 
    224 H224       -6.4541  -27.3807  -55.1780 H         1 UNK         0.0600 
    225 H225       -4.0285  -25.4971  -53.4937 H         1 UNK         0.3000 
    226 H226       -2.7593  -24.8526  -56.0411 H         1 UNK         0.0600 
    227 H227       -1.7121  -26.4458  -54.4770 H         1 UNK         0.0600 
    228 H228       -0.6618  -25.0567  -54.7051 H         1 UNK         0.0600 
    229 H229       -1.6011  -25.2119  -53.2273 H         1 UNK         0.0600 
    230 H230       -3.8265  -23.0734  -53.2428 H         1 UNK         0.3000 
    231 H231       -3.5956  -20.5228  -54.4076 H         1 UNK         0.0600 
    232 H232       -1.1834  -20.6650  -53.6744 H         1 UNK         0.0600 
    233 H233       -1.6929  -21.1400  -52.0555 H         1 UNK         0.0600 
    234 H234       -2.0577  -19.5292  -52.6622 H         1 UNK         0.0600 
    235 H235       -4.8340  -19.0494  -53.0544 H         1 UNK         0.3000 
    236 H236       -6.0197  -20.1285  -50.5584 H         1 UNK         0.0600 
    237 H237       -8.3033  -19.5674  -51.3461 H         1 UNK         0.0600 
    238 H238       -7.6744  -19.0687  -52.9131 H         1 UNK         0.0600 
    239 H239       -7.5853  -20.7568  -52.4180 H         1 UNK         0.0600 
    240 H240       -4.3347  -17.6524  -51.9509 H         1 UNK         0.3000 
    241 H241       -5.7477  -15.4288  -50.6733 H         1 UNK         0.0600 
    242 H242       -2.8876  -16.7218  -48.1770 H         1 UNK         0.3800 
    243 H243       -3.4448  -17.7408  -49.4853 H         1 UNK         0.3800 
    244 H244       -4.8615  -14.9677  -52.8582 H         1 UNK         0.0800 
    245 H245       -4.0224  -13.9869  -51.7010 H         1 UNK         0.0800 
    246 H246       -1.3297  -13.6593  -52.3303 H         1 UNK         0.0800 
    247 H247       -1.7371  -14.4048  -50.8035 H         1 UNK         0.0800 
@<TRIPOS>BOND
     1    1    2 1    
     2    1  127 1    
     3    1  128 1    
     4    1  129 1    
     5    2    3 2    
     6    2    4 am   BACKBONE|DICT|INTERRES
     7    4    5 1    
     8    4  130 1    
     9    5    6 1    
    10    5   65 1    
    11    5  131 1    
    12    6    7 1    
    13    6  132 1    
    14    6  133 1    
    15    7    8 1    
    16    8    9 1    
    17    8  134 1    
    18    8  135 1    
    19    9   10 ar   
    20    9   14 ar   
    21   10   11 ar   
    22   10  136 1    
    23   11   12 ar   
    24   11  126 1    
    25   12   13 ar   
    26   12  137 1    
    27   13   14 ar   
    28   13   15 1    
    29   14  138 1    
    30   15   16 1    
    31   15  139 1    
    32   15  140 1    
    33   16   17 1    
    34   17   18 1    
    35   17  141 1    
    36   17  142 1    
    37   18   19 1    
    38   18   67 1    
    39   18  143 1    
    40   19   20 am   BACKBONE|DICT|INTERRES
    41   19  144 1    
    42   20   21 2    
    43   20   22 1    
    44   22   23 1    
    45   22   24 1    
    46   22  145 1    
    47   23  146 1    
    48   23  147 1    
    49   23  148 1    
    50   24   25 am   BACKBONE|DICT|INTERRES
    51   24  149 1    
    52   25   26 2    
    53   25   27 1    
    54   27   28 1    
    55   27   29 1    
    56   27  150 1    
    57   28  151 1    
    58   28  152 1    
    59   28  153 1    
    60   29   30 am   BACKBONE|DICT|INTERRES
    61   29  154 1    
    62   30   31 2    
    63   30   32 1    
    64   32   33 1    
    65   32   34 1    
    66   32  155 1    
    67   33  156 1    
    68   33  157 1    
    69   33  158 1    
    70   34   35 am   BACKBONE|DICT|INTERRES
    71   34  159 1    
    72   35   36 2    
    73   35   37 1    
    74   37   38 1    
    75   37   39 1    
    76   37  160 1    
    77   38  161 1    
    78   38  162 1    
    79   38  163 1    
    80   39   40 am   BACKBONE|DICT|INTERRES
    81   39  164 1    
    82   40   41 2    
    83   40   42 1    
    84   42   43 1    
    85   42   44 1    
    86   42  165 1    
    87   43  166 1    
    88   43  167 1    
    89   43  168 1    
    90   44   45 am   BACKBONE|DICT|INTERRES
    91   44  169 1    
    92   45   46 2    
    93   45   47 1    
    94   47   48 1    
    95   47   49 1    
    96   47  170 1    
    97   48  171 1    
    98   48  172 1    
    99   48  173 1    
   100   49   50 am   BACKBONE|DICT|INTERRES
   101   49  174 1    
   102   50   51 2    
   103   50   52 1    
   104   52   53 1    
   105   52   54 1    
   106   52  175 1    
   107   53  176 1    
   108   53  177 1    
   109   53  178 1    
   110   54   55 am   BACKBONE|DICT|INTERRES
   111   54  179 1    
   112   55   56 2    
   113   55   57 1    
   114   57   58 1    
   115   57   59 1    
   116   57  180 1    
   117   58  181 1    
   118   58  182 1    
   119   58  183 1    
   120   59   60 am   BACKBONE|DICT|INTERRES
   121   59  184 1    
   122   60   61 2    
   123   60   62 1    
   124   62   63 1    
   125   62   64 1    
   126   62  185 1    
   127   63  186 1    
   128   63  187 1    
   129   63  188 1    
   130   64   65 am   BACKBONE|DICT|INTERRES
   131   64  189 1    
   132   65   66 2    
   133   67   68 2    
   134   67   69 am   BACKBONE|DICT|INTERRES
   135   69   70 1    
   136   69  190 1    
   137   70   71 1    
   138   70   72 1    
   139   70  191 1    
   140   71  192 1    
   141   71  193 1    
   142   71  194 1    
   143   72   73 2    
   144   72   74 am   BACKBONE|DICT|INTERRES
   145   74   75 1    
   146   74  195 1    
   147   75   76 1    
   148   75   77 1    
   149   75  196 1    
   150   76  197 1    
   151   76  198 1    
   152   76  199 1    
   153   77   78 2    
   154   77   79 am   BACKBONE|DICT|INTERRES
   155   79   80 1    
   156   79  200 1    
   157   80   81 1    
   158   80   82 1    
   159   80  201 1    
   160   81  202 1    
   161   81  203 1    
   162   81  204 1    
   163   82   83 2    
   164   82   84 am   BACKBONE|DICT|INTERRES
   165   84   85 1    
   166   84  205 1    
   167   85   86 1    
   168   85   87 1    
   169   85  206 1    
   170   86  207 1    
   171   86  208 1    
   172   86  209 1    
   173   87   88 2    
   174   87   89 am   BACKBONE|DICT|INTERRES
   175   89   90 1    
   176   89  210 1    
   177   90   91 1    
   178   90   92 1    
   179   90  211 1    
   180   91  212 1    
   181   91  213 1    
   182   91  214 1    
   183   92   93 2    
   184   92   94 am   BACKBONE|DICT|INTERRES
   185   94   95 1    
   186   94  215 1    
   187   95   96 1    
   188   95   97 1    
   189   95  216 1    
   190   96  217 1    
   191   96  218 1    
   192   96  219 1    
   193   97   98 2    
   194   97   99 am   BACKBONE|DICT|INTERRES
   195   99  100 1    
   196   99  220 1    
   197  100  101 1    
   198  100  102 1    
   199  100  221 1    
   200  101  222 1    
   201  101  223 1    
   202  101  224 1    
   203  102  103 2    
   204  102  104 am   BACKBONE|DICT|INTERRES
   205  104  105 1    
   206  104  225 1    
   207  105  106 1    
   208  105  107 1    
   209  105  226 1    
   210  106  227 1    
   211  106  228 1    
   212  106  229 1    
   213  107  108 2    
   214  107  109 am   BACKBONE|DICT|INTERRES
   215  109  110 1    
   216  109  230 1    
   217  110  111 1    
   218  110  112 1    
   219  110  231 1    
   220  111  232 1    
   221  111  233 1    
   222  111  234 1    
   223  112  113 2    
   224  112  114 am   BACKBONE|DICT|INTERRES
   225  114  115 1    
   226  114  235 1    
   227  115  116 1    
   228  115  117 1    
   229  115  236 1    
   230  116  237 1    
   231  116  238 1    
   232  116  239 1    
   233  117  118 2    
   234  117  119 am   BACKBONE|DICT|INTERRES
   235  119  120 1    
   236  119  240 1    
   237  120  121 1    
   238  120  124 1    
   239  120  241 1    
   240  121  122 am   BACKBONE|DICT|INTERRES
   241  121  123 2    
   242  122  242 1    
   243  122  243 1    
   244  124  125 1    
   245  124  244 1    
   246  124  245 1    
   247  125  126 1    
   248  126  246 1    
   249  126  247 1    
@<TRIPOS>SUBSTRUCTURE
     1 UNK         1 GROUP             0       ****    0 ROOT    
