@<TRIPOS>MOLECULE
3R540
247   249    1
SMALL
USER_CHARGES


@<TRIPOS>ATOM
      1 CA          0.0738  -15.8280  -41.9785 C.3       0 UNK        -0.1800 
      2 C           0.2483  -14.5324  -42.7530 C.2       0 UNK         0.5000 
      3 O           1.2271  -13.8138  -42.5480 O.2       0 UNK        -0.5000 
      4 N          -0.7147  -14.2319  -43.6291 N.am      1 UNK        -0.5000 
      5 CA         -0.7421  -13.0380  -44.4801 C.3       1 UNK         0.1400 
      6 C6         -2.1726  -12.7398  -44.9965 C.3       23 UNK        -0.0398 
      7 S7         -3.3580  -12.5040  -43.6262 S.3       23 UNK        -0.2404 
      8 C8         -4.8683  -13.2833  -44.2799 C.3       23 UNK        -0.0205 
      9 C9         -4.7004  -14.7723  -44.5496 C.ar      23 UNK        -0.0193 
     10 C10        -4.7511  -15.2552  -45.8601 C.ar      23 UNK        -0.1150 
     11 C11        -4.6324  -16.6226  -46.1205 C.ar      23 UNK        -0.0193 
     12 C12        -4.4524  -17.5123  -45.0587 C.ar      23 UNK        -0.1150 
     13 C13        -4.4017  -17.0417  -43.7426 C.ar      23 UNK        -0.0193 
     14 C14        -4.5257  -15.6713  -43.4933 C.ar      23 UNK        -0.1150 
     15 C15        -4.2341  -18.0197  -42.5931 C.3       23 UNK        -0.0205 
     16 S16        -2.4854  -18.4603  -42.3658 S.3       23 UNK        -0.2404 
     17 C17        -2.6027  -20.2703  -42.1809 C.3       23 UNK        -0.0398 
     18 CA         -2.5717  -21.0135  -43.5399 C.3       11 UNK         0.1400 
     19 N          -1.4204  -20.6499  -44.3662 N.am      11 UNK        -0.5000 
     20 C          -1.3026  -20.9120  -45.6739 C.2       10 UNK         0.5000 
     21 O          -2.1744  -21.4602  -46.3471 O.2       10 UNK        -0.5000 
     22 CA          0.0323  -20.5273  -46.3312 C.3       10 UNK         0.1400 
     23 CB         -0.0127  -19.0598  -46.7842 C.3       10 UNK        -0.1800 
     24 N           1.1698  -20.7429  -45.4333 N.am      10 UNK        -0.5000 
     25 C           1.5896  -21.9534  -45.0284 C.2       9 UNK         0.5000 
     26 O           1.0845  -23.0068  -45.4113 O.2       9 UNK        -0.5000 
     27 CA          2.7195  -22.0082  -43.9793 C.3       9 UNK         0.1400 
     28 CB          4.0906  -22.0751  -44.6667 C.3       9 UNK        -0.1800 
     29 N           2.7059  -20.8780  -43.0525 N.am      9 UNK        -0.5000 
     30 C           1.6796  -20.5364  -42.2619 C.2       8 UNK         0.5000 
     31 O           0.6720  -21.2308  -42.1228 O.2       8 UNK        -0.5000 
     32 CA          1.7592  -19.1609  -41.5662 C.3       8 UNK         0.1400 
     33 CB          2.0942  -19.3307  -40.0777 C.3       8 UNK        -0.1800 
     34 N           2.7133  -18.2154  -42.1678 N.am      8 UNK        -0.5000 
     35 C           2.7029  -17.7898  -43.4399 C.2       7 UNK         0.5000 
     36 O           1.8848  -18.1756  -44.2797 O.2       7 UNK        -0.5000 
     37 CA          3.8215  -16.8223  -43.8537 C.3       7 UNK         0.1400 
     38 CB          5.2052  -17.4925  -43.7236 C.3       7 UNK        -0.1800 
     39 N           3.5911  -16.4265  -45.2375 N.am      7 UNK        -0.5000 
     40 C           4.1773  -15.4205  -45.8936 C.2       6 UNK         0.5000 
     41 O           4.9784  -14.6417  -45.3728 O.2       6 UNK        -0.5000 
     42 CA          3.8096  -15.2775  -47.3871 C.3       6 UNK         0.1400 
     43 CB          4.8183  -14.4260  -48.1851 C.3       6 UNK        -0.1800 
     44 N           3.5702  -16.5616  -48.0576 N.am      6 UNK        -0.5000 
     45 C           4.4303  -17.5829  -48.2097 C.2       5 UNK         0.5000 
     46 O           5.5899  -17.5696  -47.7961 O.2       5 UNK        -0.5000 
     47 CA          3.9131  -18.8470  -48.9316 C.3       5 UNK         0.1400 
     48 CB          3.6975  -19.9849  -47.9219 C.3       5 UNK        -0.1800 
     49 N           2.6702  -18.6193  -49.6759 N.am      5 UNK        -0.5000 
     50 C           2.6144  -18.0128  -50.8689 C.2       4 UNK         0.5000 
     51 O           3.6133  -17.6682  -51.5028 O.2       4 UNK        -0.5000 
     52 CA          1.2211  -17.6814  -51.4467 C.3       4 UNK         0.1400 
     53 CB          0.0348  -18.3304  -50.6939 C.3       4 UNK        -0.1800 
     54 N           1.0591  -16.2256  -51.5490 N.am      4 UNK        -0.5000 
     55 C           1.1026  -15.3571  -50.5275 C.2       3 UNK         0.5000 
     56 O           1.1246  -15.7059  -49.3454 O.2       3 UNK        -0.5000 
     57 CA          1.2168  -13.8660  -50.9079 C.3       3 UNK         0.1400 
     58 CB          0.0123  -13.3730  -51.7371 C.3       3 UNK        -0.1800 
     59 N           1.4764  -13.0065  -49.7443 N.am      3 UNK        -0.5000 
     60 C           0.6364  -12.6887  -48.7479 C.2       2 UNK         0.5000 
     61 O          -0.5711  -12.9400  -48.7410 O.2       2 UNK        -0.5000 
     62 CA          1.2710  -11.9217  -47.5677 C.3       2 UNK         0.1400 
     63 CB          1.4443  -10.4354  -47.9198 C.3       2 UNK        -0.1800 
     64 N           0.4818  -12.0203  -46.3383 N.am      2 UNK        -0.5000 
     65 C           0.2550  -13.1508  -45.6549 C.2       1 UNK         0.5000 
     66 O           0.7823  -14.2316  -45.9288 O.2       1 UNK        -0.5000 
     67 C          -2.6227  -22.5373  -43.3294 C.2       11 UNK         0.5000 
     68 O          -3.6842  -23.1381  -43.4948 O.2       11 UNK        -0.5000 
     69 N          -1.4643  -23.1347  -43.0110 N.am      12 UNK        -0.5000 
     70 CA         -1.2909  -24.5742  -42.8065 C.3       12 UNK         0.1400 
     71 CB          0.1251  -24.8448  -42.2767 C.3       12 UNK        -0.1800 
     72 C          -1.5662  -25.4034  -44.0754 C.2       12 UNK         0.5000 
     73 O          -2.2129  -26.4478  -43.9907 O.2       12 UNK        -0.5000 
     74 N          -1.0963  -24.9104  -45.2291 N.am      13 UNK        -0.5000 
     75 CA         -1.3065  -25.5200  -46.5436 C.3       13 UNK         0.1400 
     76 CB         -0.1832  -25.0592  -47.4862 C.3       13 UNK        -0.1800 
     77 C          -2.6833  -25.1998  -47.1592 C.2       13 UNK         0.5000 
     78 O          -2.9987  -25.7454  -48.2173 O.2       13 UNK        -0.5000 
     79 N          -3.4566  -24.3030  -46.5275 N.am      14 UNK        -0.5000 
     80 CA         -4.7611  -23.7901  -46.9615 C.3       14 UNK         0.1400 
     81 CB         -5.8357  -24.8917  -46.8567 C.3       14 UNK        -0.1800 
     82 C          -4.6912  -23.1477  -48.3622 C.2       14 UNK         0.5000 
     83 O          -5.4440  -23.5274  -49.2609 O.2       14 UNK        -0.5000 
     84 N          -3.7312  -22.2261  -48.5310 N.am      15 UNK        -0.5000 
     85 CA         -3.3621  -21.5542  -49.7821 C.3       15 UNK         0.1400 
     86 CB         -4.4842  -20.6003  -50.2406 C.3       15 UNK        -0.1800 
     87 C          -2.9296  -22.5533  -50.8764 C.2       15 UNK         0.5000 
     88 O          -3.3196  -22.4106  -52.0354 O.2       15 UNK        -0.5000 
     89 N          -2.1569  -23.5724  -50.4693 N.am      16 UNK        -0.5000 
     90 CA         -1.7080  -24.7143  -51.2754 C.3       16 UNK         0.1400 
     91 CB         -0.7056  -24.2546  -52.3557 C.3       16 UNK        -0.1800 
     92 C          -2.8979  -25.5118  -51.8488 C.2       16 UNK         0.5000 
     93 O          -2.9510  -25.7657  -53.0515 O.2       16 UNK        -0.5000 
     94 N          -3.8609  -25.8380  -50.9740 N.am      17 UNK        -0.5000 
     95 CA         -5.1701  -26.4267  -51.2819 C.3       17 UNK         0.1400 
     96 CB         -5.0155  -27.8908  -51.7425 C.3       17 UNK        -0.1800 
     97 C          -5.9834  -25.5582  -52.2691 C.2       17 UNK         0.5000 
     98 O          -6.5512  -26.0714  -53.2351 O.2       17 UNK        -0.5000 
     99 N          -5.9893  -24.2442  -52.0050 N.am      18 UNK        -0.5000 
    100 CA        -6.6102  -23.1637  -52.7777 C.3       18 UNK         0.1400 
    101 CB        -8.1468  -23.3024  -52.7658 C.3       18 UNK        -0.1800 
    102 C         -6.0410  -22.9667  -54.2020 C.2       18 UNK         0.5000 
    103 O         -6.7034  -22.3408  -55.0323 O.2       18 UNK        -0.5000 
    104 N         -4.8324  -23.4795  -54.4733 N.am      19 UNK        -0.5000 
    105 CA        -4.1364  -23.2989  -55.7484 C.3       19 UNK         0.1400 
    106 CB        -3.1374  -24.4452  -55.9609 C.3       19 UNK        -0.1800 
    107 C         -3.4157  -21.9417  -55.8398 C.2       19 UNK         0.5000 
    108 O         -3.2929  -21.4011  -56.9403 O.2       19 UNK        -0.5000 
    109 N         -2.9434  -21.4184  -54.7007 N.am      20 UNK        -0.5000 
    110 CA        -2.2868  -20.1169  -54.6011 C.3       20 UNK         0.1400 
    111 CB        -1.3028  -20.1416  -53.4222 C.3       20 UNK        -0.1800 
    112 C         -3.3211  -18.9931  -54.4175 C.2       20 UNK         0.5000 
    113 O         -4.4437  -19.2499  -53.9754 O.2       20 UNK        -0.5000 
    114 N         -2.9123  -17.7598  -54.7457 N.am      21 UNK        -0.5000 
    115 CA        -3.7378  -16.5560  -54.6308 C.3       21 UNK         0.1400 
    116 CB        -3.0429  -15.3834  -55.3426 C.3       21 UNK        -0.1800 
    117 C         -4.0642  -16.2033  -53.1686 C.2       21 UNK         0.5000 
    118 O         -5.2398  -16.0738  -52.8260 O.2       21 UNK        -0.5000 
    119 N         -3.0158  -16.0786  -52.3390 N.am      22 UNK        -0.5000 
    120 CA        -3.1009  -15.8058  -50.8906 C.3       22 UNK         0.1400 
    121 C         -3.7859  -14.4461  -50.5232 C.2       22 UNK         0.5000 
    122 N         -3.7596  -13.4484  -51.3998 N.am      22 UNK        -0.7600 
    123 O         -4.3458  -14.2774  -49.4445 O.2       22 UNK        -0.5000 
    124 C124       -3.6659  -17.0389  -50.1303 C.3       23 UNK        -0.0398 
    125 S125       -3.1281  -17.1423  -48.3881 S.3       23 UNK        -0.2404 
    126 C126       -4.7415  -17.1304  -47.5479 C.3       23 UNK        -0.0205 
    127 H127       -0.8126  -15.7787  -41.3457 H         1 UNK         0.0600 
    128 H128        0.9371  -16.0215  -41.3418 H         1 UNK         0.0600 
    129 H129       -0.0403  -16.6641  -42.6681 H         1 UNK         0.0600 
    130 H130       -1.4829  -14.8739  -43.7604 H         1 UNK         0.3000 
    131 H131       -0.4227  -12.1892  -43.8712 H         1 UNK         0.0600 
    132 H132       -2.1898  -11.8312  -45.6002 H         1 UNK         0.0800 
    133 H133       -2.5077  -13.5429  -45.6541 H         1 UNK         0.0800 
    134 H134       -5.6751  -13.1436  -43.5592 H         1 UNK         0.0800 
    135 H135       -5.1747  -12.7564  -45.1850 H         1 UNK         0.0800 
    136 H136       -4.8921  -14.5683  -46.6836 H         1 UNK         0.1150 
    137 H137       -4.3587  -18.5711  -45.2556 H         1 UNK         0.1150 
    138 H138       -4.4909  -15.3022  -42.4777 H         1 UNK         0.1150 
    139 H139       -4.6189  -17.5946  -41.6649 H         1 UNK         0.0800 
    140 H140       -4.8344  -18.9083  -42.7928 H         1 UNK         0.0800 
    141 H141       -3.5111  -20.5158  -41.6280 H         1 UNK         0.0800 
    142 H142       -1.7761  -20.5881  -41.5445 H         1 UNK         0.0800 
    143 H143       -3.4718  -20.7324  -44.0911 H         1 UNK         0.0600 
    144 H144       -0.6460  -20.2156  -43.8861 H         1 UNK         0.3000 
    145 H145        0.1699  -21.1564  -47.2132 H         1 UNK         0.0600 
    146 H146       -0.2122  -18.3848  -45.9508 H         1 UNK         0.0600 
    147 H147        0.9214  -18.7468  -47.2463 H         1 UNK         0.0600 
    148 H148       -0.8058  -18.9089  -47.5167 H         1 UNK         0.0600 
    149 H149        1.5889  -19.9085  -45.0317 H         1 UNK         0.3000 
    150 H150        2.5841  -22.9194  -43.3944 H         1 UNK         0.0600 
    151 H151        4.1297  -22.8944  -45.3860 H         1 UNK         0.0600 
    152 H152        4.8866  -22.2428  -43.9411 H         1 UNK         0.0600 
    153 H153        4.3161  -21.1535  -45.2034 H         1 UNK         0.0600 
    154 H154        3.4927  -20.2487  -43.0981 H         1 UNK         0.3000 
    155 H155        0.7649  -18.7176  -41.6408 H         1 UNK         0.0600 
    156 H156        1.3882  -20.0059  -39.5920 H         1 UNK         0.0600 
    157 H157        2.0434  -18.3778  -39.5506 H         1 UNK         0.0600 
    158 H158        3.0940  -19.7427  -39.9353 H         1 UNK         0.0600 
    159 H159        3.4287  -17.8627  -41.5483 H         1 UNK         0.3000 
    160 H160        3.7670  -15.9390  -43.2144 H         1 UNK         0.0600 
    161 H161        6.0068  -16.8127  -44.0119 H         1 UNK         0.0600 
    162 H162        5.2806  -18.3785  -44.3557 H         1 UNK         0.0600 
    163 H163        5.4074  -17.8002  -42.6973 H         1 UNK         0.0600 
    164 H164        2.8862  -16.9817  -45.7069 H         1 UNK         0.3000 
    165 H165        2.8564  -14.7518  -47.4109 H         1 UNK         0.0600 
    166 H166        5.8188  -14.8585  -48.1622 H         1 UNK         0.0600 
    167 H167        4.5164  -14.3340  -49.2284 H         1 UNK         0.0600 
    168 H168        4.8882  -13.4171  -47.7771 H         1 UNK         0.0600 
    169 H169        2.6419  -16.6470  -48.4605 H         1 UNK         0.3000 
    170 H170        4.6860  -19.1659  -49.6343 H         1 UNK         0.0600 
    171 H171        3.0570  -19.6743  -47.0981 H         1 UNK         0.0600 
    172 H172        3.2505  -20.8618  -48.3904 H         1 UNK         0.0600 
    173 H173        4.6486  -20.2976  -47.4897 H         1 UNK         0.0600 
    174 H174        1.8068  -18.8574  -49.2123 H         1 UNK         0.3000 
    175 H175        1.2173  -18.0686  -52.4663 H         1 UNK         0.0600 
    176 H176       -0.0509  -17.9862  -49.6639 H         1 UNK         0.0600 
    177 H177       -0.9071  -18.0981  -51.1885 H         1 UNK         0.0600 
    178 H178        0.1268  -19.4170  -50.6752 H         1 UNK         0.0600 
    179 H179        1.1023  -15.8566  -52.4882 H         1 UNK         0.3000 
    180 H180        2.1048  -13.7782  -51.5356 H         1 UNK         0.0600 
    181 H181       -0.9309  -13.5300  -51.2171 H         1 UNK         0.0600 
    182 H182       -0.0541  -13.8966  -52.6909 H         1 UNK         0.0600 
    183 H183        0.0970  -12.3094  -51.9600 H         1 UNK         0.0600 
    184 H184        2.4412  -12.7265  -49.6437 H         1 UNK         0.3000 
    185 H185        2.2554  -12.3495  -47.3676 H         1 UNK         0.0600 
    186 H186        1.9295   -9.8909  -47.1094 H         1 UNK         0.0600 
    187 H187        2.0646  -10.3101  -48.8081 H         1 UNK         0.0600 
    188 H188        0.4853   -9.9561  -48.1205 H         1 UNK         0.0600 
    189 H189        0.0025  -11.1775  -46.0584 H         1 UNK         0.3000 
    190 H190       -0.6453  -22.5519  -42.8665 H         1 UNK         0.3000 
    191 H191       -2.0054  -24.8877  -42.0425 H         1 UNK         0.0600 
    192 H192        0.8862  -24.5705  -43.0071 H         1 UNK         0.0600 
    193 H193        0.3200  -24.2840  -41.3623 H         1 UNK         0.0600 
    194 H194        0.2590  -25.9024  -42.0461 H         1 UNK         0.0600 
    195 H195       -0.5107  -24.0796  -45.2090 H         1 UNK         0.3000 
    196 H196       -1.2392  -26.6052  -46.4436 H         1 UNK         0.0600 
    197 H197        0.7982  -25.2809  -47.0665 H         1 UNK         0.0600 
    198 H198       -0.2307  -23.9860  -47.6755 H         1 UNK         0.0600 
    199 H199       -0.2416  -25.5704  -48.4467 H         1 UNK         0.0600 
    200 H200       -3.0958  -23.8944  -45.6758 H         1 UNK         0.3000 
    201 H201       -5.0298  -22.9935  -46.2661 H         1 UNK         0.0600 
    202 H202       -6.8246  -24.4946  -47.0885 H         1 UNK         0.0600 
    203 H203       -5.8788  -25.3030  -45.8482 H         1 UNK         0.0600 
    204 H204       -5.6445  -25.7146  -47.5462 H         1 UNK         0.0600 
    205 H205       -3.1614  -21.9843  -47.7195 H         1 UNK         0.3000 
    206 H206       -2.4833  -20.9461  -49.5623 H         1 UNK         0.0600 
    207 H207       -4.6885  -19.8460  -49.4813 H         1 UNK         0.0600 
    208 H208       -5.4152  -21.1296  -50.4376 H         1 UNK         0.0600 
    209 H209       -4.2095  -20.0769  -51.1570 H         1 UNK         0.0600 
    210 H210       -1.9393  -23.6236  -49.4855 H         1 UNK         0.3000 
    211 H211       -1.1822  -25.3920  -50.6029 H         1 UNK         0.0600 
    212 H212        0.1313  -23.7157  -51.9119 H         1 UNK         0.0600 
    213 H213       -0.2935  -25.1092  -52.8933 H         1 UNK         0.0600 
    214 H214       -1.1707  -23.6000  -53.0932 H         1 UNK         0.0600 
    215 H215       -3.7020  -25.6165  -49.9938 H         1 UNK         0.3000 
    216 H216       -5.7300  -26.4313  -50.3455 H         1 UNK         0.0600 
    217 H217       -5.9894  -28.3672  -51.8602 H         1 UNK         0.0600 
    218 H218       -4.4984  -27.9633  -52.6997 H         1 UNK         0.0600 
    219 H219       -4.4548  -28.4752  -51.0131 H         1 UNK         0.0600 
    220 H220       -5.5285  -23.9440  -51.1496 H         1 UNK         0.3000 
    221 H221       -6.3654  -22.2459  -52.2439 H         1 UNK         0.0600 
    222 H222       -8.4797  -24.1643  -53.3444 H         1 UNK         0.0600 
    223 H223       -8.5241  -23.4134  -51.7492 H         1 UNK         0.0600 
    224 H224       -8.6248  -22.4193  -53.1913 H         1 UNK         0.0600 
    225 H225       -4.3319  -23.9670  -53.7405 H         1 UNK         0.3000 
    226 H226       -4.8679  -23.3446  -56.5581 H         1 UNK         0.0600 
    227 H227       -3.6241  -25.4170  -55.8747 H         1 UNK         0.0600 
    228 H228       -2.6896  -24.3910  -56.9538 H         1 UNK         0.0600 
    229 H229       -2.3242  -24.4098  -55.2355 H         1 UNK         0.0600 
    230 H230       -3.1472  -21.8830  -53.8184 H         1 UNK         0.3000 
    231 H231       -1.7205  -19.9289  -55.5158 H         1 UNK         0.0600 
    232 H232       -0.6872  -19.2429  -53.4200 H         1 UNK         0.0600 
    233 H233       -0.6286  -20.9961  -53.4828 H         1 UNK         0.0600 
    234 H234       -1.8202  -20.1884  -52.4640 H         1 UNK         0.0600 
    235 H235       -1.9775  -17.6326  -55.1051 H         1 UNK         0.3000 
    236 H236       -4.6828  -16.7465  -55.1445 H         1 UNK         0.0600 
    237 H237       -2.9065  -15.5938  -56.4035 H         1 UNK         0.0600 
    238 H238       -3.6400  -14.4734  -55.2687 H         1 UNK         0.0600 
    239 H239       -2.0623  -15.1686  -54.9161 H         1 UNK         0.0600 
    240 H240       -2.0878  -16.1997  -52.7150 H         1 UNK         0.3000 
    241 H241       -2.0657  -15.6830  -50.5704 H         1 UNK         0.0600 
    242 H242       -3.3208  -13.5600  -52.2986 H         1 UNK         0.3800 
    243 H243       -4.2005  -12.5745  -51.1609 H         1 UNK         0.3800 
    244 H244       -4.7529  -17.0768  -50.2124 H         1 UNK         0.0800 
    245 H245       -3.3068  -17.9505  -50.6069 H         1 UNK         0.0800 
    246 H246       -5.4413  -16.4956  -48.0936 H         1 UNK         0.0800 
    247 H247       -5.1631  -18.1364  -47.5641 H         1 UNK         0.0800 
@<TRIPOS>BOND
     1    1    2 1    
     2    1  127 1    
     3    1  128 1    
     4    1  129 1    
     5    2    3 2    
     6    2    4 am   BACKBONE|DICT|INTERRES
     7    4    5 1    
     8    4  130 1    
     9    5    6 1    
    10    5   65 1    
    11    5  131 1    
    12    6    7 1    
    13    6  132 1    
    14    6  133 1    
    15    7    8 1    
    16    8    9 1    
    17    8  134 1    
    18    8  135 1    
    19    9   10 ar   
    20    9   14 ar   
    21   10   11 ar   
    22   10  136 1    
    23   11   12 ar   
    24   11  126 1    
    25   12   13 ar   
    26   12  137 1    
    27   13   14 ar   
    28   13   15 1    
    29   14  138 1    
    30   15   16 1    
    31   15  139 1    
    32   15  140 1    
    33   16   17 1    
    34   17   18 1    
    35   17  141 1    
    36   17  142 1    
    37   18   19 1    
    38   18   67 1    
    39   18  143 1    
    40   19   20 am   BACKBONE|DICT|INTERRES
    41   19  144 1    
    42   20   21 2    
    43   20   22 1    
    44   22   23 1    
    45   22   24 1    
    46   22  145 1    
    47   23  146 1    
    48   23  147 1    
    49   23  148 1    
    50   24   25 am   BACKBONE|DICT|INTERRES
    51   24  149 1    
    52   25   26 2    
    53   25   27 1    
    54   27   28 1    
    55   27   29 1    
    56   27  150 1    
    57   28  151 1    
    58   28  152 1    
    59   28  153 1    
    60   29   30 am   BACKBONE|DICT|INTERRES
    61   29  154 1    
    62   30   31 2    
    63   30   32 1    
    64   32   33 1    
    65   32   34 1    
    66   32  155 1    
    67   33  156 1    
    68   33  157 1    
    69   33  158 1    
    70   34   35 am   BACKBONE|DICT|INTERRES
    71   34  159 1    
    72   35   36 2    
    73   35   37 1    
    74   37   38 1    
    75   37   39 1    
    76   37  160 1    
    77   38  161 1    
    78   38  162 1    
    79   38  163 1    
    80   39   40 am   BACKBONE|DICT|INTERRES
    81   39  164 1    
    82   40   41 2    
    83   40   42 1    
    84   42   43 1    
    85   42   44 1    
    86   42  165 1    
    87   43  166 1    
    88   43  167 1    
    89   43  168 1    
    90   44   45 am   BACKBONE|DICT|INTERRES
    91   44  169 1    
    92   45   46 2    
    93   45   47 1    
    94   47   48 1    
    95   47   49 1    
    96   47  170 1    
    97   48  171 1    
    98   48  172 1    
    99   48  173 1    
   100   49   50 am   BACKBONE|DICT|INTERRES
   101   49  174 1    
   102   50   51 2    
   103   50   52 1    
   104   52   53 1    
   105   52   54 1    
   106   52  175 1    
   107   53  176 1    
   108   53  177 1    
   109   53  178 1    
   110   54   55 am   BACKBONE|DICT|INTERRES
   111   54  179 1    
   112   55   56 2    
   113   55   57 1    
   114   57   58 1    
   115   57   59 1    
   116   57  180 1    
   117   58  181 1    
   118   58  182 1    
   119   58  183 1    
   120   59   60 am   BACKBONE|DICT|INTERRES
   121   59  184 1    
   122   60   61 2    
   123   60   62 1    
   124   62   63 1    
   125   62   64 1    
   126   62  185 1    
   127   63  186 1    
   128   63  187 1    
   129   63  188 1    
   130   64   65 am   BACKBONE|DICT|INTERRES
   131   64  189 1    
   132   65   66 2    
   133   67   68 2    
   134   67   69 am   BACKBONE|DICT|INTERRES
   135   69   70 1    
   136   69  190 1    
   137   70   71 1    
   138   70   72 1    
   139   70  191 1    
   140   71  192 1    
   141   71  193 1    
   142   71  194 1    
   143   72   73 2    
   144   72   74 am   BACKBONE|DICT|INTERRES
   145   74   75 1    
   146   74  195 1    
   147   75   76 1    
   148   75   77 1    
   149   75  196 1    
   150   76  197 1    
   151   76  198 1    
   152   76  199 1    
   153   77   78 2    
   154   77   79 am   BACKBONE|DICT|INTERRES
   155   79   80 1    
   156   79  200 1    
   157   80   81 1    
   158   80   82 1    
   159   80  201 1    
   160   81  202 1    
   161   81  203 1    
   162   81  204 1    
   163   82   83 2    
   164   82   84 am   BACKBONE|DICT|INTERRES
   165   84   85 1    
   166   84  205 1    
   167   85   86 1    
   168   85   87 1    
   169   85  206 1    
   170   86  207 1    
   171   86  208 1    
   172   86  209 1    
   173   87   88 2    
   174   87   89 am   BACKBONE|DICT|INTERRES
   175   89   90 1    
   176   89  210 1    
   177   90   91 1    
   178   90   92 1    
   179   90  211 1    
   180   91  212 1    
   181   91  213 1    
   182   91  214 1    
   183   92   93 2    
   184   92   94 am   BACKBONE|DICT|INTERRES
   185   94   95 1    
   186   94  215 1    
   187   95   96 1    
   188   95   97 1    
   189   95  216 1    
   190   96  217 1    
   191   96  218 1    
   192   96  219 1    
   193   97   98 2    
   194   97   99 am   BACKBONE|DICT|INTERRES
   195   99  100 1    
   196   99  220 1    
   197  100  101 1    
   198  100  102 1    
   199  100  221 1    
   200  101  222 1    
   201  101  223 1    
   202  101  224 1    
   203  102  103 2    
   204  102  104 am   BACKBONE|DICT|INTERRES
   205  104  105 1    
   206  104  225 1    
   207  105  106 1    
   208  105  107 1    
   209  105  226 1    
   210  106  227 1    
   211  106  228 1    
   212  106  229 1    
   213  107  108 2    
   214  107  109 am   BACKBONE|DICT|INTERRES
   215  109  110 1    
   216  109  230 1    
   217  110  111 1    
   218  110  112 1    
   219  110  231 1    
   220  111  232 1    
   221  111  233 1    
   222  111  234 1    
   223  112  113 2    
   224  112  114 am   BACKBONE|DICT|INTERRES
   225  114  115 1    
   226  114  235 1    
   227  115  116 1    
   228  115  117 1    
   229  115  236 1    
   230  116  237 1    
   231  116  238 1    
   232  116  239 1    
   233  117  118 2    
   234  117  119 am   BACKBONE|DICT|INTERRES
   235  119  120 1    
   236  119  240 1    
   237  120  121 1    
   238  120  124 1    
   239  120  241 1    
   240  121  122 am   BACKBONE|DICT|INTERRES
   241  121  123 2    
   242  122  242 1    
   243  122  243 1    
   244  124  125 1    
   245  124  244 1    
   246  124  245 1    
   247  125  126 1    
   248  126  246 1    
   249  126  247 1    
@<TRIPOS>SUBSTRUCTURE
     1 UNK         1 GROUP             0       ****    0 ROOT    
