@<TRIPOS>MOLECULE
3R540
247   249    1
SMALL
USER_CHARGES


@<TRIPOS>ATOM
      1 CA         -2.7562  -15.9921  -44.5570 C.3       0 UNK        -0.1800 
      2 C          -2.8156  -15.9666  -46.0763 C.2       0 UNK         0.5000 
      3 O          -3.9016  -16.0127  -46.6530 O.2       0 UNK        -0.5000 
      4 N          -1.6460  -15.8877  -46.7211 N.am      1 UNK        -0.5000 
      5 CA         -1.5033  -15.7248  -48.1712 C.3       1 UNK         0.1400 
      6 C6         -0.0799  -16.0822  -48.6620 C.3       23 UNK        -0.0398 
      7 S7          0.2625  -17.8697  -48.5559 S.3       23 UNK        -0.2404 
      8 C8          1.6165  -18.0116  -49.7609 C.3       23 UNK        -0.0205 
      9 C9          1.8459  -19.4514  -50.1913 C.ar      23 UNK        -0.0193 
     10 C10         1.2454  -19.9320  -51.3577 C.ar      23 UNK        -0.1150 
     11 C11         1.4989  -21.2318  -51.8028 C.ar      23 UNK        -0.0193 
     12 C12         2.3354  -22.0648  -51.0549 C.ar      23 UNK        -0.1150 
     13 C13         2.9431  -21.5992  -49.8841 C.ar      23 UNK        -0.0193 
     14 C14         2.6955  -20.2874  -49.4603 C.ar      23 UNK        -0.1150 
     15 C15         3.9175  -22.5016  -49.1312 C.3       23 UNK        -0.0205 
     16 S16         3.6583  -22.5274  -47.3280 S.3       23 UNK        -0.2404 
     17 C17         1.9746  -23.2204  -47.2096 C.3       23 UNK        -0.0398 
     18 CA          1.7831  -24.1391  -45.9731 C.3       11 UNK         0.1400 
     19 N           2.1142  -23.4383  -44.7289 N.am      11 UNK        -0.5000 
     20 C           2.5258  -23.9880  -43.5806 C.2       10 UNK         0.5000 
     21 O           2.6648  -25.2001  -43.4166 O.2       10 UNK        -0.5000 
     22 CA          2.7447  -23.0218  -42.4061 C.3       10 UNK         0.1400 
     23 CB          4.0480  -22.2252  -42.5782 C.3       10 UNK        -0.1800 
     24 N           1.6145  -22.1004  -42.2924 N.am      10 UNK        -0.5000 
     25 C           0.4743  -22.3782  -41.6443 C.2       9 UNK         0.5000 
     26 O           0.2982  -23.4010  -40.9821 O.2       9 UNK        -0.5000 
     27 CA         -0.6670  -21.3488  -41.7560 C.3       9 UNK         0.1400 
     28 CB         -0.6253  -20.3679  -40.5746 C.3       9 UNK        -0.1800 
     29 N          -0.6251  -20.5977  -43.0115 N.am      9 UNK        -0.5000 
     30 C          -0.9963  -21.1003  -44.1994 C.2       8 UNK         0.5000 
     31 O          -1.4872  -22.2191  -44.3399 O.2       8 UNK        -0.5000 
     32 CA         -0.7773  -20.2206  -45.4478 C.3       8 UNK         0.1400 
     33 CB         -2.0862  -19.5104  -45.8180 C.3       8 UNK        -0.1800 
     34 N           0.2873  -19.2240  -45.2993 N.am      8 UNK        -0.5000 
     35 C           1.5727  -19.5029  -45.0421 C.2       7 UNK         0.5000 
     36 O           2.0046  -20.6480  -44.9308 O.2       7 UNK        -0.5000 
     37 CA          2.5251  -18.3202  -44.7840 C.3       7 UNK         0.1400 
     38 CB          3.3056  -17.9612  -46.0560 C.3       7 UNK        -0.1800 
     39 N           1.8881  -17.1106  -44.2542 N.am      7 UNK        -0.5000 
     40 C           1.1448  -17.0209  -43.1419 C.2       6 UNK         0.5000 
     41 O           0.8199  -18.0017  -42.4715 O.2       6 UNK        -0.5000 
     42 CA          0.6851  -15.6134  -42.6974 C.3       6 UNK         0.1400 
     43 CB          0.7986  -15.4410  -41.1732 C.3       6 UNK        -0.1800 
     44 N           1.3941  -14.5029  -43.3386 N.am      6 UNK        -0.5000 
     45 C           1.2250  -14.0640  -44.5903 C.2       5 UNK         0.5000 
     46 O           0.4894  -14.6134  -45.4125 O.2       5 UNK        -0.5000 
     47 CA          1.9834  -12.7741  -44.9557 C.3       5 UNK         0.1400 
     48 CB          2.1001  -12.5737  -46.4750 C.3       5 UNK        -0.1800 
     49 N           1.3002  -11.6254  -44.3634 N.am      5 UNK        -0.5000 
     50 C           1.3724  -11.2828  -43.0683 C.2       4 UNK         0.5000 
     51 O           2.1579  -11.8012  -42.2726 O.2       4 UNK        -0.5000 
     52 CA          0.3782  -10.2202  -42.5602 C.3       4 UNK         0.1400 
     53 CB          1.0307   -8.8298  -42.5569 C.3       4 UNK        -0.1800 
     54 N          -0.8627  -10.1631  -43.3352 N.am      4 UNK        -0.5000 
     55 C          -1.7647  -11.1490  -43.4465 C.2       3 UNK         0.5000 
     56 O          -1.6833  -12.2262  -42.8554 O.2       3 UNK        -0.5000 
     57 CA         -2.9499  -10.9004  -44.4012 C.3       3 UNK         0.1400 
     58 CB         -3.3525   -9.4123  -44.5033 C.3       3 UNK        -0.1800 
     59 N          -2.7255  -11.4614  -45.7390 N.am      3 UNK        -0.5000 
     60 C          -1.7145  -11.1952  -46.5792 C.2       2 UNK         0.5000 
     61 O          -0.7490  -10.4817  -46.3010 O.2       2 UNK        -0.5000 
     62 CA         -1.7870  -11.8908  -47.9440 C.3       2 UNK         0.1400 
     63 CB         -0.8397  -11.2759  -48.9954 C.3       2 UNK        -0.1800 
     64 N          -1.4994  -13.3074  -47.7519 N.am      2 UNK        -0.5000 
     65 C          -1.8669  -14.2860  -48.5882 C.2       1 UNK         0.5000 
     66 O          -2.4840  -14.0937  -49.6351 O.2       1 UNK        -0.5000 
     67 C           0.3526  -24.7259  -45.9186 C.2       11 UNK         0.5000 
     68 O          -0.3820  -24.6426  -46.9041 O.2       11 UNK        -0.5000 
     69 N          -0.0323  -25.3021  -44.7711 N.am      12 UNK        -0.5000 
     70 CA         -1.3910  -25.7391  -44.4312 C.3       12 UNK         0.1400 
     71 CB         -1.4118  -26.1897  -42.9633 C.3       12 UNK        -0.1800 
     72 C          -1.9710  -26.8382  -45.3416 C.2       12 UNK         0.5000 
     73 O          -3.1922  -26.9727  -45.4209 O.2       12 UNK        -0.5000 
     74 N          -1.0961  -27.5869  -46.0270 N.am      13 UNK        -0.5000 
     75 CA         -1.4614  -28.5716  -47.0464 C.3       13 UNK         0.1400 
     76 CB         -0.2211  -29.4054  -47.4020 C.3       13 UNK        -0.1800 
     77 C          -2.0646  -27.9333  -48.3150 C.2       13 UNK         0.5000 
     78 O          -2.8652  -28.5815  -48.9900 O.2       13 UNK        -0.5000 
     79 N          -1.6766  -26.6849  -48.6099 N.am      14 UNK        -0.5000 
     80 CA         -2.1982  -25.8875  -49.7179 C.3       14 UNK         0.1400 
     81 CB         -1.0259  -25.2288  -50.4624 C.3       14 UNK        -0.1800 
     82 C          -3.1768  -24.8168  -49.2116 C.2       14 UNK         0.5000 
     83 O          -4.2086  -24.5934  -49.8444 O.2       14 UNK        -0.5000 
     84 N          -2.8261  -24.1580  -48.0949 N.am      15 UNK        -0.5000 
     85 CA         -3.5569  -23.0736  -47.4265 C.3       15 UNK         0.1400 
     86 CB         -4.8299  -23.6224  -46.7525 C.3       15 UNK        -0.1800 
     87 C          -3.8370  -21.8724  -48.3570 C.2       15 UNK         0.5000 
     88 O          -4.9063  -21.2644  -48.2853 O.2       15 UNK        -0.5000 
     89 N          -2.8822  -21.5989  -49.2613 N.am      16 UNK        -0.5000 
     90 CA         -2.9294  -20.6214  -50.3585 C.3       16 UNK         0.1400 
     91 CB         -3.0937  -19.1917  -49.8079 C.3       16 UNK        -0.1800 
     92 C          -3.9917  -20.9278  -51.4406 C.2       16 UNK         0.5000 
     93 O          -4.2123  -20.0879  -52.3149 O.2       16 UNK        -0.5000 
     94 N          -4.6672  -22.0859  -51.3428 N.am      17 UNK        -0.5000 
     95 CA         -5.8213  -22.5539  -52.1245 C.3       17 UNK         0.1400 
     96 CB         -5.3914  -22.9150  -53.5590 C.3       17 UNK        -0.1800 
     97 C          -7.0298  -21.5889  -52.1155 C.2       17 UNK         0.5000 
     98 O          -7.8768  -21.6715  -53.0062 O.2       17 UNK        -0.5000 
     99 N          -7.0625  -20.6645  -51.1407 N.am      18 UNK        -0.5000 
    100 CA        -7.9220  -19.4750  -51.0715 C.3       18 UNK         0.1400 
    101 CB        -9.3932  -19.8738  -50.8335 C.3       18 UNK        -0.1800 
    102 C         -7.7443  -18.5221  -52.2810 C.2       18 UNK         0.5000 
    103 O         -8.6690  -17.7808  -52.6184 O.2       18 UNK        -0.5000 
    104 N         -6.5635  -18.5641  -52.9145 N.am      19 UNK        -0.5000 
    105 CA        -6.2317  -17.8773  -54.1631 C.3       19 UNK         0.1400 
    106 CB        -6.1324  -18.9328  -55.2788 C.3       19 UNK        -0.1800 
    107 C         -4.9296  -17.0617  -54.0462 C.2       19 UNK         0.5000 
    108 O         -4.3852  -16.6473  -55.0710 O.2       19 UNK        -0.5000 
    109 N         -4.4397  -16.8609  -52.8129 N.am      20 UNK        -0.5000 
    110 CA        -3.2400  -16.1192  -52.3936 C.3       20 UNK         0.1400 
    111 CB        -3.3171  -14.6399  -52.8186 C.3       20 UNK        -0.1800 
    112 C         -1.9013  -16.7479  -52.8306 C.2       20 UNK         0.5000 
    113 O         -1.0004  -16.8846  -52.0049 O.2       20 UNK        -0.5000 
    114 N         -1.7969  -17.1202  -54.1087 N.am      21 UNK        -0.5000 
    115 CA        -0.6114  -17.6934  -54.7466 C.3       21 UNK         0.1400 
    116 CB        -0.1841  -16.7656  -55.8976 C.3       21 UNK        -0.1800 
    117 C         -0.8654  -19.1319  -55.2381 C.2       21 UNK         0.5000 
    118 O         -0.1136  -19.6249  -56.0796 O.2       21 UNK        -0.5000 
    119 N         -1.9162  -19.7793  -54.7162 N.am      22 UNK        -0.5000 
    120 CA        -2.3600  -21.1442  -55.0575 C.3       22 UNK         0.1400 
    121 C         -2.9519  -21.3043  -56.4922 C.2       22 UNK         0.5000 
    122 N         -3.2796  -20.2298  -57.1996 N.am      22 UNK        -0.7600 
    123 O         -3.1506  -22.4201  -56.9646 O.2       22 UNK        -0.5000 
    124 C124       -1.3249  -22.2543  -54.7127 C.3       23 UNK        -0.0398 
    125 S125       -0.8104  -22.2286  -52.9614 S.3       23 UNK        -0.2404 
    126 C126        0.9205  -21.7056  -53.1256 C.3       23 UNK        -0.0205 
    127 H127       -1.9579  -16.6485  -44.2134 H         1 UNK         0.0600 
    128 H128       -3.6945  -16.3585  -44.1403 H         1 UNK         0.0600 
    129 H129       -2.5761  -14.9890  -44.1692 H         1 UNK         0.0600 
    130 H130       -0.7946  -15.7447  -46.1847 H         1 UNK         0.3000 
    131 H131       -2.2119  -16.3920  -48.6673 H         1 UNK         0.0600 
    132 H132        0.6792  -15.5412  -48.0942 H         1 UNK         0.0800 
    133 H133        0.0413  -15.7784  -49.7034 H         1 UNK         0.0800 
    134 H134        2.5293  -17.5982  -49.3301 H         1 UNK         0.0800 
    135 H135        1.3924  -17.4055  -50.6400 H         1 UNK         0.0800 
    136 H136        0.5990  -19.2843  -51.9339 H         1 UNK         0.1150 
    137 H137        2.5388  -23.0673  -51.4045 H         1 UNK         0.1150 
    138 H138        3.1748  -19.9119  -48.5679 H         1 UNK         0.1150 
    139 H139        3.8659  -23.5256  -49.5046 H         1 UNK         0.0800 
    140 H140        4.9318  -22.1541  -49.3306 H         1 UNK         0.0800 
    141 H141        1.7622  -23.7736  -48.1263 H         1 UNK         0.0800 
    142 H142        1.2708  -22.3867  -47.1851 H         1 UNK         0.0800 
    143 H143        2.4628  -24.9865  -46.0821 H         1 UNK         0.0600 
    144 H144        2.0437  -22.4230  -44.7766 H         1 UNK         0.3000 
    145 H145        2.8296  -23.6106  -41.4902 H         1 UNK         0.0600 
    146 H146        4.2141  -21.5566  -41.7334 H         1 UNK         0.0600 
    147 H147        4.9067  -22.8951  -42.6366 H         1 UNK         0.0600 
    148 H148        4.0432  -21.6214  -43.4861 H         1 UNK         0.0600 
    149 H149        1.6560  -21.2652  -42.8613 H         1 UNK         0.3000 
    150 H150       -1.6124  -21.8937  -41.7093 H         1 UNK         0.0600 
    151 H151       -0.7314  -20.8962  -39.6264 H         1 UNK         0.0600 
    152 H152       -1.4352  -19.6407  -40.6351 H         1 UNK         0.0600 
    153 H153        0.3165  -19.8192  -40.5392 H         1 UNK         0.0600 
    154 H154       -0.2173  -19.6687  -42.9683 H         1 UNK         0.3000 
    155 H155       -0.4991  -20.8795  -46.2726 H         1 UNK         0.0600 
    156 H156       -2.4355  -18.8708  -45.0081 H         1 UNK         0.0600 
    157 H157       -2.8791  -20.2294  -46.0227 H         1 UNK         0.0600 
    158 H158       -1.9680  -18.8955  -46.7087 H         1 UNK         0.0600 
    159 H159        0.0195  -18.2557  -45.3816 H         1 UNK         0.3000 
    160 H160        3.2432  -18.6565  -44.0335 H         1 UNK         0.0600 
    161 H161        4.0880  -17.2320  -45.8458 H         1 UNK         0.0600 
    162 H162        3.7902  -18.8417  -46.4798 H         1 UNK         0.0600 
    163 H163        2.6538  -17.5406  -46.8208 H         1 UNK         0.0600 
    164 H164        2.0627  -16.2551  -44.7605 H         1 UNK         0.3000 
    165 H165       -0.3697  -15.5263  -42.9571 H         1 UNK         0.0600 
    166 H166        0.4294  -14.4641  -40.8596 H         1 UNK         0.0600 
    167 H167        0.2090  -16.1907  -40.6437 H         1 UNK         0.0600 
    168 H168        1.8313  -15.5346  -40.8353 H         1 UNK         0.0600 
    169 H169        1.9855  -13.9485  -42.7312 H         1 UNK         0.3000 
    170 H170        2.9952  -12.8439  -44.5510 H         1 UNK         0.0600 
    171 H171        1.1225  -12.5142  -46.9481 H         1 UNK         0.0600 
    172 H172        2.6430  -11.6589  -46.7128 H         1 UNK         0.0600 
    173 H173        2.6367  -13.4030  -46.9374 H         1 UNK         0.0600 
    174 H174        0.6132  -11.1582  -44.9471 H         1 UNK         0.3000 
    175 H175        0.1176  -10.4809  -41.5325 H         1 UNK         0.0600 
    176 H176        1.2907   -8.5057  -43.5654 H         1 UNK         0.0600 
    177 H177        0.3656   -8.0823  -42.1239 H         1 UNK         0.0600 
    178 H178        1.9471   -8.8295  -41.9650 H         1 UNK         0.0600 
    179 H179       -0.9972   -9.3386  -43.9026 H         1 UNK         0.3000 
    180 H180       -3.7997  -11.4382  -43.9777 H         1 UNK         0.0600 
    181 H181       -2.5975   -8.8088  -45.0079 H         1 UNK         0.0600 
    182 H182       -3.5159   -8.9812  -43.5146 H         1 UNK         0.0600 
    183 H183       -4.2836   -9.3010  -45.0589 H         1 UNK         0.0600 
    184 H184       -3.4343  -12.1100  -46.0522 H         1 UNK         0.3000 
    185 H185       -2.8113  -11.7800  -48.3067 H         1 UNK         0.0600 
    186 H186        0.2086  -11.3952  -48.7245 H         1 UNK         0.0600 
    187 H187       -0.9834  -11.7332  -49.9743 H         1 UNK         0.0600 
    188 H188       -1.0284  -10.2079  -49.1092 H         1 UNK         0.0600 
    189 H189       -1.0129  -13.5537  -46.8983 H         1 UNK         0.3000 
    190 H190        0.6572  -25.3616  -44.0315 H         1 UNK         0.3000 
    191 H191       -2.0458  -24.8712  -44.5300 H         1 UNK         0.0600 
    192 H192       -0.7367  -27.0288  -42.7911 H         1 UNK         0.0600 
    193 H193       -2.4122  -26.5037  -42.6624 H         1 UNK         0.0600 
    194 H194       -1.1158  -25.3779  -42.2990 H         1 UNK         0.0600 
    195 H195       -0.1112  -27.4178  -45.8862 H         1 UNK         0.3000 
    196 H196       -2.2138  -29.2394  -46.6215 H         1 UNK         0.0600 
    197 H197       -0.4635  -30.1692  -48.1423 H         1 UNK         0.0600 
    198 H198        0.1744  -29.9186  -46.5253 H         1 UNK         0.0600 
    199 H199        0.5748  -28.7863  -47.8178 H         1 UNK         0.0600 
    200 H200       -1.0480  -26.2090  -47.9729 H         1 UNK         0.3000 
    201 H201       -2.7337  -26.5207  -50.4284 H         1 UNK         0.0600 
    202 H202       -0.3405  -25.9784  -50.8578 H         1 UNK         0.0600 
    203 H203       -0.4536  -24.5606  -49.8174 H         1 UNK         0.0600 
    204 H204       -1.3869  -24.6429  -51.3077 H         1 UNK         0.0600 
    205 H205       -1.9309  -24.3903  -47.6664 H         1 UNK         0.3000 
    206 H206       -2.8991  -22.7039  -46.6395 H         1 UNK         0.0600 
    207 H207       -4.5945  -24.4549  -46.0892 H         1 UNK         0.0600 
    208 H208       -5.3156  -22.8551  -46.1487 H         1 UNK         0.0600 
    209 H209       -5.5565  -23.9730  -47.4861 H         1 UNK         0.0600 
    210 H210       -2.0544  -22.1775  -49.2432 H         1 UNK         0.3000 
    211 H211       -1.9574  -20.6674  -50.8485 H         1 UNK         0.0600 
    212 H212       -4.0969  -19.0100  -49.4220 H         1 UNK         0.0600 
    213 H213       -2.9043  -18.4546  -50.5858 H         1 UNK         0.0600 
    214 H214       -2.3866  -18.9971  -49.0048 H         1 UNK         0.0600 
    215 H215       -4.3994  -22.7211  -50.5983 H         1 UNK         0.3000 
    216 H216       -6.1564  -23.4703  -51.6369 H         1 UNK         0.0600 
    217 H217       -6.1358  -23.5541  -54.0348 H         1 UNK         0.0600 
    218 H218       -4.4436  -23.4535  -53.5735 H         1 UNK         0.0600 
    219 H219       -5.2934  -22.0259  -54.1807 H         1 UNK         0.0600 
    220 H220       -6.3358  -20.7146  -50.4387 H         1 UNK         0.3000 
    221 H221       -7.5887  -18.9138  -50.1976 H         1 UNK         0.0600 
    222 H222      -10.0074  -18.9973  -50.6240 H         1 UNK         0.0600 
    223 H223       -9.8242  -20.3733  -51.7015 H         1 UNK         0.0600 
    224 H224       -9.4865  -20.5445  -49.9794 H         1 UNK         0.0600 
    225 H225       -5.8476  -19.2051  -52.5792 H         1 UNK         0.3000 
    226 H226       -7.0168  -17.1671  -54.4287 H         1 UNK         0.0600 
    227 H227       -7.0610  -19.4966  -55.3705 H         1 UNK         0.0600 
    228 H228       -5.9365  -18.4724  -56.2478 H         1 UNK         0.0600 
    229 H229       -5.3302  -19.6446  -55.0817 H         1 UNK         0.0600 
    230 H230       -4.9615  -17.2802  -52.0571 H         1 UNK         0.3000 
    231 H231       -3.2503  -16.1409  -51.3031 H         1 UNK         0.0600 
    232 H232       -4.2179  -14.1660  -52.4289 H         1 UNK         0.0600 
    233 H233       -3.3146  -14.5201  -53.9020 H         1 UNK         0.0600 
    234 H234       -2.4646  -14.0812  -52.4304 H         1 UNK         0.0600 
    235 H235       -2.6110  -16.9694  -54.7011 H         1 UNK         0.3000 
    236 H236        0.2141  -17.7513  -54.0346 H         1 UNK         0.0600 
    237 H237        0.7354  -17.1157  -56.3683 H         1 UNK         0.0600 
    238 H238       -0.9506  -16.7077  -56.6714 H         1 UNK         0.0600 
    239 H239        0.0045  -15.7543  -55.5370 H         1 UNK         0.0600 
    240 H240       -2.4739  -19.3051  -54.0196 H         1 UNK         0.3000 
    241 H241       -3.2113  -21.3141  -54.4059 H         1 UNK         0.0600 
    242 H242       -3.6700  -20.3457  -58.1214 H         1 UNK         0.3800 
    243 H243       -3.1293  -19.3052  -56.8312 H         1 UNK         0.3800 
    244 H244       -0.4533  -22.1861  -55.3648 H         1 UNK         0.0800 
    245 H245       -1.7549  -23.2402  -54.8960 H         1 UNK         0.0800 
    246 H246        1.5067  -22.5337  -53.5269 H         1 UNK         0.0800 
    247 H247        0.9982  -20.8982  -53.8534 H         1 UNK         0.0800 
@<TRIPOS>BOND
     1    1    2 1    
     2    1  127 1    
     3    1  128 1    
     4    1  129 1    
     5    2    3 2    
     6    2    4 am   BACKBONE|DICT|INTERRES
     7    4    5 1    
     8    4  130 1    
     9    5    6 1    
    10    5   65 1    
    11    5  131 1    
    12    6    7 1    
    13    6  132 1    
    14    6  133 1    
    15    7    8 1    
    16    8    9 1    
    17    8  134 1    
    18    8  135 1    
    19    9   10 ar   
    20    9   14 ar   
    21   10   11 ar   
    22   10  136 1    
    23   11   12 ar   
    24   11  126 1    
    25   12   13 ar   
    26   12  137 1    
    27   13   14 ar   
    28   13   15 1    
    29   14  138 1    
    30   15   16 1    
    31   15  139 1    
    32   15  140 1    
    33   16   17 1    
    34   17   18 1    
    35   17  141 1    
    36   17  142 1    
    37   18   19 1    
    38   18   67 1    
    39   18  143 1    
    40   19   20 am   BACKBONE|DICT|INTERRES
    41   19  144 1    
    42   20   21 2    
    43   20   22 1    
    44   22   23 1    
    45   22   24 1    
    46   22  145 1    
    47   23  146 1    
    48   23  147 1    
    49   23  148 1    
    50   24   25 am   BACKBONE|DICT|INTERRES
    51   24  149 1    
    52   25   26 2    
    53   25   27 1    
    54   27   28 1    
    55   27   29 1    
    56   27  150 1    
    57   28  151 1    
    58   28  152 1    
    59   28  153 1    
    60   29   30 am   BACKBONE|DICT|INTERRES
    61   29  154 1    
    62   30   31 2    
    63   30   32 1    
    64   32   33 1    
    65   32   34 1    
    66   32  155 1    
    67   33  156 1    
    68   33  157 1    
    69   33  158 1    
    70   34   35 am   BACKBONE|DICT|INTERRES
    71   34  159 1    
    72   35   36 2    
    73   35   37 1    
    74   37   38 1    
    75   37   39 1    
    76   37  160 1    
    77   38  161 1    
    78   38  162 1    
    79   38  163 1    
    80   39   40 am   BACKBONE|DICT|INTERRES
    81   39  164 1    
    82   40   41 2    
    83   40   42 1    
    84   42   43 1    
    85   42   44 1    
    86   42  165 1    
    87   43  166 1    
    88   43  167 1    
    89   43  168 1    
    90   44   45 am   BACKBONE|DICT|INTERRES
    91   44  169 1    
    92   45   46 2    
    93   45   47 1    
    94   47   48 1    
    95   47   49 1    
    96   47  170 1    
    97   48  171 1    
    98   48  172 1    
    99   48  173 1    
   100   49   50 am   BACKBONE|DICT|INTERRES
   101   49  174 1    
   102   50   51 2    
   103   50   52 1    
   104   52   53 1    
   105   52   54 1    
   106   52  175 1    
   107   53  176 1    
   108   53  177 1    
   109   53  178 1    
   110   54   55 am   BACKBONE|DICT|INTERRES
   111   54  179 1    
   112   55   56 2    
   113   55   57 1    
   114   57   58 1    
   115   57   59 1    
   116   57  180 1    
   117   58  181 1    
   118   58  182 1    
   119   58  183 1    
   120   59   60 am   BACKBONE|DICT|INTERRES
   121   59  184 1    
   122   60   61 2    
   123   60   62 1    
   124   62   63 1    
   125   62   64 1    
   126   62  185 1    
   127   63  186 1    
   128   63  187 1    
   129   63  188 1    
   130   64   65 am   BACKBONE|DICT|INTERRES
   131   64  189 1    
   132   65   66 2    
   133   67   68 2    
   134   67   69 am   BACKBONE|DICT|INTERRES
   135   69   70 1    
   136   69  190 1    
   137   70   71 1    
   138   70   72 1    
   139   70  191 1    
   140   71  192 1    
   141   71  193 1    
   142   71  194 1    
   143   72   73 2    
   144   72   74 am   BACKBONE|DICT|INTERRES
   145   74   75 1    
   146   74  195 1    
   147   75   76 1    
   148   75   77 1    
   149   75  196 1    
   150   76  197 1    
   151   76  198 1    
   152   76  199 1    
   153   77   78 2    
   154   77   79 am   BACKBONE|DICT|INTERRES
   155   79   80 1    
   156   79  200 1    
   157   80   81 1    
   158   80   82 1    
   159   80  201 1    
   160   81  202 1    
   161   81  203 1    
   162   81  204 1    
   163   82   83 2    
   164   82   84 am   BACKBONE|DICT|INTERRES
   165   84   85 1    
   166   84  205 1    
   167   85   86 1    
   168   85   87 1    
   169   85  206 1    
   170   86  207 1    
   171   86  208 1    
   172   86  209 1    
   173   87   88 2    
   174   87   89 am   BACKBONE|DICT|INTERRES
   175   89   90 1    
   176   89  210 1    
   177   90   91 1    
   178   90   92 1    
   179   90  211 1    
   180   91  212 1    
   181   91  213 1    
   182   91  214 1    
   183   92   93 2    
   184   92   94 am   BACKBONE|DICT|INTERRES
   185   94   95 1    
   186   94  215 1    
   187   95   96 1    
   188   95   97 1    
   189   95  216 1    
   190   96  217 1    
   191   96  218 1    
   192   96  219 1    
   193   97   98 2    
   194   97   99 am   BACKBONE|DICT|INTERRES
   195   99  100 1    
   196   99  220 1    
   197  100  101 1    
   198  100  102 1    
   199  100  221 1    
   200  101  222 1    
   201  101  223 1    
   202  101  224 1    
   203  102  103 2    
   204  102  104 am   BACKBONE|DICT|INTERRES
   205  104  105 1    
   206  104  225 1    
   207  105  106 1    
   208  105  107 1    
   209  105  226 1    
   210  106  227 1    
   211  106  228 1    
   212  106  229 1    
   213  107  108 2    
   214  107  109 am   BACKBONE|DICT|INTERRES
   215  109  110 1    
   216  109  230 1    
   217  110  111 1    
   218  110  112 1    
   219  110  231 1    
   220  111  232 1    
   221  111  233 1    
   222  111  234 1    
   223  112  113 2    
   224  112  114 am   BACKBONE|DICT|INTERRES
   225  114  115 1    
   226  114  235 1    
   227  115  116 1    
   228  115  117 1    
   229  115  236 1    
   230  116  237 1    
   231  116  238 1    
   232  116  239 1    
   233  117  118 2    
   234  117  119 am   BACKBONE|DICT|INTERRES
   235  119  120 1    
   236  119  240 1    
   237  120  121 1    
   238  120  124 1    
   239  120  241 1    
   240  121  122 am   BACKBONE|DICT|INTERRES
   241  121  123 2    
   242  122  242 1    
   243  122  243 1    
   244  124  125 1    
   245  124  244 1    
   246  124  245 1    
   247  125  126 1    
   248  126  246 1    
   249  126  247 1    
@<TRIPOS>SUBSTRUCTURE
     1 UNK         1 GROUP             0       ****    0 ROOT    
