@<TRIPOS>MOLECULE
3R540
247   249    1
SMALL
USER_CHARGES


@<TRIPOS>ATOM
      1 CA          3.7505   -9.8534  -52.3301 C.3       0 UNK        -0.1800 
      2 C           4.0396  -11.2032  -51.6883 C.2       0 UNK         0.5000 
      3 O           5.0154  -11.8600  -52.0527 O.2       0 UNK        -0.5000 
      4 N           3.2010  -11.6160  -50.7348 N.am      1 UNK        -0.5000 
      5 CA          3.3013  -12.8732  -49.9963 C.3       1 UNK         0.1400 
      6 C6          2.8852  -14.1162  -50.8296 C.3       23 UNK        -0.0398 
      7 S7          1.2465  -13.9828  -51.6275 S.3       23 UNK        -0.2404 
      8 C8          0.2471  -15.1019  -50.6038 C.3       23 UNK        -0.0205 
      9 C9          0.5256  -16.5666  -50.8995 C.ar      23 UNK        -0.0193 
     10 C10         0.0646  -17.1324  -52.0901 C.ar      23 UNK        -0.1150 
     11 C11         0.2330  -18.4967  -52.3415 C.ar      23 UNK        -0.0193 
     12 C12         0.8857  -19.2942  -51.3970 C.ar      23 UNK        -0.1150 
     13 C13         1.3800  -18.7346  -50.2146 C.ar      23 UNK        -0.0193 
     14 C14         1.1959  -17.3690  -49.9711 C.ar      23 UNK        -0.1150 
     15 C15         2.1432  -19.5973  -49.2179 C.3       23 UNK        -0.0205 
     16 S16         1.3130  -19.7136  -47.6025 S.3       23 UNK        -0.2404 
     17 C17        -0.0595  -20.8639  -47.9491 C.3       23 UNK        -0.0398 
     18 CA          0.1817  -22.2968  -47.4095 C.3       11 UNK         0.1400 
     19 N           0.5477  -22.3223  -45.9882 N.am      11 UNK        -0.5000 
     20 C           0.9438  -23.4163  -45.3208 C.2       10 UNK         0.5000 
     21 O           1.1245  -24.5112  -45.8513 O.2       10 UNK        -0.5000 
     22 CA          1.0952  -23.2838  -43.7957 C.3       10 UNK         0.1400 
     23 CB          2.4961  -22.7817  -43.4143 C.3       10 UNK        -0.1800 
     24 N           0.0683  -22.4063  -43.2310 N.am      10 UNK        -0.5000 
     25 C          -1.2242  -22.7477  -43.1192 C.2       9 UNK         0.5000 
     26 O          -1.6585  -23.8588  -43.4188 O.2       9 UNK        -0.5000 
     27 CA         -2.2056  -21.6630  -42.6393 C.3       9 UNK         0.1400 
     28 CB         -2.3284  -21.6848  -41.1091 C.3       9 UNK        -0.1800 
     29 N          -1.8229  -20.3237  -43.0863 N.am      9 UNK        -0.5000 
     30 C          -1.8861  -19.9106  -44.3619 C.2       8 UNK         0.5000 
     31 O          -2.3243  -20.6056  -45.2799 O.2       8 UNK        -0.5000 
     32 CA         -1.3195  -18.5119  -44.6822 C.3       8 UNK         0.1400 
     33 CB         -2.4324  -17.4580  -44.6171 C.3       8 UNK        -0.1800 
     34 N          -0.2211  -18.1007  -43.8067 N.am      8 UNK        -0.5000 
     35 C           0.9223  -18.7821  -43.6366 C.2       7 UNK         0.5000 
     36 O           1.1916  -19.8136  -44.2494 O.2       7 UNK        -0.5000 
     37 CA          1.8964  -18.2823  -42.5515 C.3       7 UNK         0.1400 
     38 CB          2.9805  -17.3974  -43.1829 C.3       7 UNK        -0.1800 
     39 N           1.2519  -17.5391  -41.4662 N.am      7 UNK        -0.5000 
     40 C           0.2377  -17.9654  -40.6971 C.2       6 UNK         0.5000 
     41 O          -0.2347  -19.1003  -40.7596 O.2       6 UNK        -0.5000 
     42 CA         -0.3933  -16.9329  -39.7386 C.3       6 UNK         0.1400 
     43 CB          0.0728  -17.1842  -38.2968 C.3       6 UNK        -0.1800 
     44 N          -0.1070  -15.5383  -40.0984 N.am      6 UNK        -0.5000 
     45 C          -0.4835  -14.9413  -41.2382 C.2       5 UNK         0.5000 
     46 O          -1.1636  -15.4949  -42.1056 O.2       5 UNK        -0.5000 
     47 CA          0.0717  -13.5253  -41.4614 C.3       5 UNK         0.1400 
     48 CB          1.5849  -13.5874  -41.7284 C.3       5 UNK        -0.1800 
     49 N          -0.5656  -12.8857  -42.6085 N.am      5 UNK        -0.5000 
     50 C          -1.6037  -12.0437  -42.5391 C.2       4 UNK         0.5000 
     51 O          -2.1422  -11.7126  -41.4815 O.2       4 UNK        -0.5000 
     52 CA         -2.1145  -11.4386  -43.8626 C.3       4 UNK         0.1400 
     53 CB         -1.7266   -9.9542  -43.9574 C.3       4 UNK        -0.1800 
     54 N          -1.6037  -12.1276  -45.0491 N.am      4 UNK        -0.5000 
     55 C          -2.1164  -13.2579  -45.5518 C.2       3 UNK         0.5000 
     56 O          -3.0993  -13.8304  -45.0818 O.2       3 UNK        -0.5000 
     57 CA         -1.4188  -13.8419  -46.7954 C.3       3 UNK         0.1400 
     58 CB         -2.1331  -13.3627  -48.0689 C.3       3 UNK        -0.1800 
     59 N           0.0087  -13.5127  -46.8857 N.am      3 UNK        -0.5000 
     60 C           0.9544  -13.9643  -46.0513 C.2       2 UNK         0.5000 
     61 O           0.7090  -14.7119  -45.1039 O.2       2 UNK        -0.5000 
     62 CA          2.4025  -13.4790  -46.2972 C.3       2 UNK         0.1400 
     63 CB          3.4313  -14.2239  -45.4273 C.3       2 UNK        -0.1800 
     64 N           2.8476  -13.5649  -47.6918 N.am      2 UNK        -0.5000 
     65 C           2.5161  -12.7253  -48.6797 C.2       1 UNK         0.5000 
     66 O           1.6504  -11.8513  -48.5691 O.2       1 UNK        -0.5000 
     67 C          -1.0441  -23.1988  -47.6781 C.2       11 UNK         0.5000 
     68 O          -1.0325  -23.9899  -48.6218 O.2       11 UNK        -0.5000 
     69 N          -2.0630  -23.1038  -46.8097 N.am      12 UNK        -0.5000 
     70 CA         -3.2594  -23.9464  -46.8400 C.3       12 UNK         0.1400 
     71 CB         -4.3051  -23.4011  -45.8577 C.3       12 UNK        -0.1800 
     72 C          -2.9578  -25.4318  -46.5713 C.2       12 UNK         0.5000 
     73 O          -3.4935  -26.2868  -47.2757 O.2       12 UNK        -0.5000 
     74 N          -2.0686  -25.7186  -45.6090 N.am      13 UNK        -0.5000 
     75 CA         -1.5762  -27.0678  -45.3066 C.3       13 UNK         0.1400 
     76 CB         -0.7299  -27.0354  -44.0257 C.3       13 UNK        -0.1800 
     77 C          -0.7815  -27.6983  -46.4686 C.2       13 UNK         0.5000 
     78 O          -0.8534  -28.9113  -46.6665 O.2       13 UNK        -0.5000 
     79 N          -0.0829  -26.8590  -47.2450 N.am      14 UNK        -0.5000 
     80 CA          0.5996  -27.2182  -48.4905 C.3       14 UNK         0.1400 
     81 CB          1.7058  -26.1855  -48.7655 C.3       14 UNK        -0.1800 
     82 C          -0.3524  -27.3524  -49.7019 C.2       14 UNK         0.5000 
     83 O           0.1212  -27.6436  -50.8010 O.2       14 UNK        -0.5000 
     84 N          -1.6621  -27.1480  -49.4890 N.am      15 UNK        -0.5000 
     85 CA         -2.7582  -27.2368  -50.4581 C.3       15 UNK         0.1400 
     86 CB         -2.8819  -28.6635  -51.0344 C.3       15 UNK        -0.1800 
     87 C          -2.7108  -26.1409  -51.5422 C.2       15 UNK         0.5000 
     88 O          -3.1370  -26.3779  -52.6737 O.2       15 UNK        -0.5000 
     89 N          -2.2192  -24.9526  -51.1734 N.am      16 UNK        -0.5000 
     90 CA         -2.1526  -23.7715  -52.0268 C.3       16 UNK         0.1400 
     91 CB         -0.7911  -23.7263  -52.7468 C.3       16 UNK        -0.1800 
     92 C          -2.4214  -22.5369  -51.1571 C.2       16 UNK         0.5000 
     93 O          -1.5344  -21.6992  -50.9996 O.2       16 UNK        -0.5000 
     94 N          -3.6189  -22.4944  -50.5476 N.am      17 UNK        -0.5000 
     95 CA         -4.0649  -21.4739  -49.5914 C.3       17 UNK         0.1400 
     96 CB         -5.5328  -21.7218  -49.2132 C.3       17 UNK        -0.1800 
     97 C          -3.8712  -20.0407  -50.1122 C.2       17 UNK         0.5000 
     98 O          -4.2930  -19.7469  -51.2340 O.2       17 UNK        -0.5000 
     99 N          -3.2132  -19.2142  -49.2885 N.am      18 UNK        -0.5000 
    100 CA        -2.6224  -17.9230  -49.6348 C.3       18 UNK         0.1400 
    101 CB        -1.9911  -17.3060  -48.3786 C.3       18 UNK        -0.1800 
    102 C         -3.5935  -16.9429  -50.3140 C.2       18 UNK         0.5000 
    103 O         -4.4275  -16.3377  -49.6390 O.2       18 UNK        -0.5000 
    104 N         -3.4672  -16.8411  -51.6443 N.am      19 UNK        -0.5000 
    105 CA        -4.2848  -16.0483  -52.5677 C.3       19 UNK         0.1400 
    106 CB        -4.1071  -14.5403  -52.2935 C.3       19 UNK        -0.1800 
    107 C         -5.7687  -16.4802  -52.6180 C.2       19 UNK         0.5000 
    108 O         -6.6150  -15.6925  -53.0451 O.2       19 UNK        -0.5000 
    109 N         -6.0591  -17.7170  -52.1926 N.am      20 UNK        -0.5000 
    110 CA        -7.4035  -18.2820  -52.0916 C.3       20 UNK         0.1400 
    111 CB        -7.7285  -18.5319  -50.6103 C.3       20 UNK        -0.1800 
    112 C         -7.5483  -19.5806  -52.9006 C.2       20 UNK         0.5000 
    113 O         -8.6262  -19.8213  -53.4462 O.2       20 UNK        -0.5000 
    114 N         -6.4840  -20.3922  -52.9758 N.am      21 UNK        -0.5000 
    115 CA        -6.4832  -21.6855  -53.6654 C.3       21 UNK         0.1400 
    116 CB        -6.9029  -22.8030  -52.6909 C.3       21 UNK        -0.1800 
    117 C         -5.1331  -21.9692  -54.3461 C.2       21 UNK         0.5000 
    118 O         -4.7543  -23.1316  -54.4896 O.2       21 UNK        -0.5000 
    119 N         -4.4277  -20.9098  -54.7600 N.am      22 UNK        -0.5000 
    120 CA        -3.1237  -20.9860  -55.4446 C.3       22 UNK         0.1400 
    121 C         -3.1729  -21.5503  -56.8967 C.2       22 UNK         0.5000 
    122 N         -4.3322  -21.6578  -57.5346 N.am      22 UNK        -0.7600 
    123 O         -2.1361  -21.8998  -57.4540 O.2       22 UNK        -0.5000 
    124 C124       -2.3896  -19.6228  -55.4274 C.3       23 UNK        -0.0398 
    125 S125       -2.0965  -19.0068  -53.7375 S.3       23 UNK        -0.2404 
    126 C126       -0.2834  -19.0980  -53.6385 C.3       23 UNK        -0.0205 
    127 H127        3.5950   -9.9736  -53.4022 H         1 UNK         0.0600 
    128 H128        4.5926   -9.1778  -52.1797 H         1 UNK         0.0600 
    129 H129        2.8601   -9.3866  -51.9078 H         1 UNK         0.0600 
    130 H130        2.4245  -11.0371  -50.4384 H         1 UNK         0.3000 
    131 H131        4.3482  -12.9979  -49.7105 H         1 UNK         0.0600 
    132 H132        2.9353  -15.0217  -50.2240 H         1 UNK         0.0800 
    133 H133        3.6147  -14.2701  -51.6255 H         1 UNK         0.0800 
    134 H134        0.4078  -14.8789  -49.5483 H         1 UNK         0.0800 
    135 H135       -0.8057  -14.9025  -50.8067 H         1 UNK         0.0800 
    136 H136       -0.4468  -16.5129  -52.8138 H         1 UNK         0.1150 
    137 H137        1.0155  -20.3505  -51.5872 H         1 UNK         0.1150 
    138 H138        1.5617  -16.9387  -49.0494 H         1 UNK         0.1150 
    139 H139        2.3082  -20.6017  -49.6109 H         1 UNK         0.0800 
    140 H140        3.1323  -19.1625  -49.0688 H         1 UNK         0.0800 
    141 H141       -0.2290  -20.8871  -49.0244 H         1 UNK         0.0800 
    142 H142       -0.9617  -20.4355  -47.5141 H         1 UNK         0.0800 
    143 H143        1.0211  -22.7209  -47.9645 H         1 UNK         0.0600 
    144 H144        0.4928  -21.4429  -45.4871 H         1 UNK         0.3000 
    145 H145        0.9706  -24.2762  -43.3582 H         1 UNK         0.0600 
    146 H146        2.5938  -22.6626  -42.3352 H         1 UNK         0.0600 
    147 H147        3.2585  -23.4934  -43.7333 H         1 UNK         0.0600 
    148 H148        2.7328  -21.8265  -43.8816 H         1 UNK         0.0600 
    149 H149        0.3428  -21.4516  -43.0419 H         1 UNK         0.3000 
    150 H150       -3.1876  -21.8909  -43.0587 H         1 UNK         0.0600 
    151 H151       -2.7000  -22.6503  -40.7638 H         1 UNK         0.0600 
    152 H152       -3.0235  -20.9228  -40.7563 H         1 UNK         0.0600 
    153 H153       -1.3669  -21.5136  -40.6241 H         1 UNK         0.0600 
    154 H154       -1.4076  -19.7161  -42.3885 H         1 UNK         0.3000 
    155 H155       -0.9290  -18.5417  -45.6999 H         1 UNK         0.0600 
    156 H156       -2.8320  -17.3587  -43.6071 H         1 UNK         0.0600 
    157 H157       -2.0638  -16.4797  -44.9244 H         1 UNK         0.0600 
    158 H158       -3.2624  -17.7182  -45.2749 H         1 UNK         0.0600 
    159 H159       -0.3706  -17.2571  -43.2655 H         1 UNK         0.3000 
    160 H160        2.3750  -19.1596  -42.1120 H         1 UNK         0.0600 
    161 H161        3.7291  -17.0998  -42.4486 H         1 UNK         0.0600 
    162 H162        2.5515  -16.4924  -43.6142 H         1 UNK         0.0600 
    163 H163        3.5012  -17.9264  -43.9824 H         1 UNK         0.0600 
    164 H164        1.5645  -16.5897  -41.3343 H         1 UNK         0.3000 
    165 H165       -1.4753  -17.0731  -39.7799 H         1 UNK         0.0600 
    166 H166       -0.4296  -16.5162  -37.5970 H         1 UNK         0.0600 
    167 H167       -0.1517  -18.2056  -37.9859 H         1 UNK         0.0600 
    168 H168        1.1483  -17.0376  -38.1901 H         1 UNK         0.0600 
    169 H169        0.4546  -15.0178  -39.4396 H         1 UNK         0.3000 
    170 H170       -0.1000  -12.9365  -40.5579 H         1 UNK         0.0600 
    171 H171        1.9854  -12.6034  -41.9733 H         1 UNK         0.0600 
    172 H172        1.8141  -14.2587  -42.5555 H         1 UNK         0.0600 
    173 H173        2.1285  -13.9470  -40.8542 H         1 UNK         0.0600 
    174 H174       -0.2546  -13.1977  -43.5183 H         1 UNK         0.3000 
    175 H175       -3.2047  -11.5041  -43.8534 H         1 UNK         0.0600 
    176 H176       -2.1298   -9.4979  -44.8617 H         1 UNK         0.0600 
    177 H177       -0.6440   -9.8206  -43.9667 H         1 UNK         0.0600 
    178 H178       -2.1193   -9.3914  -43.1094 H         1 UNK         0.0600 
    179 H179       -0.8034  -11.7163  -45.5066 H         1 UNK         0.3000 
    180 H180       -1.5082  -14.9271  -46.7345 H         1 UNK         0.0600 
    181 H181       -2.0617  -12.2807  -48.1869 H         1 UNK         0.0600 
    182 H182       -3.1924  -13.6227  -48.0440 H         1 UNK         0.0600 
    183 H183       -1.7143  -13.8229  -48.9603 H         1 UNK         0.0600 
    184 H184        0.2973  -12.8731  -47.6203 H         1 UNK         0.3000 
    185 H185        2.4273  -12.4284  -46.0004 H         1 UNK         0.0600 
    186 H186        3.4387  -15.2933  -45.6416 H         1 UNK         0.0600 
    187 H187        4.4390  -13.8421  -45.5921 H         1 UNK         0.0600 
    188 H188        3.2171  -14.0992  -44.3667 H         1 UNK         0.0600 
    189 H189        3.5434  -14.2731  -47.8759 H         1 UNK         0.3000 
    190 H190       -2.0226  -22.3977  -46.0811 H         1 UNK         0.3000 
    191 H191       -3.6803  -23.8850  -47.8449 H         1 UNK         0.0600 
    192 H192       -4.5567  -22.3647  -46.0841 H         1 UNK         0.0600 
    193 H193       -5.2281  -23.9794  -45.9113 H         1 UNK         0.0600 
    194 H194       -3.9520  -23.4427  -44.8278 H         1 UNK         0.0600 
    195 H195       -1.7251  -24.9669  -45.0185 H         1 UNK         0.3000 
    196 H196       -2.4454  -27.7020  -45.1211 H         1 UNK         0.0600 
    197 H197       -0.4008  -28.0382  -43.7509 H         1 UNK         0.0600 
    198 H198       -1.2992  -26.6386  -43.1850 H         1 UNK         0.0600 
    199 H199        0.1617  -26.4213  -44.1484 H         1 UNK         0.0600 
    200 H200       -0.0255  -25.8847  -46.9699 H         1 UNK         0.3000 
    201 H201        1.0776  -28.1900  -48.3529 H         1 UNK         0.0600 
    202 H202        2.3960  -26.1138  -47.9247 H         1 UNK         0.0600 
    203 H203        1.2959  -25.1922  -48.9461 H         1 UNK         0.0600 
    204 H204        2.2924  -26.4613  -49.6425 H         1 UNK         0.0600 
    205 H205       -1.9517  -26.8907  -48.5529 H         1 UNK         0.3000 
    206 H206       -3.6693  -27.0438  -49.8907 H         1 UNK         0.0600 
    207 H207       -2.9180  -29.4080  -50.2390 H         1 UNK         0.0600 
    208 H208       -3.7968  -28.7707  -51.6182 H         1 UNK         0.0600 
    209 H209       -2.0474  -28.9119  -51.6904 H         1 UNK         0.0600 
    210 H210       -1.8721  -24.8226  -50.2258 H         1 UNK         0.3000 
    211 H211       -2.9400  -23.8075  -52.7798 H         1 UNK         0.0600 
    212 H212        0.0366  -23.7108  -52.0365 H         1 UNK         0.0600 
    213 H213       -0.7086  -22.8362  -53.3716 H         1 UNK         0.0600 
    214 H214       -0.6599  -24.5930  -53.3947 H         1 UNK         0.0600 
    215 H215       -4.2696  -23.2410  -50.7371 H         1 UNK         0.3000 
    216 H216       -3.4593  -21.5963  -48.6934 H         1 UNK         0.0600 
    217 H217       -5.8503  -21.0364  -48.4264 H         1 UNK         0.0600 
    218 H218       -5.6853  -22.7343  -48.8397 H         1 UNK         0.0600 
    219 H219       -6.2005  -21.5715  -50.0611 H         1 UNK         0.0600 
    220 H220       -2.9856  -19.5517  -48.3663 H         1 UNK         0.3000 
    221 H221       -1.8149  -18.1417  -50.3325 H         1 UNK         0.0600 
    222 H222       -2.7307  -17.1372  -47.5960 H         1 UNK         0.0600 
    223 H223       -1.2049  -17.9435  -47.9777 H         1 UNK         0.0600 
    224 H224       -1.5329  -16.3461  -48.6122 H         1 UNK         0.0600 
    225 H225       -2.7968  -17.4513  -52.0965 H         1 UNK         0.3000 
    226 H226       -3.8858  -16.2479  -53.5631 H         1 UNK         0.0600 
    227 H227       -3.0524  -14.2650  -52.2738 H         1 UNK         0.0600 
    228 H228       -4.5820  -13.9414  -53.0713 H         1 UNK         0.0600 
    229 H229       -4.5485  -14.2464  -51.3408 H         1 UNK         0.0600 
    230 H230       -5.2988  -18.3043  -51.8596 H         1 UNK         0.3000 
    231 H231       -8.1431  -17.5810  -52.4835 H         1 UNK         0.0600 
    232 H232       -7.0125  -19.2123  -50.1495 H         1 UNK         0.0600 
    233 H233       -8.7216  -18.9676  -50.4934 H         1 UNK         0.0600 
    234 H234       -7.7122  -17.6004  -50.0440 H         1 UNK         0.0600 
    235 H235       -5.6322  -20.1529  -52.4726 H         1 UNK         0.3000 
    236 H236       -7.2123  -21.6598  -54.4776 H         1 UNK         0.0600 
    237 H237       -7.8422  -22.5657  -52.1912 H         1 UNK         0.0600 
    238 H238       -7.0484  -23.7464  -53.2184 H         1 UNK         0.0600 
    239 H239       -6.1462  -22.9724  -51.9265 H         1 UNK         0.0600 
    240 H240       -4.8015  -19.9851  -54.6076 H         1 UNK         0.3000 
    241 H241       -2.5096  -21.6897  -54.8790 H         1 UNK         0.0600 
    242 H242       -5.1915  -21.3751  -57.0920 H         1 UNK         0.3800 
    243 H243       -4.3499  -22.0281  -58.4721 H         1 UNK         0.3800 
    244 H244       -1.4339  -19.6938  -55.9498 H         1 UNK         0.0800 
    245 H245       -2.9707  -18.8729  -55.9666 H         1 UNK         0.0800 
    246 H246        0.1580  -18.5584  -54.4777 H         1 UNK         0.0800 
    247 H247        0.0260  -20.1401  -53.7340 H         1 UNK         0.0800 
@<TRIPOS>BOND
     1    1    2 1    
     2    1  127 1    
     3    1  128 1    
     4    1  129 1    
     5    2    3 2    
     6    2    4 am   BACKBONE|DICT|INTERRES
     7    4    5 1    
     8    4  130 1    
     9    5    6 1    
    10    5   65 1    
    11    5  131 1    
    12    6    7 1    
    13    6  132 1    
    14    6  133 1    
    15    7    8 1    
    16    8    9 1    
    17    8  134 1    
    18    8  135 1    
    19    9   10 ar   
    20    9   14 ar   
    21   10   11 ar   
    22   10  136 1    
    23   11   12 ar   
    24   11  126 1    
    25   12   13 ar   
    26   12  137 1    
    27   13   14 ar   
    28   13   15 1    
    29   14  138 1    
    30   15   16 1    
    31   15  139 1    
    32   15  140 1    
    33   16   17 1    
    34   17   18 1    
    35   17  141 1    
    36   17  142 1    
    37   18   19 1    
    38   18   67 1    
    39   18  143 1    
    40   19   20 am   BACKBONE|DICT|INTERRES
    41   19  144 1    
    42   20   21 2    
    43   20   22 1    
    44   22   23 1    
    45   22   24 1    
    46   22  145 1    
    47   23  146 1    
    48   23  147 1    
    49   23  148 1    
    50   24   25 am   BACKBONE|DICT|INTERRES
    51   24  149 1    
    52   25   26 2    
    53   25   27 1    
    54   27   28 1    
    55   27   29 1    
    56   27  150 1    
    57   28  151 1    
    58   28  152 1    
    59   28  153 1    
    60   29   30 am   BACKBONE|DICT|INTERRES
    61   29  154 1    
    62   30   31 2    
    63   30   32 1    
    64   32   33 1    
    65   32   34 1    
    66   32  155 1    
    67   33  156 1    
    68   33  157 1    
    69   33  158 1    
    70   34   35 am   BACKBONE|DICT|INTERRES
    71   34  159 1    
    72   35   36 2    
    73   35   37 1    
    74   37   38 1    
    75   37   39 1    
    76   37  160 1    
    77   38  161 1    
    78   38  162 1    
    79   38  163 1    
    80   39   40 am   BACKBONE|DICT|INTERRES
    81   39  164 1    
    82   40   41 2    
    83   40   42 1    
    84   42   43 1    
    85   42   44 1    
    86   42  165 1    
    87   43  166 1    
    88   43  167 1    
    89   43  168 1    
    90   44   45 am   BACKBONE|DICT|INTERRES
    91   44  169 1    
    92   45   46 2    
    93   45   47 1    
    94   47   48 1    
    95   47   49 1    
    96   47  170 1    
    97   48  171 1    
    98   48  172 1    
    99   48  173 1    
   100   49   50 am   BACKBONE|DICT|INTERRES
   101   49  174 1    
   102   50   51 2    
   103   50   52 1    
   104   52   53 1    
   105   52   54 1    
   106   52  175 1    
   107   53  176 1    
   108   53  177 1    
   109   53  178 1    
   110   54   55 am   BACKBONE|DICT|INTERRES
   111   54  179 1    
   112   55   56 2    
   113   55   57 1    
   114   57   58 1    
   115   57   59 1    
   116   57  180 1    
   117   58  181 1    
   118   58  182 1    
   119   58  183 1    
   120   59   60 am   BACKBONE|DICT|INTERRES
   121   59  184 1    
   122   60   61 2    
   123   60   62 1    
   124   62   63 1    
   125   62   64 1    
   126   62  185 1    
   127   63  186 1    
   128   63  187 1    
   129   63  188 1    
   130   64   65 am   BACKBONE|DICT|INTERRES
   131   64  189 1    
   132   65   66 2    
   133   67   68 2    
   134   67   69 am   BACKBONE|DICT|INTERRES
   135   69   70 1    
   136   69  190 1    
   137   70   71 1    
   138   70   72 1    
   139   70  191 1    
   140   71  192 1    
   141   71  193 1    
   142   71  194 1    
   143   72   73 2    
   144   72   74 am   BACKBONE|DICT|INTERRES
   145   74   75 1    
   146   74  195 1    
   147   75   76 1    
   148   75   77 1    
   149   75  196 1    
   150   76  197 1    
   151   76  198 1    
   152   76  199 1    
   153   77   78 2    
   154   77   79 am   BACKBONE|DICT|INTERRES
   155   79   80 1    
   156   79  200 1    
   157   80   81 1    
   158   80   82 1    
   159   80  201 1    
   160   81  202 1    
   161   81  203 1    
   162   81  204 1    
   163   82   83 2    
   164   82   84 am   BACKBONE|DICT|INTERRES
   165   84   85 1    
   166   84  205 1    
   167   85   86 1    
   168   85   87 1    
   169   85  206 1    
   170   86  207 1    
   171   86  208 1    
   172   86  209 1    
   173   87   88 2    
   174   87   89 am   BACKBONE|DICT|INTERRES
   175   89   90 1    
   176   89  210 1    
   177   90   91 1    
   178   90   92 1    
   179   90  211 1    
   180   91  212 1    
   181   91  213 1    
   182   91  214 1    
   183   92   93 2    
   184   92   94 am   BACKBONE|DICT|INTERRES
   185   94   95 1    
   186   94  215 1    
   187   95   96 1    
   188   95   97 1    
   189   95  216 1    
   190   96  217 1    
   191   96  218 1    
   192   96  219 1    
   193   97   98 2    
   194   97   99 am   BACKBONE|DICT|INTERRES
   195   99  100 1    
   196   99  220 1    
   197  100  101 1    
   198  100  102 1    
   199  100  221 1    
   200  101  222 1    
   201  101  223 1    
   202  101  224 1    
   203  102  103 2    
   204  102  104 am   BACKBONE|DICT|INTERRES
   205  104  105 1    
   206  104  225 1    
   207  105  106 1    
   208  105  107 1    
   209  105  226 1    
   210  106  227 1    
   211  106  228 1    
   212  106  229 1    
   213  107  108 2    
   214  107  109 am   BACKBONE|DICT|INTERRES
   215  109  110 1    
   216  109  230 1    
   217  110  111 1    
   218  110  112 1    
   219  110  231 1    
   220  111  232 1    
   221  111  233 1    
   222  111  234 1    
   223  112  113 2    
   224  112  114 am   BACKBONE|DICT|INTERRES
   225  114  115 1    
   226  114  235 1    
   227  115  116 1    
   228  115  117 1    
   229  115  236 1    
   230  116  237 1    
   231  116  238 1    
   232  116  239 1    
   233  117  118 2    
   234  117  119 am   BACKBONE|DICT|INTERRES
   235  119  120 1    
   236  119  240 1    
   237  120  121 1    
   238  120  124 1    
   239  120  241 1    
   240  121  122 am   BACKBONE|DICT|INTERRES
   241  121  123 2    
   242  122  242 1    
   243  122  243 1    
   244  124  125 1    
   245  124  244 1    
   246  124  245 1    
   247  125  126 1    
   248  126  246 1    
   249  126  247 1    
@<TRIPOS>SUBSTRUCTURE
     1 UNK         1 GROUP             0       ****    0 ROOT    
