@<TRIPOS>MOLECULE
3R540
247   249    1
SMALL
USER_CHARGES


@<TRIPOS>ATOM
      1 CA          7.2155  -17.4343  -47.0338 C.3       0 UNK        -0.1800 
      2 C           6.7974  -15.9826  -46.8482 C.2       0 UNK         0.5000 
      3 O           7.0139  -15.4145  -45.7787 O.2       0 UNK        -0.5000 
      4 N           6.1907  -15.3884  -47.8824 N.am      1 UNK        -0.5000 
      5 CA          5.7418  -13.9925  -47.9111 C.3       1 UNK         0.1400 
      6 C6          4.7074  -13.7702  -49.0537 C.3       23 UNK        -0.0398 
      7 S7          3.0474  -13.3176  -48.4428 S.3       23 UNK        -0.2404 
      8 C8          2.5145  -14.8357  -47.5881 C.3       23 UNK        -0.0205 
      9 C9          2.4742  -16.0547  -48.4987 C.ar      23 UNK        -0.0193 
     10 C10         1.6493  -16.0733  -49.6283 C.ar      23 UNK        -0.1150 
     11 C11         1.5910  -17.2055  -50.4466 C.ar      23 UNK        -0.0193 
     12 C12         2.3736  -18.3197  -50.1346 C.ar      23 UNK        -0.1150 
     13 C13         3.1957  -18.3161  -49.0040 C.ar      23 UNK        -0.0193 
     14 C14         3.2427  -17.1810  -48.1914 C.ar      23 UNK        -0.1150 
     15 C15         4.0217  -19.5443  -48.6522 C.3       23 UNK        -0.0205 
     16 S16         3.2081  -20.5681  -47.3856 S.3       23 UNK        -0.2404 
     17 C17         1.6847  -21.0493  -48.2640 C.3       23 UNK        -0.0398 
     18 CA          0.9004  -22.1599  -47.5320 C.3       11 UNK         0.1400 
     19 N           0.3162  -21.7008  -46.2685 N.am      11 UNK        -0.5000 
     20 C          -0.2842  -22.4986  -45.3745 C.2       10 UNK         0.5000 
     21 O          -0.3715  -23.7213  -45.4993 O.2       10 UNK        -0.5000 
     22 CA         -0.9388  -21.8128  -44.1613 C.3       10 UNK         0.1400 
     23 CB          0.1168  -21.3983  -43.1255 C.3       10 UNK        -0.1800 
     24 N          -1.7519  -20.6537  -44.5361 N.am      10 UNK        -0.5000 
     25 C          -2.8567  -20.7207  -45.2936 C.2       9 UNK         0.5000 
     26 O          -3.3186  -21.7718  -45.7345 O.2       9 UNK        -0.5000 
     27 CA         -3.5476  -19.3938  -45.6541 C.3       9 UNK         0.1400 
     28 CB         -4.4255  -18.9020  -44.4942 C.3       9 UNK        -0.1800 
     29 N          -2.6037  -18.3454  -46.0340 N.am      9 UNK        -0.5000 
     30 C          -1.7725  -18.4093  -47.0836 C.2       8 UNK         0.5000 
     31 O          -1.7316  -19.3538  -47.8697 O.2       8 UNK        -0.5000 
     32 CA         -0.7688  -17.2548  -47.2358 C.3       8 UNK         0.1400 
     33 CB         -1.4518  -16.0028  -47.8061 C.3       8 UNK        -0.1800 
     34 N          -0.1001  -16.9301  -45.9743 N.am      8 UNK        -0.5000 
     35 C           0.6528  -17.7961  -45.2794 C.2       7 UNK         0.5000 
     36 O           0.8822  -18.9493  -45.6376 O.2       7 UNK        -0.5000 
     37 CA          1.1914  -17.3146  -43.9249 C.3       7 UNK         0.1400 
     38 CB          2.4635  -16.4817  -44.1093 C.3       7 UNK        -0.1800 
     39 N           0.1956  -16.5429  -43.1840 N.am      7 UNK        -0.5000 
     40 C          -0.9122  -17.0766  -42.6491 C.2       6 UNK         0.5000 
     41 O          -1.1821  -18.2775  -42.6887 O.2       6 UNK        -0.5000 
     42 CA         -1.9087  -16.0946  -42.0072 C.3       6 UNK         0.1400 
     43 CB         -1.4475  -15.6923  -40.5984 C.3       6 UNK        -0.1800 
     44 N          -2.1090  -14.8907  -42.8147 N.am      6 UNK        -0.5000 
     45 C          -2.6252  -14.8799  -44.0519 C.2       5 UNK         0.5000 
     46 O          -3.0311  -15.8877  -44.6282 O.2       5 UNK        -0.5000 
     47 CA         -2.6761  -13.5257  -44.7834 C.3       5 UNK         0.1400 
     48 CB         -4.0718  -12.8986  -44.6507 C.3       5 UNK        -0.1800 
     49 N          -1.6723  -12.5638  -44.3229 N.am      5 UNK        -0.5000 
     50 C          -0.3460  -12.7095  -44.4469 C.2       4 UNK         0.5000 
     51 O           0.1814  -13.6978  -44.9658 O.2       4 UNK        -0.5000 
     52 CA          0.5021  -11.5334  -43.9124 C.3       4 UNK         0.1400 
     53 CB          0.1127  -11.1444  -42.4682 C.3       4 UNK        -0.1800 
     54 N           1.9516  -11.7399  -44.0144 N.am      4 UNK        -0.5000 
     55 C           2.6982  -12.6574  -43.3793 C.2       3 UNK         0.5000 
     56 O           2.2434  -13.4830  -42.5857 O.2       3 UNK        -0.5000 
     57 CA          4.2107  -12.6279  -43.6799 C.3       3 UNK         0.1400 
     58 CB          4.8987  -13.9955  -43.4967 C.3       3 UNK        -0.1800 
     59 N           4.4774  -12.1056  -45.0227 N.am      3 UNK        -0.5000 
     60 C           5.6331  -11.5594  -45.4167 C.2       2 UNK         0.5000 
     61 O           6.6086  -11.3955  -44.6814 O.2       2 UNK        -0.5000 
     62 CA          5.7137  -11.1243  -46.8901 C.3       2 UNK         0.1400 
     63 CB          5.8592   -9.5983  -46.9964 C.3       2 UNK        -0.1800 
     64 N           6.8459  -11.7574  -47.5678 N.am      2 UNK        -0.5000 
     65 C           6.9487  -13.0198  -48.0131 C.2       1 UNK         0.5000 
     66 O           7.9875  -13.4115  -48.5484 O.2       1 UNK        -0.5000 
     67 C          -0.1678  -22.7600  -48.4649 C.2       11 UNK         0.5000 
     68 O           0.0612  -23.8269  -49.0336 O.2       11 UNK        -0.5000 
     69 N          -1.3240  -22.0925  -48.5823 N.am      12 UNK        -0.5000 
     70 CA         -2.4606  -22.5562  -49.3734 C.3       12 UNK         0.1400 
     71 CB         -3.5222  -21.4551  -49.4507 C.3       12 UNK        -0.1800 
     72 C          -3.0595  -23.8684  -48.8422 C.2       12 UNK         0.5000 
     73 O          -3.3656  -24.7492  -49.6425 O.2       12 UNK        -0.5000 
     74 N          -3.1746  -24.0072  -47.5146 N.am      13 UNK        -0.5000 
     75 CA         -3.6071  -25.2380  -46.8509 C.3       13 UNK         0.1400 
     76 CB         -3.8010  -24.9844  -45.3489 C.3       13 UNK        -0.1800 
     77 C          -2.6441  -26.4136  -47.0940 C.2       13 UNK         0.5000 
     78 O          -3.1044  -27.5176  -47.3858 O.2       13 UNK        -0.5000 
     79 N          -1.3317  -26.1486  -47.0218 N.am      14 UNK        -0.5000 
     80 CA         -0.2743  -27.1171  -47.3228 C.3       14 UNK         0.1400 
     81 CB          1.0848  -26.5386  -46.9005 C.3       14 UNK        -0.1800 
     82 C          -0.2538  -27.5451  -48.8042 C.2       14 UNK         0.5000 
     83 O          -0.0303  -28.7206  -49.0952 O.2       14 UNK        -0.5000 
     84 N          -0.5131  -26.5919  -49.7089 N.am      15 UNK        -0.5000 
     85 CA         -0.6026  -26.8018  -51.1558 C.3       15 UNK         0.1400 
     86 CB         -0.4213  -25.4464  -51.8584 C.3       15 UNK        -0.1800 
     87 C          -1.9199  -27.4618  -51.6143 C.2       15 UNK         0.5000 
     88 O          -2.0067  -27.8685  -52.7737 O.2       15 UNK        -0.5000 
     89 N          -2.9190  -27.5304  -50.7210 N.am      16 UNK        -0.5000 
     90 CA         -4.3046  -27.9518  -50.9613 C.3       16 UNK         0.1400 
     91 CB         -4.3796  -29.4400  -51.3619 C.3       16 UNK        -0.1800 
     92 C          -5.0383  -27.0107  -51.9437 C.2       16 UNK         0.5000 
     93 O          -5.8003  -27.4634  -52.7997 O.2       16 UNK        -0.5000 
     94 N          -4.7855  -25.7071  -51.7860 N.am      17 UNK        -0.5000 
     95 CA         -5.3190  -24.6010  -52.5776 C.3       17 UNK         0.1400 
     96 CB         -4.1640  -23.9623  -53.3690 C.3       17 UNK        -0.1800 
     97 C          -6.0235  -23.5758  -51.6673 C.2       17 UNK         0.5000 
     98 O          -6.0912  -22.3922  -52.0050 O.2       17 UNK        -0.5000 
     99 N          -6.5404  -24.0353  -50.5178 N.am      18 UNK        -0.5000 
    100 CA        -7.1885  -23.2237  -49.4801 C.3       18 UNK         0.1400 
    101 CB        -7.5332  -24.1253  -48.2860 C.3       18 UNK        -0.1800 
    102 C         -8.4373  -22.4518  -49.9527 C.2       18 UNK         0.5000 
    103 O         -8.7788  -21.4331  -49.3530 O.2       18 UNK        -0.5000 
    104 N         -9.0796  -22.9310  -51.0267 N.am      19 UNK        -0.5000 
    105 CA       -10.1843  -22.2535  -51.7057 C.3       19 UNK         0.1400 
    106 CB       -10.8830  -23.2523  -52.6409 C.3       19 UNK        -0.1800 
    107 C         -9.7344  -21.0039  -52.4908 C.2       19 UNK         0.5000 
    108 O        -10.5297  -20.0765  -52.6473 O.2       19 UNK        -0.5000 
    109 N         -8.4817  -20.9977  -52.9698 N.am      20 UNK        -0.5000 
    110 CA        -7.8699  -19.8674  -53.6673 C.3       20 UNK         0.1400 
    111 CB        -6.8417  -20.3812  -54.6880 C.3       20 UNK        -0.1800 
    112 C         -7.2129  -18.8955  -52.6749 C.2       20 UNK         0.5000 
    113 O         -7.3483  -17.6832  -52.8421 O.2       20 UNK        -0.5000 
    114 N         -6.5164  -19.4428  -51.6646 N.am      21 UNK        -0.5000 
    115 CA        -5.8756  -18.7305  -50.5479 C.3       21 UNK         0.1400 
    116 CB        -6.9471  -18.1860  -49.5812 C.3       21 UNK        -0.1800 
    117 C         -4.8692  -17.6437  -50.9937 C.2       21 UNK         0.5000 
    118 O         -4.8058  -16.5748  -50.3845 O.2       21 UNK        -0.5000 
    119 N         -4.1315  -17.9314  -52.0756 N.am      22 UNK        -0.5000 
    120 CA        -3.2233  -17.0122  -52.7905 C.3       22 UNK         0.1400 
    121 C         -3.9399  -15.8670  -53.5755 C.2       22 UNK         0.5000 
    122 N         -5.2603  -15.8596  -53.7154 N.am      22 UNK        -0.7600 
    123 O         -3.2820  -14.9771  -54.1081 O.2       22 UNK        -0.5000 
    124 C124       -2.0537  -16.4711  -51.9155 C.3       23 UNK        -0.0398 
    125 S125       -0.9970  -17.7925  -51.2218 S.3       23 UNK        -0.2404 
    126 C126        0.6809  -17.2277  -51.6639 C.3       23 UNK        -0.0205 
    127 H127        6.6329  -18.0789  -46.3756 H         1 UNK         0.0600 
    128 H128        8.2702  -17.5561  -46.7874 H         1 UNK         0.0600 
    129 H129        7.0671  -17.7702  -48.0603 H         1 UNK         0.0600 
    130 H130        6.0811  -15.9001  -48.7455 H         1 UNK         0.3000 
    131 H131        5.2592  -13.8276  -46.9505 H         1 UNK         0.0600 
    132 H132        4.6087  -14.6526  -49.6877 H         1 UNK         0.0800 
    133 H133        5.0182  -12.9774  -49.7370 H         1 UNK         0.0800 
    134 H134        3.1740  -15.0114  -46.7381 H         1 UNK         0.0800 
    135 H135        1.5204  -14.6727  -47.1715 H         1 UNK         0.0800 
    136 H136        1.0431  -15.2096  -49.8625 H         1 UNK         0.1150 
    137 H137        2.3280  -19.1977  -50.7632 H         1 UNK         0.1150 
    138 H138        3.8684  -17.1844  -47.3103 H         1 UNK         0.1150 
    139 H139        4.2120  -20.1472  -49.5414 H         1 UNK         0.0800 
    140 H140        4.9988  -19.2347  -48.2802 H         1 UNK         0.0800 
    141 H141        1.9716  -21.3770  -49.2651 H         1 UNK         0.0800 
    142 H142        1.0556  -20.1661  -48.3923 H         1 UNK         0.0800 
    143 H143        1.5986  -22.9652  -47.2934 H         1 UNK         0.0600 
    144 H144        0.3868  -20.7035  -46.0756 H         1 UNK         0.3000 
    145 H145       -1.6018  -22.5415  -43.6903 H         1 UNK         0.0600 
    146 H146       -0.3498  -20.9821  -42.2325 H         1 UNK         0.0600 
    147 H147        0.7128  -22.2562  -42.8119 H         1 UNK         0.0600 
    148 H148        0.8027  -20.6506  -43.5233 H         1 UNK         0.0600 
    149 H149       -1.4489  -19.7513  -44.1870 H         1 UNK         0.3000 
    150 H150       -4.1951  -19.5804  -46.5132 H         1 UNK         0.0600 
    151 H151       -5.1467  -19.6649  -44.1982 H         1 UNK         0.0600 
    152 H152       -4.9894  -18.0130  -44.7774 H         1 UNK         0.0600 
    153 H153       -3.8293  -18.6526  -43.6157 H         1 UNK         0.0600 
    154 H154       -2.5965  -17.5105  -45.4528 H         1 UNK         0.3000 
    155 H155       -0.0029  -17.5825  -47.9401 H         1 UNK         0.0600 
    156 H156       -2.2595  -15.6537  -47.1652 H         1 UNK         0.0600 
    157 H157       -1.8885  -16.2147  -48.7814 H         1 UNK         0.0600 
    158 H158       -0.7452  -15.1837  -47.9358 H         1 UNK         0.0600 
    159 H159       -0.2424  -16.0017  -45.6000 H         1 UNK         0.3000 
    160 H160        1.4501  -18.1973  -43.3362 H         1 UNK         0.0600 
    161 H161        2.2524  -15.5405  -44.6161 H         1 UNK         0.0600 
    162 H162        3.2067  -17.0194  -44.6996 H         1 UNK         0.0600 
    163 H163        2.9168  -16.2489  -43.1460 H         1 UNK         0.0600 
    164 H164        0.3350  -15.5422  -43.1409 H         1 UNK         0.3000 
    165 H165       -2.8701  -16.6055  -41.9209 H         1 UNK         0.0600 
    166 H166       -2.1891  -15.0635  -40.1054 H         1 UNK         0.0600 
    167 H167       -1.2995  -16.5720  -39.9706 H         1 UNK         0.0600 
    168 H168       -0.5048  -15.1437  -40.6231 H         1 UNK         0.0600 
    169 H169       -1.7989  -14.0166  -42.4177 H         1 UNK         0.3000 
    170 H170       -2.4889  -13.7163  -45.8414 H         1 UNK         0.0600 
    171 H171       -4.8423  -13.5806  -45.0132 H         1 UNK         0.0600 
    172 H172       -4.3082  -12.6578  -43.6135 H         1 UNK         0.0600 
    173 H173       -4.1507  -11.9823  -45.2360 H         1 UNK         0.0600 
    174 H174       -2.0290  -11.7210  -43.8964 H         1 UNK         0.3000 
    175 H175        0.2804  -10.6816  -44.5570 H         1 UNK         0.0600 
    176 H176        0.1818  -11.9918  -41.7852 H         1 UNK         0.0600 
    177 H177        0.7606  -10.3557  -42.0855 H         1 UNK         0.0600 
    178 H178       -0.9085  -10.7662  -42.4158 H         1 UNK         0.0600 
    179 H179        2.4288  -11.0939  -44.6255 H         1 UNK         0.3000 
    180 H180        4.6361  -11.9377  -42.9485 H         1 UNK         0.0600 
    181 H181        4.6020  -14.6972  -44.2752 H         1 UNK         0.0600 
    182 H182        4.6611  -14.4421  -42.5307 H         1 UNK         0.0600 
    183 H183        5.9834  -13.8993  -43.5417 H         1 UNK         0.0600 
    184 H184        3.7254  -12.2173  -45.6891 H         1 UNK         0.3000 
    185 H185        4.7917  -11.3908  -47.4029 H         1 UNK         0.0600 
    186 H186        5.0243   -9.0917  -46.5104 H         1 UNK         0.0600 
    187 H187        6.7769   -9.2444  -46.5246 H         1 UNK         0.0600 
    188 H188        5.8720   -9.2751  -48.0376 H         1 UNK         0.0600 
    189 H189        7.6667  -11.1749  -47.6396 H         1 UNK         0.3000 
    190 H190       -1.4319  -21.1913  -48.1218 H         1 UNK         0.3000 
    191 H191       -2.1022  -22.7444  -50.3873 H         1 UNK         0.0600 
    192 H192       -3.1088  -20.5468  -49.8898 H         1 UNK         0.0600 
    193 H193       -4.3563  -21.7634  -50.0773 H         1 UNK         0.0600 
    194 H194       -3.9192  -21.2050  -48.4666 H         1 UNK         0.0600 
    195 H195       -2.9614  -23.2160  -46.9123 H         1 UNK         0.3000 
    196 H196       -4.5735  -25.5201  -47.2714 H         1 UNK         0.0600 
    197 H197       -4.1239  -25.8916  -44.8369 H         1 UNK         0.0600 
    198 H198       -4.5629  -24.2244  -45.1747 H         1 UNK         0.0600 
    199 H199       -2.8792  -24.6480  -44.8739 H         1 UNK         0.0600 
    200 H200       -1.0348  -25.2196  -46.7396 H         1 UNK         0.3000 
    201 H201       -0.4611  -28.0108  -46.7238 H         1 UNK         0.0600 
    202 H202        1.0970  -26.2980  -45.8373 H         1 UNK         0.0600 
    203 H203        1.3253  -25.6288  -47.4505 H         1 UNK         0.0600 
    204 H204        1.8874  -27.2544  -47.0822 H         1 UNK         0.0600 
    205 H205       -0.6087  -25.6330  -49.3868 H         1 UNK         0.3000 
    206 H206        0.2153  -27.4569  -51.4623 H         1 UNK         0.0600 
    207 H207        0.5316  -24.9882  -51.5934 H         1 UNK         0.0600 
    208 H208       -0.4363  -25.5592  -52.9431 H         1 UNK         0.0600 
    209 H209       -1.2151  -24.7485  -51.5905 H         1 UNK         0.0600 
    210 H210       -2.7408  -27.1385  -49.8055 H         1 UNK         0.3000 
    211 H211       -4.8176  -27.8467  -50.0043 H         1 UNK         0.0600 
    212 H212       -3.9510  -29.6203  -52.3479 H         1 UNK         0.0600 
    213 H213       -5.4143  -29.7832  -51.3900 H         1 UNK         0.0600 
    214 H214       -3.8495  -30.0673  -50.6452 H         1 UNK         0.0600 
    215 H215       -4.1696  -25.4286  -51.0202 H         1 UNK         0.3000 
    216 H216       -6.0672  -24.9638  -53.2845 H         1 UNK         0.0600 
    217 H217       -4.5252  -23.1699  -54.0256 H         1 UNK         0.0600 
    218 H218       -3.6628  -24.6996  -53.9964 H         1 UNK         0.0600 
    219 H219       -3.4169  -23.5268  -52.7041 H         1 UNK         0.0600 
    220 H220       -6.4386  -25.0196  -50.3197 H         1 UNK         0.3000 
    221 H221       -6.4639  -22.4804  -49.1432 H         1 UNK         0.0600 
    222 H222       -8.2273  -24.9180  -48.5677 H         1 UNK         0.0600 
    223 H223       -6.6395  -24.5907  -47.8728 H         1 UNK         0.0600 
    224 H224       -7.9975  -23.5515  -47.4827 H         1 UNK         0.0600 
    225 H225       -8.7429  -23.7860  -51.4437 H         1 UNK         0.3000 
    226 H226      -10.9053  -21.9299  -50.9520 H         1 UNK         0.0600 
    227 H227      -11.2668  -24.1094  -52.0872 H         1 UNK         0.0600 
    228 H228      -11.7308  -22.7869  -53.1455 H         1 UNK         0.0600 
    229 H229      -10.2065  -23.6243  -53.4113 H         1 UNK         0.0600 
    230 H230       -7.8648  -21.7687  -52.7438 H         1 UNK         0.3000 
    231 H231       -8.6379  -19.3195  -54.2176 H         1 UNK         0.0600 
    232 H232       -7.3072  -21.0508  -55.4113 H         1 UNK         0.0600 
    233 H233       -6.0240  -20.9216  -54.2108 H         1 UNK         0.0600 
    234 H234       -6.4032  -19.5535  -55.2468 H         1 UNK         0.0600 
    235 H235       -6.4190  -20.4537  -51.6583 H         1 UNK         0.3000 
    236 H236       -5.2982  -19.4716  -49.9992 H         1 UNK         0.0600 
    237 H237       -6.4903  -17.7664  -48.6840 H         1 UNK         0.0600 
    238 H238       -7.5458  -17.4007  -50.0437 H         1 UNK         0.0600 
    239 H239       -7.6243  -18.9757  -49.2576 H         1 UNK         0.0600 
    240 H240       -4.2653  -18.8322  -52.5107 H         1 UNK         0.3000 
    241 H241       -2.7717  -17.6221  -53.5735 H         1 UNK         0.0600 
    242 H242       -5.6900  -15.1139  -54.2392 H         1 UNK         0.3800 
    243 H243       -5.8509  -16.5694  -53.2927 H         1 UNK         0.3800 
    244 H244       -2.4316  -15.8600  -51.0963 H         1 UNK         0.0800 
    245 H245       -1.4326  -15.8014  -52.5099 H         1 UNK         0.0800 
    246 H246        0.6666  -16.2341  -52.1119 H         1 UNK         0.0800 
    247 H247        1.0869  -17.8938  -52.4266 H         1 UNK         0.0800 
@<TRIPOS>BOND
     1    1    2 1    
     2    1  127 1    
     3    1  128 1    
     4    1  129 1    
     5    2    3 2    
     6    2    4 am   BACKBONE|DICT|INTERRES
     7    4    5 1    
     8    4  130 1    
     9    5    6 1    
    10    5   65 1    
    11    5  131 1    
    12    6    7 1    
    13    6  132 1    
    14    6  133 1    
    15    7    8 1    
    16    8    9 1    
    17    8  134 1    
    18    8  135 1    
    19    9   10 ar   
    20    9   14 ar   
    21   10   11 ar   
    22   10  136 1    
    23   11   12 ar   
    24   11  126 1    
    25   12   13 ar   
    26   12  137 1    
    27   13   14 ar   
    28   13   15 1    
    29   14  138 1    
    30   15   16 1    
    31   15  139 1    
    32   15  140 1    
    33   16   17 1    
    34   17   18 1    
    35   17  141 1    
    36   17  142 1    
    37   18   19 1    
    38   18   67 1    
    39   18  143 1    
    40   19   20 am   BACKBONE|DICT|INTERRES
    41   19  144 1    
    42   20   21 2    
    43   20   22 1    
    44   22   23 1    
    45   22   24 1    
    46   22  145 1    
    47   23  146 1    
    48   23  147 1    
    49   23  148 1    
    50   24   25 am   BACKBONE|DICT|INTERRES
    51   24  149 1    
    52   25   26 2    
    53   25   27 1    
    54   27   28 1    
    55   27   29 1    
    56   27  150 1    
    57   28  151 1    
    58   28  152 1    
    59   28  153 1    
    60   29   30 am   BACKBONE|DICT|INTERRES
    61   29  154 1    
    62   30   31 2    
    63   30   32 1    
    64   32   33 1    
    65   32   34 1    
    66   32  155 1    
    67   33  156 1    
    68   33  157 1    
    69   33  158 1    
    70   34   35 am   BACKBONE|DICT|INTERRES
    71   34  159 1    
    72   35   36 2    
    73   35   37 1    
    74   37   38 1    
    75   37   39 1    
    76   37  160 1    
    77   38  161 1    
    78   38  162 1    
    79   38  163 1    
    80   39   40 am   BACKBONE|DICT|INTERRES
    81   39  164 1    
    82   40   41 2    
    83   40   42 1    
    84   42   43 1    
    85   42   44 1    
    86   42  165 1    
    87   43  166 1    
    88   43  167 1    
    89   43  168 1    
    90   44   45 am   BACKBONE|DICT|INTERRES
    91   44  169 1    
    92   45   46 2    
    93   45   47 1    
    94   47   48 1    
    95   47   49 1    
    96   47  170 1    
    97   48  171 1    
    98   48  172 1    
    99   48  173 1    
   100   49   50 am   BACKBONE|DICT|INTERRES
   101   49  174 1    
   102   50   51 2    
   103   50   52 1    
   104   52   53 1    
   105   52   54 1    
   106   52  175 1    
   107   53  176 1    
   108   53  177 1    
   109   53  178 1    
   110   54   55 am   BACKBONE|DICT|INTERRES
   111   54  179 1    
   112   55   56 2    
   113   55   57 1    
   114   57   58 1    
   115   57   59 1    
   116   57  180 1    
   117   58  181 1    
   118   58  182 1    
   119   58  183 1    
   120   59   60 am   BACKBONE|DICT|INTERRES
   121   59  184 1    
   122   60   61 2    
   123   60   62 1    
   124   62   63 1    
   125   62   64 1    
   126   62  185 1    
   127   63  186 1    
   128   63  187 1    
   129   63  188 1    
   130   64   65 am   BACKBONE|DICT|INTERRES
   131   64  189 1    
   132   65   66 2    
   133   67   68 2    
   134   67   69 am   BACKBONE|DICT|INTERRES
   135   69   70 1    
   136   69  190 1    
   137   70   71 1    
   138   70   72 1    
   139   70  191 1    
   140   71  192 1    
   141   71  193 1    
   142   71  194 1    
   143   72   73 2    
   144   72   74 am   BACKBONE|DICT|INTERRES
   145   74   75 1    
   146   74  195 1    
   147   75   76 1    
   148   75   77 1    
   149   75  196 1    
   150   76  197 1    
   151   76  198 1    
   152   76  199 1    
   153   77   78 2    
   154   77   79 am   BACKBONE|DICT|INTERRES
   155   79   80 1    
   156   79  200 1    
   157   80   81 1    
   158   80   82 1    
   159   80  201 1    
   160   81  202 1    
   161   81  203 1    
   162   81  204 1    
   163   82   83 2    
   164   82   84 am   BACKBONE|DICT|INTERRES
   165   84   85 1    
   166   84  205 1    
   167   85   86 1    
   168   85   87 1    
   169   85  206 1    
   170   86  207 1    
   171   86  208 1    
   172   86  209 1    
   173   87   88 2    
   174   87   89 am   BACKBONE|DICT|INTERRES
   175   89   90 1    
   176   89  210 1    
   177   90   91 1    
   178   90   92 1    
   179   90  211 1    
   180   91  212 1    
   181   91  213 1    
   182   91  214 1    
   183   92   93 2    
   184   92   94 am   BACKBONE|DICT|INTERRES
   185   94   95 1    
   186   94  215 1    
   187   95   96 1    
   188   95   97 1    
   189   95  216 1    
   190   96  217 1    
   191   96  218 1    
   192   96  219 1    
   193   97   98 2    
   194   97   99 am   BACKBONE|DICT|INTERRES
   195   99  100 1    
   196   99  220 1    
   197  100  101 1    
   198  100  102 1    
   199  100  221 1    
   200  101  222 1    
   201  101  223 1    
   202  101  224 1    
   203  102  103 2    
   204  102  104 am   BACKBONE|DICT|INTERRES
   205  104  105 1    
   206  104  225 1    
   207  105  106 1    
   208  105  107 1    
   209  105  226 1    
   210  106  227 1    
   211  106  228 1    
   212  106  229 1    
   213  107  108 2    
   214  107  109 am   BACKBONE|DICT|INTERRES
   215  109  110 1    
   216  109  230 1    
   217  110  111 1    
   218  110  112 1    
   219  110  231 1    
   220  111  232 1    
   221  111  233 1    
   222  111  234 1    
   223  112  113 2    
   224  112  114 am   BACKBONE|DICT|INTERRES
   225  114  115 1    
   226  114  235 1    
   227  115  116 1    
   228  115  117 1    
   229  115  236 1    
   230  116  237 1    
   231  116  238 1    
   232  116  239 1    
   233  117  118 2    
   234  117  119 am   BACKBONE|DICT|INTERRES
   235  119  120 1    
   236  119  240 1    
   237  120  121 1    
   238  120  124 1    
   239  120  241 1    
   240  121  122 am   BACKBONE|DICT|INTERRES
   241  121  123 2    
   242  122  242 1    
   243  122  243 1    
   244  124  125 1    
   245  124  244 1    
   246  124  245 1    
   247  125  126 1    
   248  126  246 1    
   249  126  247 1    
@<TRIPOS>SUBSTRUCTURE
     1 UNK         1 GROUP             0       ****    0 ROOT    
