@<TRIPOS>MOLECULE
3R540
247   249    1
SMALL
USER_CHARGES


@<TRIPOS>ATOM
      1 CA          7.0530  -10.9953  -47.1549 C.3       0 UNK        -0.1800 
      2 C           5.9107  -11.9973  -47.0695 C.2       0 UNK         0.5000 
      3 O           5.1680  -11.9997  -46.0872 O.2       0 UNK        -0.5000 
      4 N           5.7568  -12.8422  -48.0970 N.am      1 UNK        -0.5000 
      5 CA          4.7172  -13.8717  -48.2120 C.3       1 UNK         0.1400 
      6 C6          5.2022  -15.0520  -49.0951 C.3       23 UNK        -0.0398 
      7 S7          4.2472  -16.5861  -48.8261 S.3       23 UNK        -0.2404 
      8 C8          3.6290  -16.8978  -50.5089 C.3       23 UNK        -0.0205 
      9 C9          2.5985  -18.0145  -50.5278 C.ar      23 UNK        -0.0193 
     10 C10         1.2348  -17.7118  -50.5951 C.ar      23 UNK        -0.1150 
     11 C11         0.2789  -18.7329  -50.6219 C.ar      23 UNK        -0.0193 
     12 C12         0.7045  -20.0634  -50.5754 C.ar      23 UNK        -0.1150 
     13 C13         2.0636  -20.3822  -50.5178 C.ar      23 UNK        -0.0193 
     14 C14         3.0077  -19.3510  -50.5005 C.ar      23 UNK        -0.1150 
     15 C15         2.4960  -21.8443  -50.4942 C.3       23 UNK        -0.0205 
     16 S16         3.5670  -22.2801  -49.0818 S.3       23 UNK        -0.2404 
     17 C17         2.6446  -21.6325  -47.6474 C.3       23 UNK        -0.0398 
     18 CA          1.7349  -22.6753  -46.9540 C.3       11 UNK         0.1400 
     19 N           1.4866  -22.3020  -45.5603 N.am      11 UNK        -0.5000 
     20 C           0.9373  -23.0968  -44.6329 C.2       10 UNK         0.5000 
     21 O           0.6522  -24.2787  -44.8244 O.2       10 UNK        -0.5000 
     22 CA          0.6263  -22.4497  -43.2697 C.3       10 UNK         0.1400 
     23 CB          1.8663  -22.4687  -42.3636 C.3       10 UNK        -0.1800 
     24 N           0.1333  -21.0760  -43.3941 N.am      10 UNK        -0.5000 
     25 C          -1.0249  -20.7371  -43.9790 C.2       9 UNK         0.5000 
     26 O          -1.8268  -21.5579  -44.4264 O.2       9 UNK        -0.5000 
     27 CA         -1.3144  -19.2306  -44.1315 C.3       9 UNK         0.1400 
     28 CB         -1.8730  -18.6442  -42.8271 C.3       9 UNK        -0.1800 
     29 N          -0.1435  -18.4599  -44.5548 N.am      9 UNK        -0.5000 
     30 C           0.5121  -18.6402  -45.7106 C.2       8 UNK         0.5000 
     31 O           0.1925  -19.4723  -46.5526 O.2       8 UNK        -0.5000 
     32 CA          1.7764  -17.8012  -45.9415 C.3       8 UNK         0.1400 
     33 CB          1.4125  -16.3885  -46.4114 C.3       8 UNK        -0.1800 
     34 N           2.6035  -17.7379  -44.7382 N.am      8 UNK        -0.5000 
     35 C           3.2560  -18.7892  -44.2214 C.2       7 UNK         0.5000 
     36 O           3.2606  -19.9111  -44.7284 O.2       7 UNK        -0.5000 
     37 CA          3.9860  -18.5560  -42.8871 C.3       7 UNK         0.1400 
     38 CB          5.3506  -17.8913  -43.1234 C.3       7 UNK        -0.1800 
     39 N           3.2013  -17.7408  -41.9591 N.am      7 UNK        -0.5000 
     40 C           2.0413  -18.1253  -41.4074 C.2       6 UNK         0.5000 
     41 O           1.5290  -19.2292  -41.5901 O.2       6 UNK        -0.5000 
     42 CA          1.3093  -17.0808  -40.5443 C.3       6 UNK         0.1400 
     43 CB          1.8168  -17.1251  -39.0955 C.3       6 UNK        -0.1800 
     44 N           1.4322  -15.7148  -41.0630 N.am      6 UNK        -0.5000 
     45 C           0.9560  -15.3094  -42.2475 C.2       5 UNK         0.5000 
     46 O           0.3887  -16.0574  -43.0463 O.2       5 UNK        -0.5000 
     47 CA          1.2137  -13.8407  -42.6232 C.3       5 UNK         0.1400 
     48 CB          2.5189  -13.7218  -43.4267 C.3       5 UNK        -0.1800 
     49 N           0.1091  -13.2829  -43.4040 N.am      5 UNK        -0.5000 
     50 C          -1.0894  -12.9643  -42.8914 C.2       4 UNK         0.5000 
     51 O          -1.3639  -13.0820  -41.6958 O.2       4 UNK        -0.5000 
     52 CA         -2.1605  -12.3888  -43.8429 C.3       4 UNK         0.1400 
     53 CB         -2.2825  -10.8685  -43.6526 C.3       4 UNK        -0.1800 
     54 N          -1.9034  -12.6596  -45.2561 N.am      4 UNK        -0.5000 
     55 C          -2.0869  -13.8414  -45.8586 C.2       3 UNK         0.5000 
     56 O          -2.5742  -14.8231  -45.2981 O.2       3 UNK        -0.5000 
     57 CA         -1.6525  -13.9499  -47.3371 C.3       3 UNK         0.1400 
     58 CB         -2.8798  -13.8712  -48.2588 C.3       3 UNK        -0.1800 
     59 N          -0.6621  -12.9602  -47.7887 N.am      3 UNK        -0.5000 
     60 C           0.5487  -12.7695  -47.2494 C.2       2 UNK         0.5000 
     61 O           0.9215  -13.3015  -46.2039 O.2       2 UNK        -0.5000 
     62 CA          1.4952  -11.7943  -47.9648 C.3       2 UNK         0.1400 
     63 CB          1.4381  -10.4083  -47.3053 C.3       2 UNK        -0.1800 
     64 N           2.8579  -12.3100  -47.8701 N.am      2 UNK        -0.5000 
     65 C           3.3707  -13.2556  -48.6651 C.2       1 UNK         0.5000 
     66 O           2.8305  -13.6195  -49.7108 O.2       1 UNK        -0.5000 
     67 C           0.4083  -22.8838  -47.7178 C.2       11 UNK         0.5000 
     68 O           0.2347  -23.9032  -48.3854 O.2       11 UNK        -0.5000 
     69 N          -0.5152  -21.9241  -47.5730 N.am      12 UNK        -0.5000 
     70 CA         -1.8344  -21.8787  -48.1998 C.3       12 UNK         0.1400 
     71 CB         -2.5263  -20.5708  -47.7982 C.3       12 UNK        -0.1800 
     72 C          -2.7348  -23.0737  -47.8606 C.2       12 UNK         0.5000 
     73 O          -3.4734  -23.5397  -48.7301 O.2       12 UNK        -0.5000 
     74 N          -2.6376  -23.5642  -46.6181 N.am      13 UNK        -0.5000 
     75 CA         -3.3813  -24.7125  -46.0973 C.3       13 UNK         0.1400 
     76 CB         -3.0261  -24.9076  -44.6161 C.3       13 UNK        -0.1800 
     77 C          -3.1616  -26.0216  -46.8827 C.2       13 UNK         0.5000 
     78 O          -4.0564  -26.8673  -46.8976 O.2       13 UNK        -0.5000 
     79 N          -2.0086  -26.1530  -47.5563 N.am      14 UNK        -0.5000 
     80 CA         -1.6689  -27.2899  -48.4156 C.3       14 UNK         0.1400 
     81 CB         -0.1711  -27.2369  -48.7523 C.3       14 UNK        -0.1800 
     82 C          -2.5091  -27.3678  -49.7082 C.2       14 UNK         0.5000 
     83 O          -2.5832  -28.4421  -50.3062 O.2       14 UNK        -0.5000 
     84 N          -3.1307  -26.2513  -50.1114 N.am      15 UNK        -0.5000 
     85 CA         -4.0151  -26.1512  -51.2732 C.3       15 UNK         0.1400 
     86 CB         -3.2381  -25.5703  -52.4690 C.3       15 UNK        -0.1800 
     87 C          -5.3023  -25.3820  -50.9176 C.2       15 UNK         0.5000 
     88 O          -5.8654  -24.6855  -51.7642 O.2       15 UNK        -0.5000 
     89 N          -5.7436  -25.5301  -49.6571 N.am      16 UNK        -0.5000 
     90 CA         -7.0056  -25.0487  -49.0779 C.3       16 UNK         0.1400 
     91 CB         -8.1775  -25.8850  -49.6318 C.3       16 UNK        -0.1800 
     92 C          -7.2595  -23.5310  -49.2229 C.2       16 UNK         0.5000 
     93 O          -8.4162  -23.1066  -49.2489 O.2       16 UNK        -0.5000 
     94 N          -6.1821  -22.7436  -49.3459 N.am      17 UNK        -0.5000 
     95 CA         -6.1064  -21.2984  -49.5929 C.3       17 UNK         0.1400 
     96 CB         -6.6886  -20.4918  -48.4198 C.3       17 UNK        -0.1800 
     97 C          -6.6769  -20.8153  -50.9410 C.2       17 UNK         0.5000 
     98 O          -6.0795  -19.9292  -51.5559 O.2       17 UNK        -0.5000 
     99 N          -7.8001  -21.3901  -51.3827 N.am      18 UNK        -0.5000 
    100 CA        -8.5029  -21.0587  -52.6198 C.3       18 UNK         0.1400 
    101 CB        -9.8622  -21.7748  -52.6410 C.3       18 UNK        -0.1800 
    102 C         -7.6801  -21.3954  -53.8735 C.2       18 UNK         0.5000 
    103 O         -7.4711  -20.5203  -54.7141 O.2       18 UNK        -0.5000 
    104 N         -7.1893  -22.6406  -53.9572 N.am      19 UNK        -0.5000 
    105 CA        -6.3282  -23.0998  -55.0516 C.3       19 UNK         0.1400 
    106 CB        -6.4124  -24.6289  -55.1747 C.3       19 UNK        -0.1800 
    107 C         -4.8720  -22.6242  -54.8874 C.2       19 UNK         0.5000 
    108 O         -4.1402  -22.5597  -55.8754 O.2       19 UNK        -0.5000 
    109 N         -4.4897  -22.2648  -53.6535 N.am      20 UNK        -0.5000 
    110 CA        -3.2052  -21.6472  -53.3203 C.3       20 UNK         0.1400 
    111 CB        -2.9905  -21.7329  -51.8019 C.3       20 UNK        -0.1800 
    112 C         -3.1065  -20.1750  -53.7729 C.2       20 UNK         0.5000 
    113 O         -1.9967  -19.6538  -53.8709 O.2       20 UNK        -0.5000 
    114 N         -4.2633  -19.5371  -54.0090 N.am      21 UNK        -0.5000 
    115 CA        -4.4637  -18.1287  -54.3648 C.3       21 UNK         0.1400 
    116 CB        -3.7287  -17.7588  -55.6707 C.3       21 UNK        -0.1800 
    117 C         -4.1810  -17.1472  -53.2055 C.2       21 UNK         0.5000 
    118 O         -3.9075  -15.9718  -53.4552 O.2       21 UNK        -0.5000 
    119 N         -4.2977  -17.6308  -51.9621 N.am      22 UNK        -0.5000 
    120 CA        -4.3414  -16.8033  -50.7431 C.3       22 UNK         0.1400 
    121 C         -5.7989  -16.4454  -50.3299 C.2       22 UNK         0.5000 
    122 N         -6.8179  -17.1704  -50.7779 N.am      22 UNK        -0.7600 
    123 O         -6.0095  -15.4832  -49.5977 O.2       22 UNK        -0.5000 
    124 C124       -3.5915  -17.4782  -49.5644 C.3       23 UNK        -0.0398 
    125 S125       -1.7925  -17.1689  -49.5722 S.3       23 UNK        -0.2404 
    126 C126       -1.2079  -18.4208  -50.7552 C.3       23 UNK        -0.0205 
    127 H127        7.7335  -11.1303  -46.3142 H         1 UNK         0.0600 
    128 H128        6.6627   -9.9782  -47.1191 H         1 UNK         0.0600 
    129 H129        7.6242  -11.1085  -48.0766 H         1 UNK         0.0600 
    130 H130        6.3786  -12.7630  -48.8895 H         1 UNK         0.3000 
    131 H131        4.5462  -14.2752  -47.2111 H         1 UNK         0.0600 
    132 H132        6.2377  -15.2911  -48.8491 H         1 UNK         0.0800 
    133 H133        5.2083  -14.7770  -50.1512 H         1 UNK         0.0800 
    134 H134        3.1936  -15.9838  -50.9151 H         1 UNK         0.0800 
    135 H135        4.4658  -17.1562  -51.1595 H         1 UNK         0.0800 
    136 H136        0.9162  -16.6794  -50.6332 H         1 UNK         0.1150 
    137 H137       -0.0235  -20.8590  -50.6010 H         1 UNK         0.1150 
    138 H138        4.0613  -19.5888  -50.4567 H         1 UNK         0.1150 
    139 H139        1.6273  -22.5042  -50.4859 H         1 UNK         0.0800 
    140 H140        3.0322  -22.0638  -51.4182 H         1 UNK         0.0800 
    141 H141        2.0967  -20.7265  -47.9059 H         1 UNK         0.0800 
    142 H142        3.4121  -21.3042  -46.9463 H         1 UNK         0.0800 
    143 H143        2.2612  -23.6322  -46.9375 H         1 UNK         0.0600 
    144 H144        1.7223  -21.3514  -45.3005 H         1 UNK         0.3000 
    145 H145       -0.1548  -23.0442  -42.7915 H         1 UNK         0.0600 
    146 H146        2.2492  -23.4830  -42.2450 H         1 UNK         0.0600 
    147 H147        2.6722  -21.8573  -42.7711 H         1 UNK         0.0600 
    148 H148        1.6319  -22.0909  -41.3682 H         1 UNK         0.0600 
    149 H149        0.7134  -20.3446  -42.9935 H         1 UNK         0.3000 
    150 H150       -2.0764  -19.1135  -44.9036 H         1 UNK         0.0600 
    151 H151       -2.1271  -17.5904  -42.9461 H         1 UNK         0.0600 
    152 H152       -1.1569  -18.7255  -42.0097 H         1 UNK         0.0600 
    153 H153       -2.7804  -19.1667  -42.5221 H         1 UNK         0.0600 
    154 H154        0.1576  -17.7104  -43.9367 H         1 UNK         0.3000 
    155 H155        2.3615  -18.2784  -46.7311 H         1 UNK         0.0600 
    156 H156        0.8918  -16.4222  -47.3694 H         1 UNK         0.0600 
    157 H157        2.3003  -15.7715  -46.5474 H         1 UNK         0.0600 
    158 H158        0.7578  -15.8844  -45.7005 H         1 UNK         0.0600 
    159 H159        2.6001  -16.8672  -44.2296 H         1 UNK         0.3000 
    160 H160        4.1549  -19.5307  -42.4243 H         1 UNK         0.0600 
    161 H161        5.9613  -18.4870  -43.8033 H         1 UNK         0.0600 
    162 H162        5.9071  -17.7917  -42.1913 H         1 UNK         0.0600 
    163 H163        5.2468  -16.8975  -43.5609 H         1 UNK         0.0600 
    164 H164        3.5504  -16.8171  -41.7516 H         1 UNK         0.3000 
    165 H165        0.2489  -17.3408  -40.5405 H         1 UNK         0.0600 
    166 H166        1.2451  -16.4520  -38.4564 H         1 UNK         0.0600 
    167 H167        1.7184  -18.1284  -38.6785 H         1 UNK         0.0600 
    168 H168        2.8681  -16.8427  -39.0267 H         1 UNK         0.0600 
    169 H169        1.8959  -15.0464  -40.4644 H         1 UNK         0.3000 
    170 H170        1.3177  -13.2527  -41.7089 H         1 UNK         0.0600 
    171 H171        2.7034  -12.6921  -43.7337 H         1 UNK         0.0600 
    172 H172        3.3755  -14.0423  -42.8329 H         1 UNK         0.0600 
    173 H173        2.4975  -14.3373  -44.3265 H         1 UNK         0.0600 
    174 H174        0.2577  -13.2218  -44.4076 H         1 UNK         0.3000 
    175 H175       -3.1158  -12.8431  -43.5717 H         1 UNK         0.0600 
    176 H176       -1.3575  -10.3547  -43.9178 H         1 UNK         0.0600 
    177 H177       -3.0843  -10.4567  -44.2658 H         1 UNK         0.0600 
    178 H178       -2.5097  -10.6205  -42.6149 H         1 UNK         0.0600 
    179 H179       -1.4903  -11.9126  -45.7939 H         1 UNK         0.3000 
    180 H180       -1.1993  -14.9356  -47.4583 H         1 UNK         0.0600 
    181 H181       -2.6092  -14.0673  -49.2964 H         1 UNK         0.0600 
    182 H182       -3.3545  -12.8904  -48.2133 H         1 UNK         0.0600 
    183 H183       -3.6301  -14.6115  -47.9778 H         1 UNK         0.0600 
    184 H184       -0.8981  -12.4576  -48.6320 H         1 UNK         0.3000 
    185 H185        1.2052  -11.7019  -49.0136 H         1 UNK         0.0600 
    186 H186        1.7095  -10.4525  -46.2494 H         1 UNK         0.0600 
    187 H187        2.1174   -9.7110  -47.7960 H         1 UNK         0.0600 
    188 H188        0.4349   -9.9854  -47.3700 H         1 UNK         0.0600 
    189 H189        3.3705  -12.0836  -47.0242 H         1 UNK         0.3000 
    190 H190       -0.2607  -21.0916  -47.0413 H         1 UNK         0.3000 
    191 H191       -1.6828  -21.8788  -49.2777 H         1 UNK         0.0600 
    192 H192       -2.6703  -20.5082  -46.7210 H         1 UNK         0.0600 
    193 H193       -3.5077  -20.4790  -48.2526 H         1 UNK         0.0600 
    194 H194       -1.9405  -19.7065  -48.1051 H         1 UNK         0.0600 
    195 H195       -2.0414  -23.0752  -45.9597 H         1 UNK         0.3000 
    196 H196       -4.4433  -24.4688  -46.1656 H         1 UNK         0.0600 
    197 H197       -3.5903  -25.7344  -44.1828 H         1 UNK         0.0600 
    198 H198       -3.2581  -24.0157  -44.0335 H         1 UNK         0.0600 
    199 H199       -1.9661  -25.1272  -44.4840 H         1 UNK         0.0600 
    200 H200       -1.3359  -25.3966  -47.5229 H         1 UNK         0.3000 
    201 H201       -1.8563  -28.2043  -47.8490 H         1 UNK         0.0600 
    202 H202        0.4379  -27.1857  -47.8495 H         1 UNK         0.0600 
    203 H203        0.0708  -26.3725  -49.3713 H         1 UNK         0.0600 
    204 H204        0.1362  -28.1272  -49.3023 H         1 UNK         0.0600 
    205 H205       -3.0335  -25.4052  -49.5591 H         1 UNK         0.3000 
    206 H206       -4.3608  -27.1458  -51.5614 H         1 UNK         0.0600 
    207 H207       -3.8838  -25.4079  -53.3316 H         1 UNK         0.0600 
    208 H208       -2.7639  -24.6228  -52.2235 H         1 UNK         0.0600 
    209 H209       -2.4507  -26.2546  -52.7847 H         1 UNK         0.0600 
    210 H210       -5.1810  -26.0997  -49.0393 H         1 UNK         0.3000 
    211 H211       -6.9386  -25.2388  -48.0059 H         1 UNK         0.0600 
    212 H212       -8.3328  -25.7027  -50.6958 H         1 UNK         0.0600 
    213 H213       -9.1103  -25.6494  -49.1182 H         1 UNK         0.0600 
    214 H214       -7.9987  -26.9519  -49.4975 H         1 UNK         0.0600 
    215 H215       -5.2775  -23.2058  -49.2983 H         1 UNK         0.3000 
    216 H216       -5.0431  -21.0833  -49.6393 H         1 UNK         0.0600 
    217 H217       -6.5369  -19.4218  -48.5695 H         1 UNK         0.0600 
    218 H218       -6.2047  -20.7599  -47.4806 H         1 UNK         0.0600 
    219 H219       -7.7602  -20.6559  -48.3050 H         1 UNK         0.0600 
    220 H220       -8.2252  -22.0897  -50.7795 H         1 UNK         0.3000 
    221 H221       -8.6865  -19.9822  -52.6217 H         1 UNK         0.0600 
    222 H222       -9.7506  -22.8583  -52.5833 H         1 UNK         0.0600 
    223 H223      -10.4844  -21.4595  -51.8032 H         1 UNK         0.0600 
    224 H224      -10.4103  -21.5475  -53.5562 H         1 UNK         0.0600 
    225 H225       -7.3541  -23.2945  -53.2029 H         1 UNK         0.3000 
    226 H226       -6.6996  -22.6767  -55.9876 H         1 UNK         0.0600 
    227 H227       -7.4359  -24.9511  -55.3663 H         1 UNK         0.0600 
    228 H228       -5.7995  -24.9870  -56.0029 H         1 UNK         0.0600 
    229 H229       -6.0682  -25.1333  -54.2740 H         1 UNK         0.0600 
    230 H230       -5.1488  -22.3938  -52.8997 H         1 UNK         0.3000 
    231 H231       -2.4162  -22.2161  -53.8166 H         1 UNK         0.0600 
    232 H232       -3.4824  -20.9148  -51.2779 H         1 UNK         0.0600 
    233 H233       -3.3635  -22.6629  -51.3766 H         1 UNK         0.0600 
    234 H234       -1.9273  -21.6723  -51.5773 H         1 UNK         0.0600 
    235 H235       -5.1160  -20.0624  -53.8669 H         1 UNK         0.3000 
    236 H236       -5.5321  -18.0362  -54.5653 H         1 UNK         0.0600 
    237 H237       -2.6479  -17.7214  -55.5335 H         1 UNK         0.0600 
    238 H238       -3.9438  -18.4772  -56.4617 H         1 UNK         0.0600 
    239 H239       -4.0429  -16.7785  -56.0304 H         1 UNK         0.0600 
    240 H240       -4.6011  -18.5923  -51.8595 H         1 UNK         0.3000 
    241 H241       -3.8549  -15.8459  -50.9394 H         1 UNK         0.0600 
    242 H242       -7.7562  -16.9177  -50.5121 H         1 UNK         0.3800 
    243 H243       -6.6562  -18.0045  -51.3277 H         1 UNK         0.3800 
    244 H244       -3.9457  -17.0990  -48.6038 H         1 UNK         0.0800 
    245 H245       -3.7915  -18.5489  -49.5451 H         1 UNK         0.0800 
    246 H246       -1.7933  -19.3295  -50.6238 H         1 UNK         0.0800 
    247 H247       -1.4034  -18.0666  -51.7675 H         1 UNK         0.0800 
@<TRIPOS>BOND
     1    1    2 1    
     2    1  127 1    
     3    1  128 1    
     4    1  129 1    
     5    2    3 2    
     6    2    4 am   BACKBONE|DICT|INTERRES
     7    4    5 1    
     8    4  130 1    
     9    5    6 1    
    10    5   65 1    
    11    5  131 1    
    12    6    7 1    
    13    6  132 1    
    14    6  133 1    
    15    7    8 1    
    16    8    9 1    
    17    8  134 1    
    18    8  135 1    
    19    9   10 ar   
    20    9   14 ar   
    21   10   11 ar   
    22   10  136 1    
    23   11   12 ar   
    24   11  126 1    
    25   12   13 ar   
    26   12  137 1    
    27   13   14 ar   
    28   13   15 1    
    29   14  138 1    
    30   15   16 1    
    31   15  139 1    
    32   15  140 1    
    33   16   17 1    
    34   17   18 1    
    35   17  141 1    
    36   17  142 1    
    37   18   19 1    
    38   18   67 1    
    39   18  143 1    
    40   19   20 am   BACKBONE|DICT|INTERRES
    41   19  144 1    
    42   20   21 2    
    43   20   22 1    
    44   22   23 1    
    45   22   24 1    
    46   22  145 1    
    47   23  146 1    
    48   23  147 1    
    49   23  148 1    
    50   24   25 am   BACKBONE|DICT|INTERRES
    51   24  149 1    
    52   25   26 2    
    53   25   27 1    
    54   27   28 1    
    55   27   29 1    
    56   27  150 1    
    57   28  151 1    
    58   28  152 1    
    59   28  153 1    
    60   29   30 am   BACKBONE|DICT|INTERRES
    61   29  154 1    
    62   30   31 2    
    63   30   32 1    
    64   32   33 1    
    65   32   34 1    
    66   32  155 1    
    67   33  156 1    
    68   33  157 1    
    69   33  158 1    
    70   34   35 am   BACKBONE|DICT|INTERRES
    71   34  159 1    
    72   35   36 2    
    73   35   37 1    
    74   37   38 1    
    75   37   39 1    
    76   37  160 1    
    77   38  161 1    
    78   38  162 1    
    79   38  163 1    
    80   39   40 am   BACKBONE|DICT|INTERRES
    81   39  164 1    
    82   40   41 2    
    83   40   42 1    
    84   42   43 1    
    85   42   44 1    
    86   42  165 1    
    87   43  166 1    
    88   43  167 1    
    89   43  168 1    
    90   44   45 am   BACKBONE|DICT|INTERRES
    91   44  169 1    
    92   45   46 2    
    93   45   47 1    
    94   47   48 1    
    95   47   49 1    
    96   47  170 1    
    97   48  171 1    
    98   48  172 1    
    99   48  173 1    
   100   49   50 am   BACKBONE|DICT|INTERRES
   101   49  174 1    
   102   50   51 2    
   103   50   52 1    
   104   52   53 1    
   105   52   54 1    
   106   52  175 1    
   107   53  176 1    
   108   53  177 1    
   109   53  178 1    
   110   54   55 am   BACKBONE|DICT|INTERRES
   111   54  179 1    
   112   55   56 2    
   113   55   57 1    
   114   57   58 1    
   115   57   59 1    
   116   57  180 1    
   117   58  181 1    
   118   58  182 1    
   119   58  183 1    
   120   59   60 am   BACKBONE|DICT|INTERRES
   121   59  184 1    
   122   60   61 2    
   123   60   62 1    
   124   62   63 1    
   125   62   64 1    
   126   62  185 1    
   127   63  186 1    
   128   63  187 1    
   129   63  188 1    
   130   64   65 am   BACKBONE|DICT|INTERRES
   131   64  189 1    
   132   65   66 2    
   133   67   68 2    
   134   67   69 am   BACKBONE|DICT|INTERRES
   135   69   70 1    
   136   69  190 1    
   137   70   71 1    
   138   70   72 1    
   139   70  191 1    
   140   71  192 1    
   141   71  193 1    
   142   71  194 1    
   143   72   73 2    
   144   72   74 am   BACKBONE|DICT|INTERRES
   145   74   75 1    
   146   74  195 1    
   147   75   76 1    
   148   75   77 1    
   149   75  196 1    
   150   76  197 1    
   151   76  198 1    
   152   76  199 1    
   153   77   78 2    
   154   77   79 am   BACKBONE|DICT|INTERRES
   155   79   80 1    
   156   79  200 1    
   157   80   81 1    
   158   80   82 1    
   159   80  201 1    
   160   81  202 1    
   161   81  203 1    
   162   81  204 1    
   163   82   83 2    
   164   82   84 am   BACKBONE|DICT|INTERRES
   165   84   85 1    
   166   84  205 1    
   167   85   86 1    
   168   85   87 1    
   169   85  206 1    
   170   86  207 1    
   171   86  208 1    
   172   86  209 1    
   173   87   88 2    
   174   87   89 am   BACKBONE|DICT|INTERRES
   175   89   90 1    
   176   89  210 1    
   177   90   91 1    
   178   90   92 1    
   179   90  211 1    
   180   91  212 1    
   181   91  213 1    
   182   91  214 1    
   183   92   93 2    
   184   92   94 am   BACKBONE|DICT|INTERRES
   185   94   95 1    
   186   94  215 1    
   187   95   96 1    
   188   95   97 1    
   189   95  216 1    
   190   96  217 1    
   191   96  218 1    
   192   96  219 1    
   193   97   98 2    
   194   97   99 am   BACKBONE|DICT|INTERRES
   195   99  100 1    
   196   99  220 1    
   197  100  101 1    
   198  100  102 1    
   199  100  221 1    
   200  101  222 1    
   201  101  223 1    
   202  101  224 1    
   203  102  103 2    
   204  102  104 am   BACKBONE|DICT|INTERRES
   205  104  105 1    
   206  104  225 1    
   207  105  106 1    
   208  105  107 1    
   209  105  226 1    
   210  106  227 1    
   211  106  228 1    
   212  106  229 1    
   213  107  108 2    
   214  107  109 am   BACKBONE|DICT|INTERRES
   215  109  110 1    
   216  109  230 1    
   217  110  111 1    
   218  110  112 1    
   219  110  231 1    
   220  111  232 1    
   221  111  233 1    
   222  111  234 1    
   223  112  113 2    
   224  112  114 am   BACKBONE|DICT|INTERRES
   225  114  115 1    
   226  114  235 1    
   227  115  116 1    
   228  115  117 1    
   229  115  236 1    
   230  116  237 1    
   231  116  238 1    
   232  116  239 1    
   233  117  118 2    
   234  117  119 am   BACKBONE|DICT|INTERRES
   235  119  120 1    
   236  119  240 1    
   237  120  121 1    
   238  120  124 1    
   239  120  241 1    
   240  121  122 am   BACKBONE|DICT|INTERRES
   241  121  123 2    
   242  122  242 1    
   243  122  243 1    
   244  124  125 1    
   245  124  244 1    
   246  124  245 1    
   247  125  126 1    
   248  126  246 1    
   249  126  247 1    
@<TRIPOS>SUBSTRUCTURE
     1 UNK         1 GROUP             0       ****    0 ROOT    
