@<TRIPOS>MOLECULE
3R540
247   249    1
SMALL
USER_CHARGES


@<TRIPOS>ATOM
      1 CA          2.1060  -14.0547  -46.7031 C.3       0 UNK        -0.1800 
      2 C           0.6129  -13.7736  -46.6937 C.2       0 UNK         0.5000 
      3 O           0.1975  -12.6397  -46.9318 O.2       0 UNK        -0.5000 
      4 N          -0.1870  -14.8140  -46.4256 N.am      1 UNK        -0.5000 
      5 CA         -1.6562  -14.8064  -46.3788 C.3       1 UNK         0.1400 
      6 C6         -2.3138  -14.5582  -47.7669 C.3       23 UNK        -0.0398 
      7 S7         -2.0611  -15.9714  -48.8938 S.3       23 UNK        -0.2404 
      8 C8         -0.6077  -15.4440  -49.8587 C.3       23 UNK        -0.0205 
      9 C9          0.0958  -16.6448  -50.4701 C.ar      23 UNK        -0.0193 
     10 C10         0.1211  -16.8373  -51.8540 C.ar      23 UNK        -0.1150 
     11 C11         0.7416  -17.9646  -52.4038 C.ar      23 UNK        -0.0193 
     12 C12         1.3160  -18.9140  -51.5495 C.ar      23 UNK        -0.1150 
     13 C13         1.2823  -18.7424  -50.1617 C.ar      23 UNK        -0.0193 
     14 C14         0.7087  -17.5816  -49.6356 C.ar      23 UNK        -0.1150 
     15 C15         1.8405  -19.8290  -49.2433 C.3       23 UNK        -0.0205 
     16 S16         0.7699  -20.2203  -47.8090 S.3       23 UNK        -0.2404 
     17 C17        -0.8791  -20.2962  -48.5831 C.3       23 UNK        -0.0398 
     18 CA         -1.9047  -21.1208  -47.7763 C.3       11 UNK         0.1400 
     19 N          -2.1614  -20.5448  -46.4472 N.am      11 UNK        -0.5000 
     20 C          -2.9049  -21.1089  -45.4840 C.2       10 UNK         0.5000 
     21 O          -3.5069  -22.1724  -45.6413 O.2       10 UNK        -0.5000 
     22 CA         -3.0681  -20.3401  -44.1546 C.3       10 UNK         0.1400 
     23 CB         -3.1081  -21.2887  -42.9382 C.3       10 UNK        -0.1800 
     24 N          -2.1080  -19.2465  -43.9429 N.am      10 UNK        -0.5000 
     25 C          -0.7825  -19.3512  -43.7727 C.2       9 UNK         0.5000 
     26 O          -0.1609  -20.4153  -43.8157 O.2       9 UNK        -0.5000 
     27 CA         -0.0383  -18.0377  -43.4761 C.3       9 UNK         0.1400 
     28 CB         -0.0609  -17.7274  -41.9731 C.3       9 UNK        -0.1800 
     29 N           1.3475  -18.1344  -43.9245 N.am      9 UNK        -0.5000 
     30 C           1.7571  -17.8268  -45.1606 C.2       8 UNK         0.5000 
     31 O           1.0287  -17.2851  -45.9928 O.2       8 UNK        -0.5000 
     32 CA          3.2115  -18.1844  -45.5178 C.3       8 UNK         0.1400 
     33 CB          3.7787  -17.3714  -46.6962 C.3       8 UNK        -0.1800 
     34 N           4.0773  -18.0238  -44.3527 N.am      8 UNK        -0.5000 
     35 C           5.0368  -18.8768  -43.9734 C.2       7 UNK         0.5000 
     36 O           5.3289  -19.8960  -44.6002 O.2       7 UNK        -0.5000 
     37 CA          5.8043  -18.5518  -42.6731 C.3       7 UNK         0.1400 
     38 CB          7.1807  -17.9520  -43.0003 C.3       7 UNK        -0.1800 
     39 N           5.0984  -17.6400  -41.7694 N.am      7 UNK        -0.5000 
     40 C           3.9391  -17.9041  -41.1517 C.2       6 UNK         0.5000 
     41 O           3.3489  -18.9811  -41.2392 O.2       6 UNK        -0.5000 
     42 CA          3.3113  -16.7638  -40.3257 C.3       6 UNK         0.1400 
     43 CB          3.7359  -16.8824  -38.8543 C.3       6 UNK        -0.1800 
     44 N           3.5951  -15.4002  -40.7914 N.am      6 UNK        -0.5000 
     45 C           3.4479  -14.9149  -42.0341 C.2       5 UNK         0.5000 
     46 O           3.1692  -15.6041  -43.0160 O.2       5 UNK        -0.5000 
     47 CA          3.6258  -13.3940  -42.1764 C.3       5 UNK         0.1400 
     48 CB          3.3302  -12.8855  -43.5977 C.3       5 UNK        -0.1800 
     49 N           2.7139  -12.7357  -41.2476 N.am      5 UNK        -0.5000 
     50 C           3.0630  -11.9561  -40.2167 C.2       4 UNK         0.5000 
     51 O           4.2283  -11.6637  -39.9467 O.2       4 UNK        -0.5000 
     52 CA          1.9240  -11.4163  -39.3255 C.3       4 UNK         0.1400 
     53 CB          1.6302   -9.9467  -39.6646 C.3       4 UNK        -0.1800 
     54 N           0.6811  -12.1823  -39.4423 N.am      4 UNK        -0.5000 
     55 C           0.5001  -13.4322  -38.9931 C.2       3 UNK         0.5000 
     56 O           1.3428  -14.0528  -38.3451 O.2       3 UNK        -0.5000 
     57 CA         -0.8333  -14.1161  -39.3593 C.3       3 UNK         0.1400 
     58 CB         -1.8237  -14.0231  -38.1888 C.3       3 UNK        -0.1800 
     59 N          -1.4711  -13.5825  -40.5705 N.am      3 UNK        -0.5000 
     60 C          -0.9459  -13.6447  -41.8007 C.2       2 UNK         0.5000 
     61 O           0.1692  -14.1099  -42.0457 O.2       2 UNK        -0.5000 
     62 CA         -1.7799  -13.0542  -42.9426 C.3       2 UNK         0.1400 
     63 CB         -1.4712  -11.5577  -43.1243 C.3       2 UNK        -0.1800 
     64 N          -1.4461  -13.7848  -44.1579 N.am      2 UNK        -0.5000 
     65 C          -2.2064  -13.8960  -45.2532 C.2       1 UNK         0.5000 
     66 O          -3.3007  -13.3425  -45.3747 O.2       1 UNK        -0.5000 
     67 C          -3.1813  -21.3117  -48.6224 C.2       11 UNK         0.5000 
     68 O          -3.1648  -22.1048  -49.5600 O.2       11 UNK        -0.5000 
     69 N          -4.2640  -20.5884  -48.3059 N.am      12 UNK        -0.5000 
     70 CA         -5.5717  -20.7630  -48.9409 C.3       12 UNK         0.1400 
     71 CB         -6.4632  -19.5617  -48.5969 C.3       12 UNK        -0.1800 
     72 C          -6.2549  -22.0865  -48.5420 C.2       12 UNK         0.5000 
     73 O          -7.0673  -22.5977  -49.3118 O.2       12 UNK        -0.5000 
     74 N          -5.9080  -22.6181  -47.3620 N.am      13 UNK        -0.5000 
     75 CA         -6.3831  -23.9012  -46.8554 C.3       13 UNK         0.1400 
     76 CB         -6.6895  -23.7754  -45.3540 C.3       13 UNK        -0.1800 
     77 C          -5.3411  -24.9995  -47.1123 C.2       13 UNK         0.5000 
     78 O          -5.6905  -26.0446  -47.6618 O.2       13 UNK        -0.5000 
     79 N          -4.0832  -24.7433  -46.7219 N.am      14 UNK        -0.5000 
     80 CA         -2.9528  -25.6688  -46.8146 C.3       14 UNK         0.1400 
     81 CB         -1.7331  -25.0550  -46.1092 C.3       14 UNK        -0.1800 
     82 C          -2.6375  -26.0459  -48.2733 C.2       14 UNK         0.5000 
     83 O          -2.0877  -25.2304  -49.0160 O.2       14 UNK        -0.5000 
     84 N          -3.0622  -27.2575  -48.6630 N.am      15 UNK        -0.5000 
     85 CA         -2.9909  -27.8490  -50.0070 C.3       15 UNK         0.1400 
     86 CB         -1.5211  -28.0902  -50.4102 C.3       15 UNK        -0.1800 
     87 C          -3.7657  -27.0633  -51.0908 C.2       15 UNK         0.5000 
     88 O          -3.5593  -27.3135  -52.2792 O.2       15 UNK        -0.5000 
     89 N          -4.6250  -26.1215  -50.6663 N.am      16 UNK        -0.5000 
     90 CA         -5.3357  -25.1273  -51.4785 C.3       16 UNK         0.1400 
     91 CB         -6.4510  -25.8035  -52.3022 C.3       16 UNK        -0.1800 
     92 C          -4.3954  -24.2614  -52.3491 C.2       16 UNK         0.5000 
     93 O          -4.7889  -23.8392  -53.4379 O.2       16 UNK        -0.5000 
     94 N          -3.1651  -24.0217  -51.8702 N.am      17 UNK        -0.5000 
     95 CA         -2.0823  -23.3752  -52.6106 C.3       17 UNK         0.1400 
     96 CB         -0.7981  -23.3646  -51.7663 C.3       17 UNK        -0.1800 
     97 C          -2.4418  -21.9695  -53.1176 C.2       17 UNK         0.5000 
     98 O          -2.4872  -21.7563  -54.3273 O.2       17 UNK        -0.5000 
     99 N          -2.7662  -21.0539  -52.1991 N.am      18 UNK        -0.5000 
    100 CA        -3.1337  -19.6728  -52.5330 C.3       18 UNK         0.1400 
    101 CB        -2.9416  -18.7750  -51.3036 C.3       18 UNK        -0.1800 
    102 C         -4.5614  -19.5371  -53.0982 C.2       18 UNK         0.5000 
    103 O         -4.9198  -18.4594  -53.5745 O.2       18 UNK        -0.5000 
    104 N         -5.3524  -20.6158  -53.0337 N.am      19 UNK        -0.5000 
    105 CA        -6.7017  -20.6788  -53.5828 C.3       19 UNK         0.1400 
    106 CB        -7.5562  -21.6311  -52.7319 C.3       19 UNK        -0.1800 
    107 C         -6.6980  -21.1079  -55.0601 C.2       19 UNK         0.5000 
    108 O         -7.3772  -20.4706  -55.8662 O.2       19 UNK        -0.5000 
    109 N         -5.9615  -22.1804  -55.3859 N.am      20 UNK        -0.5000 
    110 CA        -6.0397  -22.8603  -56.6804 C.3       20 UNK         0.1400 
    111 CB        -6.5550  -24.2912  -56.4521 C.3       20 UNK        -0.1800 
    112 C         -4.7089  -22.8977  -57.4492 C.2       20 UNK         0.5000 
    113 O         -4.7363  -22.7876  -58.6761 O.2       20 UNK        -0.5000 
    114 N         -3.5772  -23.0825  -56.7546 N.am      21 UNK        -0.5000 
    115 CA        -2.2689  -23.2730  -57.3934 C.3       21 UNK         0.1400 
    116 CB        -1.3496  -24.0996  -56.4796 C.3       21 UNK        -0.1800 
    117 C         -1.6046  -21.9397  -57.7759 C.2       21 UNK         0.5000 
    118 O         -1.0772  -21.8166  -58.8824 O.2       21 UNK        -0.5000 
    119 N         -1.6510  -20.9719  -56.8568 N.am      22 UNK        -0.5000 
    120 CA        -1.0754  -19.6257  -56.9905 C.3       22 UNK         0.1400 
    121 C         -2.0557  -18.4917  -56.5733 C.2       22 UNK         0.5000 
    122 N         -3.3239  -18.7822  -56.3115 N.am      22 UNK        -0.7600 
    123 O         -1.6704  -17.3275  -56.5108 O.2       22 UNK        -0.5000 
    124 C124        0.3176  -19.5257  -56.3105 C.3       23 UNK        -0.0398 
    125 S125        0.2949  -19.7756  -54.4978 S.3       23 UNK        -0.2404 
    126 C126        0.8119  -18.1265  -53.9189 C.3       23 UNK        -0.0205 
    127 H127        2.6763  -13.1278  -46.6412 H         1 UNK         0.0600 
    128 H128        2.3873  -14.5723  -47.6202 H         1 UNK         0.0600 
    129 H129        2.3796  -14.6789  -45.8526 H         1 UNK         0.0600 
    130 H130        0.2428  -15.7260  -46.2662 H         1 UNK         0.3000 
    131 H131       -1.9374  -15.8133  -46.0663 H         1 UNK         0.0600 
    132 H132       -3.3940  -14.4401  -47.6704 H         1 UNK         0.0800 
    133 H133       -1.9508  -13.6371  -48.2242 H         1 UNK         0.0800 
    134 H134        0.1006  -14.9149  -49.2240 H         1 UNK         0.0800 
    135 H135       -0.9243  -14.7380  -50.6277 H         1 UNK         0.0800 
    136 H136       -0.3411  -16.1072  -52.5033 H         1 UNK         0.1150 
    137 H137        1.7805  -19.7951  -51.9692 H         1 UNK         0.1150 
    138 H138        0.6828  -17.4326  -48.5656 H         1 UNK         0.1150 
    139 H139        1.9990  -20.7506  -49.8053 H         1 UNK         0.0800 
    140 H140        2.8200  -19.5174  -48.8797 H         1 UNK         0.0800 
    141 H141       -0.7549  -20.7103  -49.5858 H         1 UNK         0.0800 
    142 H142       -1.2452  -19.2765  -48.7097 H         1 UNK         0.0800 
    143 H143       -1.4855  -22.1160  -47.6257 H         1 UNK         0.0600 
    144 H144       -1.6821  -19.6815  -46.2379 H         1 UNK         0.3000 
    145 H145       -4.0464  -19.8619  -44.2182 H         1 UNK         0.0600 
    146 H146       -3.9366  -21.9937  -43.0171 H         1 UNK         0.0600 
    147 H147       -2.1927  -21.8741  -42.8492 H         1 UNK         0.0600 
    148 H148       -3.2447  -20.7347  -42.0095 H         1 UNK         0.0600 
    149 H149       -2.5220  -18.3264  -43.8867 H         1 UNK         0.3000 
    150 H150       -0.5404  -17.2200  -43.9979 H         1 UNK         0.0600 
    151 H151       -1.0830  -17.6618  -41.5984 H         1 UNK         0.0600 
    152 H152        0.4168  -16.7695  -41.7716 H         1 UNK         0.0600 
    153 H153        0.4552  -18.4942  -41.3938 H         1 UNK         0.0600 
    154 H154        1.9877  -18.6121  -43.3052 H         1 UNK         0.3000 
    155 H155        3.1816  -19.2337  -45.8180 H         1 UNK         0.0600 
    156 H156        3.9311  -16.3278  -46.4245 H         1 UNK         0.0600 
    157 H157        3.1149  -17.3986  -47.5609 H         1 UNK         0.0600 
    158 H158        4.7403  -17.7721  -47.0163 H         1 UNK         0.0600 
    159 H159        3.8769  -17.2083  -43.7766 H         1 UNK         0.3000 
    160 H160        5.9580  -19.4939  -42.1431 H         1 UNK         0.0600 
    161 H161        7.0890  -16.9944  -43.5144 H         1 UNK         0.0600 
    162 H162        7.7543  -18.6178  -43.6465 H         1 UNK         0.0600 
    163 H163        7.7686  -17.7943  -42.0958 H         1 UNK         0.0600 
    164 H164        5.4999  -16.7219  -41.6499 H         1 UNK         0.3000 
    165 H165        2.2301  -16.8927  -40.3684 H         1 UNK         0.0600 
    166 H166        3.2047  -16.1636  -38.2302 H         1 UNK         0.0600 
    167 H167        3.5147  -17.8755  -38.4606 H         1 UNK         0.0600 
    168 H168        4.8056  -16.7100  -38.7300 H         1 UNK         0.0600 
    169 H169        3.8128  -14.7348  -40.0636 H         1 UNK         0.3000 
    170 H170        4.6663  -13.1650  -41.9387 H         1 UNK         0.0600 
    171 H171        3.9880  -13.3584  -44.3278 H         1 UNK         0.0600 
    172 H172        2.3000  -13.0944  -43.8891 H         1 UNK         0.0600 
    173 H173        3.4847  -11.8090  -43.6700 H         1 UNK         0.0600 
    174 H174        1.7382  -12.9900  -41.3625 H         1 UNK         0.3000 
    175 H175        2.2636  -11.4695  -38.2890 H         1 UNK         0.0600 
    176 H176        0.8748   -9.5307  -38.9976 H         1 UNK         0.0600 
    177 H177        1.2736   -9.8338  -40.6894 H         1 UNK         0.0600 
    178 H178        2.5267   -9.3341  -39.5596 H         1 UNK         0.0600 
    179 H179       -0.0712  -11.7482  -39.9561 H         1 UNK         0.3000 
    180 H180       -0.6142  -15.1710  -39.5382 H         1 UNK         0.0600 
    181 H181       -2.7358  -14.5827  -38.3976 H         1 UNK         0.0600 
    182 H182       -2.1027  -12.9897  -37.9792 H         1 UNK         0.0600 
    183 H183       -1.3919  -14.4381  -37.2770 H         1 UNK         0.0600 
    184 H184       -2.3848  -13.1693  -40.4480 H         1 UNK         0.3000 
    185 H185       -2.8391  -13.1914  -42.7151 H         1 UNK         0.0600 
    186 H186       -2.0639  -11.1263  -43.9311 H         1 UNK         0.0600 
    187 H187       -1.7004  -10.9958  -42.2182 H         1 UNK         0.0600 
    188 H188       -0.4186  -11.3918  -43.3591 H         1 UNK         0.0600 
    189 H189       -0.5610  -14.2753  -44.1136 H         1 UNK         0.3000 
    190 H190       -4.2060  -19.9294  -47.5441 H         1 UNK         0.3000 
    191 H191       -5.4320  -20.7810  -50.0239 H         1 UNK         0.0600 
    192 H192       -7.4375  -19.6489  -49.0798 H         1 UNK         0.0600 
    193 H193       -6.0151  -18.6283  -48.9384 H         1 UNK         0.0600 
    194 H194       -6.6343  -19.4811  -47.5228 H         1 UNK         0.0600 
    195 H195       -5.1859  -22.1645  -46.8152 H         1 UNK         0.3000 
    196 H196       -7.3077  -24.1896  -47.3602 H         1 UNK         0.0600 
    197 H197       -5.8111  -23.4773  -44.7802 H         1 UNK         0.0600 
    198 H198       -7.4702  -23.0361  -45.1747 H         1 UNK         0.0600 
    199 H199       -7.0411  -24.7243  -44.9471 H         1 UNK         0.0600 
    200 H200       -3.8800  -23.8395  -46.3017 H         1 UNK         0.3000 
    201 H201       -3.2240  -26.5754  -46.2699 H         1 UNK         0.0600 
    202 H202       -1.9510  -24.8340  -45.0642 H         1 UNK         0.0600 
    203 H203       -1.4135  -24.1290  -46.5846 H         1 UNK         0.0600 
    204 H204       -0.8860  -25.7416  -46.1284 H         1 UNK         0.0600 
    205 H205       -3.5590  -27.8165  -47.9826 H         1 UNK         0.3000 
    206 H206       -3.4788  -28.8220  -49.9361 H         1 UNK         0.0600 
    207 H207       -0.9870  -28.6480  -49.6410 H         1 UNK         0.0600 
    208 H208       -1.4563  -28.6699  -51.3317 H         1 UNK         0.0600 
    209 H209       -0.9883  -27.1535  -50.5771 H         1 UNK         0.0600 
    210 H210       -4.7477  -26.0315  -49.6648 H         1 UNK         0.3000 
    211 H211       -5.8103  -24.4433  -50.7754 H         1 UNK         0.0600 
    212 H212       -7.0719  -25.0644  -52.8090 H         1 UNK         0.0600 
    213 H213       -7.1089  -26.3935  -51.6641 H         1 UNK         0.0600 
    214 H214       -6.0433  -26.4645  -53.0675 H         1 UNK         0.0600 
    215 H215       -2.9335  -24.3497  -50.9393 H         1 UNK         0.3000 
    216 H216       -1.8919  -23.9963  -53.4867 H         1 UNK         0.0600 
    217 H217       -0.9364  -22.8465  -50.8179 H         1 UNK         0.0600 
    218 H218        0.0157  -22.8685  -52.2972 H         1 UNK         0.0600 
    219 H219       -0.4704  -24.3797  -51.5412 H         1 UNK         0.0600 
    220 H220       -2.8070  -21.3403  -51.2245 H         1 UNK         0.3000 
    221 H221       -2.4525  -19.3145  -53.3075 H         1 UNK         0.0600 
    222 H222       -3.1100  -17.7275  -51.5568 H         1 UNK         0.0600 
    223 H223       -3.6309  -19.0276  -50.5003 H         1 UNK         0.0600 
    224 H224       -1.9244  -18.8483  -50.9232 H         1 UNK         0.0600 
    225 H225       -4.9603  -21.4744  -52.6762 H         1 UNK         0.3000 
    226 H226       -7.1633  -19.6905  -53.5252 H         1 UNK         0.0600 
    227 H227       -7.1383  -22.6365  -52.6994 H         1 UNK         0.0600 
    228 H228       -7.6392  -21.2713  -51.7065 H         1 UNK         0.0600 
    229 H229       -8.5684  -21.7094  -53.1305 H         1 UNK         0.0600 
    230 H230       -5.4507  -22.6711  -54.6544 H         1 UNK         0.3000 
    231 H231       -6.7587  -22.3590  -57.3316 H         1 UNK         0.0600 
    232 H232       -5.8862  -24.8626  -55.8070 H         1 UNK         0.0600 
    233 H233       -6.6443  -24.8320  -57.3952 H         1 UNK         0.0600 
    234 H234       -7.5407  -24.2844  -55.9868 H         1 UNK         0.0600 
    235 H235       -3.6000  -23.0940  -55.7432 H         1 UNK         0.3000 
    236 H236       -2.4101  -23.8497  -58.3103 H         1 UNK         0.0600 
    237 H237       -1.0276  -23.5359  -55.6052 H         1 UNK         0.0600 
    238 H238       -1.8419  -25.0094  -56.1356 H         1 UNK         0.0600 
    239 H239       -0.4478  -24.3995  -57.0145 H         1 UNK         0.0600 
    240 H240       -2.0454  -21.1906  -55.9419 H         1 UNK         0.3000 
    241 H241       -0.9145  -19.4344  -58.0527 H         1 UNK         0.0600 
    242 H242       -3.9531  -18.0503  -56.0202 H         1 UNK         0.3800 
    243 H243       -3.6568  -19.7282  -56.3936 H         1 UNK         0.3800 
    244 H244        0.7821  -18.5670  -56.5462 H         1 UNK         0.0800 
    245 H245        0.9812  -20.2778  -56.7387 H         1 UNK         0.0800 
    246 H246        0.1874  -17.3764  -54.4065 H         1 UNK         0.0800 
    247 H247        1.8361  -17.9388  -54.2435 H         1 UNK         0.0800 
@<TRIPOS>BOND
     1    1    2 1    
     2    1  127 1    
     3    1  128 1    
     4    1  129 1    
     5    2    3 2    
     6    2    4 am   BACKBONE|DICT|INTERRES
     7    4    5 1    
     8    4  130 1    
     9    5    6 1    
    10    5   65 1    
    11    5  131 1    
    12    6    7 1    
    13    6  132 1    
    14    6  133 1    
    15    7    8 1    
    16    8    9 1    
    17    8  134 1    
    18    8  135 1    
    19    9   10 ar   
    20    9   14 ar   
    21   10   11 ar   
    22   10  136 1    
    23   11   12 ar   
    24   11  126 1    
    25   12   13 ar   
    26   12  137 1    
    27   13   14 ar   
    28   13   15 1    
    29   14  138 1    
    30   15   16 1    
    31   15  139 1    
    32   15  140 1    
    33   16   17 1    
    34   17   18 1    
    35   17  141 1    
    36   17  142 1    
    37   18   19 1    
    38   18   67 1    
    39   18  143 1    
    40   19   20 am   BACKBONE|DICT|INTERRES
    41   19  144 1    
    42   20   21 2    
    43   20   22 1    
    44   22   23 1    
    45   22   24 1    
    46   22  145 1    
    47   23  146 1    
    48   23  147 1    
    49   23  148 1    
    50   24   25 am   BACKBONE|DICT|INTERRES
    51   24  149 1    
    52   25   26 2    
    53   25   27 1    
    54   27   28 1    
    55   27   29 1    
    56   27  150 1    
    57   28  151 1    
    58   28  152 1    
    59   28  153 1    
    60   29   30 am   BACKBONE|DICT|INTERRES
    61   29  154 1    
    62   30   31 2    
    63   30   32 1    
    64   32   33 1    
    65   32   34 1    
    66   32  155 1    
    67   33  156 1    
    68   33  157 1    
    69   33  158 1    
    70   34   35 am   BACKBONE|DICT|INTERRES
    71   34  159 1    
    72   35   36 2    
    73   35   37 1    
    74   37   38 1    
    75   37   39 1    
    76   37  160 1    
    77   38  161 1    
    78   38  162 1    
    79   38  163 1    
    80   39   40 am   BACKBONE|DICT|INTERRES
    81   39  164 1    
    82   40   41 2    
    83   40   42 1    
    84   42   43 1    
    85   42   44 1    
    86   42  165 1    
    87   43  166 1    
    88   43  167 1    
    89   43  168 1    
    90   44   45 am   BACKBONE|DICT|INTERRES
    91   44  169 1    
    92   45   46 2    
    93   45   47 1    
    94   47   48 1    
    95   47   49 1    
    96   47  170 1    
    97   48  171 1    
    98   48  172 1    
    99   48  173 1    
   100   49   50 am   BACKBONE|DICT|INTERRES
   101   49  174 1    
   102   50   51 2    
   103   50   52 1    
   104   52   53 1    
   105   52   54 1    
   106   52  175 1    
   107   53  176 1    
   108   53  177 1    
   109   53  178 1    
   110   54   55 am   BACKBONE|DICT|INTERRES
   111   54  179 1    
   112   55   56 2    
   113   55   57 1    
   114   57   58 1    
   115   57   59 1    
   116   57  180 1    
   117   58  181 1    
   118   58  182 1    
   119   58  183 1    
   120   59   60 am   BACKBONE|DICT|INTERRES
   121   59  184 1    
   122   60   61 2    
   123   60   62 1    
   124   62   63 1    
   125   62   64 1    
   126   62  185 1    
   127   63  186 1    
   128   63  187 1    
   129   63  188 1    
   130   64   65 am   BACKBONE|DICT|INTERRES
   131   64  189 1    
   132   65   66 2    
   133   67   68 2    
   134   67   69 am   BACKBONE|DICT|INTERRES
   135   69   70 1    
   136   69  190 1    
   137   70   71 1    
   138   70   72 1    
   139   70  191 1    
   140   71  192 1    
   141   71  193 1    
   142   71  194 1    
   143   72   73 2    
   144   72   74 am   BACKBONE|DICT|INTERRES
   145   74   75 1    
   146   74  195 1    
   147   75   76 1    
   148   75   77 1    
   149   75  196 1    
   150   76  197 1    
   151   76  198 1    
   152   76  199 1    
   153   77   78 2    
   154   77   79 am   BACKBONE|DICT|INTERRES
   155   79   80 1    
   156   79  200 1    
   157   80   81 1    
   158   80   82 1    
   159   80  201 1    
   160   81  202 1    
   161   81  203 1    
   162   81  204 1    
   163   82   83 2    
   164   82   84 am   BACKBONE|DICT|INTERRES
   165   84   85 1    
   166   84  205 1    
   167   85   86 1    
   168   85   87 1    
   169   85  206 1    
   170   86  207 1    
   171   86  208 1    
   172   86  209 1    
   173   87   88 2    
   174   87   89 am   BACKBONE|DICT|INTERRES
   175   89   90 1    
   176   89  210 1    
   177   90   91 1    
   178   90   92 1    
   179   90  211 1    
   180   91  212 1    
   181   91  213 1    
   182   91  214 1    
   183   92   93 2    
   184   92   94 am   BACKBONE|DICT|INTERRES
   185   94   95 1    
   186   94  215 1    
   187   95   96 1    
   188   95   97 1    
   189   95  216 1    
   190   96  217 1    
   191   96  218 1    
   192   96  219 1    
   193   97   98 2    
   194   97   99 am   BACKBONE|DICT|INTERRES
   195   99  100 1    
   196   99  220 1    
   197  100  101 1    
   198  100  102 1    
   199  100  221 1    
   200  101  222 1    
   201  101  223 1    
   202  101  224 1    
   203  102  103 2    
   204  102  104 am   BACKBONE|DICT|INTERRES
   205  104  105 1    
   206  104  225 1    
   207  105  106 1    
   208  105  107 1    
   209  105  226 1    
   210  106  227 1    
   211  106  228 1    
   212  106  229 1    
   213  107  108 2    
   214  107  109 am   BACKBONE|DICT|INTERRES
   215  109  110 1    
   216  109  230 1    
   217  110  111 1    
   218  110  112 1    
   219  110  231 1    
   220  111  232 1    
   221  111  233 1    
   222  111  234 1    
   223  112  113 2    
   224  112  114 am   BACKBONE|DICT|INTERRES
   225  114  115 1    
   226  114  235 1    
   227  115  116 1    
   228  115  117 1    
   229  115  236 1    
   230  116  237 1    
   231  116  238 1    
   232  116  239 1    
   233  117  118 2    
   234  117  119 am   BACKBONE|DICT|INTERRES
   235  119  120 1    
   236  119  240 1    
   237  120  121 1    
   238  120  124 1    
   239  120  241 1    
   240  121  122 am   BACKBONE|DICT|INTERRES
   241  121  123 2    
   242  122  242 1    
   243  122  243 1    
   244  124  125 1    
   245  124  244 1    
   246  124  245 1    
   247  125  126 1    
   248  126  246 1    
   249  126  247 1    
@<TRIPOS>SUBSTRUCTURE
     1 UNK         1 GROUP             0       ****    0 ROOT    
