@<TRIPOS>MOLECULE
3R540
247   249    1
SMALL
USER_CHARGES


@<TRIPOS>ATOM
      1 CA          4.8451   -8.9830  -48.8947 C.3       0 UNK        -0.1800 
      2 C           4.9424   -9.9539  -50.0699 C.2       0 UNK         0.5000 
      3 O           4.8306   -9.5271  -51.2170 O.2       0 UNK        -0.5000 
      4 N           5.1468  -11.2594  -49.8445 N.am      1 UNK        -0.5000 
      5 CA          5.2684  -11.9299  -48.5423 C.3       1 UNK         0.1400 
      6 C6          6.1242  -13.2206  -48.6364 C.3       23 UNK        -0.0398 
      7 S7          5.4821  -14.4601  -49.8163 S.3       23 UNK        -0.2404 
      8 C8          4.6299  -15.6055  -48.6854 C.3       23 UNK        -0.0205 
      9 C9          3.5679  -16.4064  -49.4174 C.ar      23 UNK        -0.0193 
     10 C10         2.4061  -15.7742  -49.8667 C.ar      23 UNK        -0.1150 
     11 C11         1.4116  -16.4977  -50.5286 C.ar      23 UNK        -0.0193 
     12 C12         1.5828  -17.8699  -50.7370 C.ar      23 UNK        -0.1150 
     13 C13         2.7456  -18.5113  -50.2979 C.ar      23 UNK        -0.0193 
     14 C14         3.7347  -17.7747  -49.6395 C.ar      23 UNK        -0.1150 
     15 C15         2.9493  -19.9978  -50.5384 C.3       23 UNK        -0.0205 
     16 S16         2.5751  -20.9680  -49.0474 S.3       23 UNK        -0.2404 
     17 C17         0.7536  -21.0139  -49.1007 C.3       23 UNK        -0.0398 
     18 CA          0.2133  -22.2068  -48.2801 C.3       11 UNK         0.1400 
     19 N           0.3316  -21.9966  -46.8346 N.am      11 UNK        -0.5000 
     20 C           0.1182  -22.9468  -45.9134 C.2       10 UNK         0.5000 
     21 O          -0.1731  -24.1125  -46.1832 O.2       10 UNK        -0.5000 
     22 CA          0.1953  -22.5128  -44.4401 C.3       10 UNK         0.1400 
     23 CB          1.6560  -22.3730  -43.9864 C.3       10 UNK        -0.1800 
     24 N          -0.5347  -21.2707  -44.1797 N.am      10 UNK        -0.5000 
     25 C          -1.8584  -21.1278  -44.3428 C.2       9 UNK         0.5000 
     26 O          -2.6037  -22.0364  -44.7042 O.2       9 UNK        -0.5000 
     27 CA         -2.4565  -19.7347  -44.0932 C.3       9 UNK         0.1400 
     28 CB         -2.6607  -19.4969  -42.5899 C.3       9 UNK        -0.1800 
     29 N          -1.6500  -18.6576  -44.6628 N.am      9 UNK        -0.5000 
     30 C          -1.4066  -18.4904  -45.9712 C.2       8 UNK         0.5000 
     31 O          -1.8548  -19.2230  -46.8547 O.2       8 UNK        -0.5000 
     32 CA         -0.4581  -17.3362  -46.3455 C.3       8 UNK         0.1400 
     33 CB         -1.1621  -15.9782  -46.1981 C.3       8 UNK        -0.1800 
     34 N           0.7634  -17.3351  -45.5417 N.am      8 UNK        -0.5000 
     35 C           1.6388  -18.3488  -45.4789 C.2       7 UNK         0.5000 
     36 O           1.5347  -19.3952  -46.1184 O.2       7 UNK        -0.5000 
     37 CA          2.7907  -18.1851  -44.4760 C.3       7 UNK         0.1400 
     38 CB          3.8931  -17.2796  -45.0490 C.3       7 UNK        -0.1800 
     39 N           2.3145  -17.6529  -43.1974 N.am      7 UNK        -0.5000 
     40 C           1.5474  -18.3396  -42.3369 C.2       6 UNK         0.5000 
     41 O           1.1877  -19.5018  -42.5198 O.2       6 UNK        -0.5000 
     42 CA          1.0695  -17.5943  -41.0769 C.3       6 UNK         0.1400 
     43 CB          2.1603  -17.6019  -39.9956 C.3       6 UNK        -0.1800 
     44 N           0.6675  -16.2151  -41.3510 N.am      6 UNK        -0.5000 
     45 C          -0.3744  -15.8659  -42.1187 C.2       5 UNK         0.5000 
     46 O          -1.1359  -16.6746  -42.6455 O.2       5 UNK        -0.5000 
     47 CA         -0.5740  -14.3619  -42.3806 C.3       5 UNK         0.1400 
     48 CB         -1.4900  -13.7463  -41.3129 C.3       5 UNK        -0.1800 
     49 N           0.6751  -13.5993  -42.4438 N.am      5 UNK        -0.5000 
     50 C           1.6787  -13.8322  -43.2992 C.2       4 UNK         0.5000 
     51 O           1.6825  -14.7548  -44.1179 O.2       4 UNK        -0.5000 
     52 CA          2.8575  -12.8469  -43.2369 C.3       4 UNK         0.1400 
     53 CB          4.2003  -13.5361  -43.5352 C.3       4 UNK        -0.1800 
     54 N           2.6299  -11.7761  -44.2015 N.am      4 UNK        -0.5000 
     55 C           1.7941  -10.7432  -44.0116 C.2       3 UNK         0.5000 
     56 O           1.2511  -10.5009  -42.9326 O.2       3 UNK        -0.5000 
     57 CA          1.4891   -9.8400  -45.2264 C.3       3 UNK         0.1400 
     58 CB          2.3916   -8.5967  -45.2130 C.3       3 UNK        -0.1800 
     59 N           1.6479  -10.5240  -46.5102 N.am      3 UNK        -0.5000 
     60 C           0.9224  -11.5706  -46.9284 C.2       2 UNK         0.5000 
     61 O          -0.0792  -11.9807  -46.3417 O.2       2 UNK        -0.5000 
     62 CA          1.4107  -12.3038  -48.1967 C.3       2 UNK         0.1400 
     63 CB          0.4749  -12.0135  -49.3799 C.3       2 UNK        -0.1800 
     64 N           2.7927  -12.0122  -48.6084 N.am      2 UNK        -0.5000 
     65 C           3.9015  -12.2075  -47.8762 C.2       1 UNK         0.5000 
     66 O           3.8781  -12.5822  -46.7058 O.2       1 UNK        -0.5000 
     67 C          -1.2242  -22.5721  -48.6933 C.2       11 UNK         0.5000 
     68 O          -1.3946  -23.4994  -49.4836 O.2       11 UNK        -0.5000 
     69 N          -2.2269  -21.8899  -48.1198 N.am      12 UNK        -0.5000 
     70 CA         -3.6411  -22.2111  -48.3098 C.3       12 UNK         0.1400 
     71 CB         -4.5168  -21.1522  -47.6220 C.3       12 UNK        -0.1800 
     72 C          -3.9896  -23.6225  -47.8036 C.2       12 UNK         0.5000 
     73 O          -4.5511  -24.4135  -48.5605 O.2       12 UNK        -0.5000 
     74 N          -3.6195  -23.9272  -46.5511 N.am      13 UNK        -0.5000 
     75 CA         -3.8748  -25.2051  -45.8815 C.3       13 UNK         0.1400 
     76 CB         -3.3951  -25.1320  -44.4246 C.3       13 UNK        -0.1800 
     77 C          -3.2463  -26.4147  -46.5937 C.2       13 UNK         0.5000 
     78 O          -3.8847  -27.4651  -46.6697 O.2       13 UNK        -0.5000 
     79 N          -2.0416  -26.2344  -47.1536 N.am      14 UNK        -0.5000 
     80 CA         -1.3231  -27.2377  -47.9458 C.3       14 UNK         0.1400 
     81 CB          0.0744  -26.7005  -48.2901 C.3       14 UNK        -0.1800 
     82 C          -2.0610  -27.6787  -49.2281 C.2       14 UNK         0.5000 
     83 O          -1.8193  -28.7864  -49.7093 O.2       14 UNK        -0.5000 
     84 N          -2.9526  -26.8226  -49.7414 N.am      15 UNK        -0.5000 
     85 CA         -3.8052  -27.0725  -50.9025 C.3       15 UNK         0.1400 
     86 CB         -3.5522  -25.9552  -51.9243 C.3       15 UNK        -0.1800 
     87 C          -5.2958  -27.1518  -50.5125 C.2       15 UNK         0.5000 
     88 O          -6.1536  -27.0606  -51.3921 O.2       15 UNK        -0.5000 
     89 N          -5.5913  -27.2872  -49.2085 N.am      16 UNK        -0.5000 
     90 CA         -6.9273  -27.3576  -48.5981 C.3       16 UNK         0.1400 
     91 CB         -7.5941  -28.7058  -48.9398 C.3       16 UNK        -0.1800 
     92 C          -7.8350  -26.1481  -48.9265 C.2       16 UNK         0.5000 
     93 O          -9.0572  -26.2915  -48.9850 O.2       16 UNK        -0.5000 
     94 N          -7.2097  -24.9855  -49.1632 N.am      17 UNK        -0.5000 
     95 CA         -7.7825  -23.7099  -49.6034 C.3       17 UNK         0.1400 
     96 CB         -8.7158  -23.1261  -48.5237 C.3       17 UNK        -0.1800 
     97 C          -8.4402  -23.7453  -51.0024 C.2       17 UNK         0.5000 
     98 O          -9.1264  -22.7891  -51.3670 O.2       17 UNK        -0.5000 
     99 N          -8.2094  -24.8140  -51.7801 N.am      18 UNK        -0.5000 
    100 CA        -8.7010  -24.9603  -53.1537 C.3       18 UNK         0.1400 
    101 CB        -8.8011  -26.4558  -53.4916 C.3       18 UNK        -0.1800 
    102 C         -7.8063  -24.2339  -54.1774 C.2       18 UNK         0.5000 
    103 O         -8.2498  -23.9656  -55.2948 O.2       18 UNK        -0.5000 
    104 N         -6.5697  -23.9291  -53.7755 N.am      19 UNK        -0.5000 
    105 CA        -5.5441  -23.2126  -54.5205 C.3       19 UNK         0.1400 
    106 CB        -4.8813  -24.1602  -55.5405 C.3       19 UNK        -0.1800 
    107 C         -4.5340  -22.6585  -53.5010 C.2       19 UNK         0.5000 
    108 O         -4.7546  -22.7916  -52.2940 O.2       19 UNK        -0.5000 
    109 N         -3.4520  -22.0423  -53.9973 N.am      20 UNK        -0.5000 
    110 CA        -2.2446  -21.5869  -53.2840 C.3       20 UNK         0.1400 
    111 CB        -1.4885  -22.7910  -52.6946 C.3       20 UNK        -0.1800 
    112 C         -2.4301  -20.4712  -52.2297 C.2       20 UNK         0.5000 
    113 O         -1.4401  -19.8489  -51.8424 O.2       20 UNK        -0.5000 
    114 N         -3.6714  -20.2089  -51.8070 N.am      21 UNK        -0.5000 
    115 CA        -4.0735  -19.0807  -50.9724 C.3       21 UNK         0.1400 
    116 CB        -5.5511  -19.2595  -50.5889 C.3       21 UNK        -0.1800 
    117 C         -3.8635  -17.7396  -51.7014 C.2       21 UNK         0.5000 
    118 O         -3.9921  -17.6766  -52.9272 O.2       21 UNK        -0.5000 
    119 N         -3.5546  -16.6917  -50.9322 N.am      22 UNK        -0.5000 
    120 CA        -3.1822  -15.3634  -51.4508 C.3       22 UNK         0.1400 
    121 C         -4.3660  -14.4997  -51.9789 C.2       22 UNK         0.5000 
    122 N         -5.6185  -14.8953  -51.7883 N.am      22 UNK        -0.7600 
    123 O         -4.1422  -13.4516  -52.5781 O.2       22 UNK        -0.5000 
    124 C124       -2.3238  -14.5585  -50.4386 C.3       23 UNK        -0.0398 
    125 S125       -0.9960  -15.5234  -49.6402 S.3       23 UNK        -0.2404 
    126 C126        0.1591  -15.7881  -51.0146 C.3       23 UNK        -0.0205 
    127 H127        5.7851   -8.9474  -48.3442 H         1 UNK         0.0600 
    128 H128        4.6322   -7.9746  -49.2504 H         1 UNK         0.0600 
    129 H129        4.0459   -9.2655  -48.2112 H         1 UNK         0.0600 
    130 H130        5.2154  -11.8797  -50.6398 H         1 UNK         0.3000 
    131 H131        5.8011  -11.2623  -47.8632 H         1 UNK         0.0600 
    132 H132        7.1324  -12.9562  -48.9580 H         1 UNK         0.0800 
    133 H133        6.2492  -13.6768  -47.6524 H         1 UNK         0.0800 
    134 H134        5.3660  -16.2633  -48.2208 H         1 UNK         0.0800 
    135 H135        4.1507  -15.0615  -47.8714 H         1 UNK         0.0800 
    136 H136        2.2776  -14.7144  -49.7039 H         1 UNK         0.1150 
    137 H137        0.8132  -18.4371  -51.2422 H         1 UNK         0.1150 
    138 H138        4.6310  -18.2716  -49.2957 H         1 UNK         0.1150 
    139 H139        2.3436  -20.3444  -51.3772 H         1 UNK         0.0800 
    140 H140        3.9874  -20.1779  -50.8214 H         1 UNK         0.0800 
    141 H141        0.4474  -21.0941  -50.1454 H         1 UNK         0.0800 
    142 H142        0.3532  -20.0672  -48.7326 H         1 UNK         0.0800 
    143 H143        0.8222  -23.0810  -48.5231 H         1 UNK         0.0600 
    144 H144        0.6054  -21.0648  -46.5331 H         1 UNK         0.3000 
    145 H145       -0.2681  -23.2995  -43.8412 H         1 UNK         0.0600 
    146 H146        1.7181  -22.1788  -42.9156 H         1 UNK         0.0600 
    147 H147        2.2157  -23.2882  -44.1829 H         1 UNK         0.0600 
    148 H148        2.1638  -21.5592  -44.5045 H         1 UNK         0.0600 
    149 H149        0.0116  -20.4857  -43.8404 H         1 UNK         0.3000 
    150 H150       -3.4353  -19.7041  -44.5762 H         1 UNK         0.0600 
    151 H151       -3.2613  -20.2916  -42.1455 H         1 UNK         0.0600 
    152 H152       -3.1809  -18.5565  -42.4074 H         1 UNK         0.0600 
    153 H153       -1.7106  -19.4633  -42.0553 H         1 UNK         0.0600 
    154 H154       -1.2713  -17.9842  -44.0015 H         1 UNK         0.3000 
    155 H155       -0.1665  -17.4659  -47.3898 H         1 UNK         0.0600 
    156 H156       -0.5133  -15.1601  -46.5127 H         1 UNK         0.0600 
    157 H157       -1.4645  -15.7869  -45.1696 H         1 UNK         0.0600 
    158 H158       -2.0617  -15.9373  -46.8129 H         1 UNK         0.0600 
    159 H159        0.9468  -16.5065  -44.9859 H         1 UNK         0.3000 
    160 H160        3.2234  -19.1715  -44.2952 H         1 UNK         0.0600 
    161 H161        3.5202  -16.2831  -45.2860 H         1 UNK         0.0600 
    162 H162        4.2981  -17.7005  -45.9703 H         1 UNK         0.0600 
    163 H163        4.7209  -17.1710  -44.3484 H         1 UNK         0.0600 
    164 H164        2.4973  -16.6761  -43.0175 H         1 UNK         0.3000 
    165 H165        0.1994  -18.1269  -40.6870 H         1 UNK         0.0600 
    166 H166        3.0494  -17.0564  -40.3143 H         1 UNK         0.0600 
    167 H167        1.8018  -17.1496  -39.0708 H         1 UNK         0.0600 
    168 H168        2.4676  -18.6216  -39.7595 H         1 UNK         0.0600 
    169 H169        1.2403  -15.4832  -40.9578 H         1 UNK         0.3000 
    170 H170       -1.0655  -14.2598  -43.3498 H         1 UNK         0.0600 
    171 H171       -2.4404  -14.2791  -41.2594 H         1 UNK         0.0600 
    172 H172       -1.0357  -13.7840  -40.3220 H         1 UNK         0.0600 
    173 H173       -1.7158  -12.7042  -41.5401 H         1 UNK         0.0600 
    174 H174        0.7352  -12.7867  -41.8457 H         1 UNK         0.3000 
    175 H175        2.9169  -12.4245  -42.2315 H         1 UNK         0.0600 
    176 H176        4.4035  -14.3220  -42.8069 H         1 UNK         0.0600 
    177 H177        5.0259  -12.8260  -43.4883 H         1 UNK         0.0600 
    178 H178        4.2143  -13.9971  -44.5229 H         1 UNK         0.0600 
    179 H179        3.0115  -11.9382  -45.1297 H         1 UNK         0.3000 
    180 H180        0.4501   -9.5147  -45.1436 H         1 UNK         0.0600 
    181 H181        3.4448   -8.8629  -45.3125 H         1 UNK         0.0600 
    182 H182        2.2796   -8.0432  -44.2797 H         1 UNK         0.0600 
    183 H183        2.1384   -7.9155  -46.0257 H         1 UNK         0.0600 
    184 H184        2.4472  -10.2596  -47.0640 H         1 UNK         0.3000 
    185 H185        1.3564  -13.3712  -47.9734 H         1 UNK         0.0600 
    186 H186        0.7399  -12.6131  -50.2505 H         1 UNK         0.0600 
    187 H187       -0.5595  -12.2514  -49.1282 H         1 UNK         0.0600 
    188 H188        0.5094  -10.9629  -49.6704 H         1 UNK         0.0600 
    189 H189        2.9143  -11.6974  -49.5603 H         1 UNK         0.3000 
    190 H190       -2.0121  -21.1157  -47.4985 H         1 UNK         0.3000 
    191 H191       -3.8479  -22.1797  -49.3821 H         1 UNK         0.0600 
    192 H192       -4.3003  -20.1533  -47.9988 H         1 UNK         0.0600 
    193 H193       -5.5751  -21.3474  -47.7989 H         1 UNK         0.0600 
    194 H194       -4.3631  -21.1354  -46.5433 H         1 UNK         0.0600 
    195 H195       -3.1618  -23.2131  -45.9870 H         1 UNK         0.3000 
    196 H196       -4.9560  -25.3568  -45.8751 H         1 UNK         0.0600 
    197 H197       -3.5779  -26.0723  -43.9029 H         1 UNK         0.0600 
    198 H198       -3.9200  -24.3497  -43.8762 H         1 UNK         0.0600 
    199 H199       -2.3262  -24.9235  -44.3648 H         1 UNK         0.0600 
    200 H200       -1.5661  -25.3487  -47.0087 H         1 UNK         0.3000 
    201 H201       -1.2027  -28.1249  -47.3212 H         1 UNK         0.0600 
    202 H202        0.6477  -26.4860  -47.3881 H         1 UNK         0.0600 
    203 H203        0.0179  -25.7834  -48.8772 H         1 UNK         0.0600 
    204 H204        0.6436  -27.4282  -48.8700 H         1 UNK         0.0600 
    205 H205       -3.0962  -25.9333  -49.2760 H         1 UNK         0.3000 
    206 H206       -3.5543  -28.0257  -51.3710 H         1 UNK         0.0600 
    207 H207       -2.5120  -25.9453  -52.2497 H         1 UNK         0.0600 
    208 H208       -4.1711  -26.0729  -52.8142 H         1 UNK         0.0600 
    209 H209       -3.7732  -24.9828  -51.4872 H         1 UNK         0.0600 
    210 H210       -4.8197  -27.3382  -48.5530 H         1 UNK         0.3000 
    211 H211       -6.7686  -27.3298  -47.5192 H         1 UNK         0.0600 
    212 H212       -7.8326  -28.7799  -50.0014 H         1 UNK         0.0600 
    213 H213       -8.5237  -28.8373  -48.3849 H         1 UNK         0.0600 
    214 H214       -6.9446  -29.5426  -48.6827 H         1 UNK         0.0600 
    215 H215       -6.1960  -24.9713  -49.0566 H         1 UNK         0.3000 
    216 H216       -6.9340  -23.0306  -49.7001 H         1 UNK         0.0600 
    217 H217       -8.2185  -23.0851  -47.5546 H         1 UNK         0.0600 
    218 H218       -9.6249  -23.7172  -48.4112 H         1 UNK         0.0600 
    219 H219       -9.0174  -22.1085  -48.7740 H         1 UNK         0.0600 
    220 H220       -7.6197  -25.5624  -51.4309 H         1 UNK         0.3000 
    221 H221       -9.7027  -24.5308  -53.2226 H         1 UNK         0.0600 
    222 H222       -7.8216  -26.9351  -53.4942 H         1 UNK         0.0600 
    223 H223       -9.4305  -26.9821  -52.7737 H         1 UNK         0.0600 
    224 H224       -9.2394  -26.6034  -54.4793 H         1 UNK         0.0600 
    225 H225       -6.3076  -24.1251  -52.8172 H         1 UNK         0.3000 
    226 H226       -6.0010  -22.3679  -55.0397 H         1 UNK         0.0600 
    227 H227       -5.6166  -24.5866  -56.2230 H         1 UNK         0.0600 
    228 H228       -4.1470  -23.6372  -56.1535 H         1 UNK         0.0600 
    229 H229       -4.3693  -24.9864  -55.0460 H         1 UNK         0.0600 
    230 H230       -3.4037  -21.9322  -55.0005 H         1 UNK         0.3000 
    231 H231       -1.6034  -21.1510  -54.0516 H         1 UNK         0.0600 
    232 H232       -0.5655  -22.4797  -52.2039 H         1 UNK         0.0600 
    233 H233       -1.2193  -23.5069  -53.4708 H         1 UNK         0.0600 
    234 H234       -2.0908  -23.3144  -51.9541 H         1 UNK         0.0600 
    235 H235       -4.4050  -20.8284  -52.1264 H         1 UNK         0.3000 
    236 H236       -3.4616  -19.0963  -50.0679 H         1 UNK         0.0600 
    237 H237       -5.8669  -18.4930  -49.8803 H         1 UNK         0.0600 
    238 H238       -6.2029  -19.1911  -51.4610 H         1 UNK         0.0600 
    239 H239       -5.7274  -20.2283  -50.1219 H         1 UNK         0.0600 
    240 H240       -3.4694  -16.8130  -49.9337 H         1 UNK         0.3000 
    241 H241       -2.5512  -15.5353  -52.3247 H         1 UNK         0.0600 
    242 H242       -5.8149  -15.7574  -51.3062 H         1 UNK         0.3800 
    243 H243       -6.3771  -14.3309  -52.1379 H         1 UNK         0.3800 
    244 H244       -1.8764  -13.6896  -50.9245 H         1 UNK         0.0800 
    245 H245       -2.9562  -14.1649  -49.6410 H         1 UNK         0.0800 
    246 H246        0.4266  -14.8305  -51.4632 H         1 UNK         0.0800 
    247 H247       -0.3297  -16.3755  -51.7933 H         1 UNK         0.0800 
@<TRIPOS>BOND
     1    1    2 1    
     2    1  127 1    
     3    1  128 1    
     4    1  129 1    
     5    2    3 2    
     6    2    4 am   BACKBONE|DICT|INTERRES
     7    4    5 1    
     8    4  130 1    
     9    5    6 1    
    10    5   65 1    
    11    5  131 1    
    12    6    7 1    
    13    6  132 1    
    14    6  133 1    
    15    7    8 1    
    16    8    9 1    
    17    8  134 1    
    18    8  135 1    
    19    9   10 ar   
    20    9   14 ar   
    21   10   11 ar   
    22   10  136 1    
    23   11   12 ar   
    24   11  126 1    
    25   12   13 ar   
    26   12  137 1    
    27   13   14 ar   
    28   13   15 1    
    29   14  138 1    
    30   15   16 1    
    31   15  139 1    
    32   15  140 1    
    33   16   17 1    
    34   17   18 1    
    35   17  141 1    
    36   17  142 1    
    37   18   19 1    
    38   18   67 1    
    39   18  143 1    
    40   19   20 am   BACKBONE|DICT|INTERRES
    41   19  144 1    
    42   20   21 2    
    43   20   22 1    
    44   22   23 1    
    45   22   24 1    
    46   22  145 1    
    47   23  146 1    
    48   23  147 1    
    49   23  148 1    
    50   24   25 am   BACKBONE|DICT|INTERRES
    51   24  149 1    
    52   25   26 2    
    53   25   27 1    
    54   27   28 1    
    55   27   29 1    
    56   27  150 1    
    57   28  151 1    
    58   28  152 1    
    59   28  153 1    
    60   29   30 am   BACKBONE|DICT|INTERRES
    61   29  154 1    
    62   30   31 2    
    63   30   32 1    
    64   32   33 1    
    65   32   34 1    
    66   32  155 1    
    67   33  156 1    
    68   33  157 1    
    69   33  158 1    
    70   34   35 am   BACKBONE|DICT|INTERRES
    71   34  159 1    
    72   35   36 2    
    73   35   37 1    
    74   37   38 1    
    75   37   39 1    
    76   37  160 1    
    77   38  161 1    
    78   38  162 1    
    79   38  163 1    
    80   39   40 am   BACKBONE|DICT|INTERRES
    81   39  164 1    
    82   40   41 2    
    83   40   42 1    
    84   42   43 1    
    85   42   44 1    
    86   42  165 1    
    87   43  166 1    
    88   43  167 1    
    89   43  168 1    
    90   44   45 am   BACKBONE|DICT|INTERRES
    91   44  169 1    
    92   45   46 2    
    93   45   47 1    
    94   47   48 1    
    95   47   49 1    
    96   47  170 1    
    97   48  171 1    
    98   48  172 1    
    99   48  173 1    
   100   49   50 am   BACKBONE|DICT|INTERRES
   101   49  174 1    
   102   50   51 2    
   103   50   52 1    
   104   52   53 1    
   105   52   54 1    
   106   52  175 1    
   107   53  176 1    
   108   53  177 1    
   109   53  178 1    
   110   54   55 am   BACKBONE|DICT|INTERRES
   111   54  179 1    
   112   55   56 2    
   113   55   57 1    
   114   57   58 1    
   115   57   59 1    
   116   57  180 1    
   117   58  181 1    
   118   58  182 1    
   119   58  183 1    
   120   59   60 am   BACKBONE|DICT|INTERRES
   121   59  184 1    
   122   60   61 2    
   123   60   62 1    
   124   62   63 1    
   125   62   64 1    
   126   62  185 1    
   127   63  186 1    
   128   63  187 1    
   129   63  188 1    
   130   64   65 am   BACKBONE|DICT|INTERRES
   131   64  189 1    
   132   65   66 2    
   133   67   68 2    
   134   67   69 am   BACKBONE|DICT|INTERRES
   135   69   70 1    
   136   69  190 1    
   137   70   71 1    
   138   70   72 1    
   139   70  191 1    
   140   71  192 1    
   141   71  193 1    
   142   71  194 1    
   143   72   73 2    
   144   72   74 am   BACKBONE|DICT|INTERRES
   145   74   75 1    
   146   74  195 1    
   147   75   76 1    
   148   75   77 1    
   149   75  196 1    
   150   76  197 1    
   151   76  198 1    
   152   76  199 1    
   153   77   78 2    
   154   77   79 am   BACKBONE|DICT|INTERRES
   155   79   80 1    
   156   79  200 1    
   157   80   81 1    
   158   80   82 1    
   159   80  201 1    
   160   81  202 1    
   161   81  203 1    
   162   81  204 1    
   163   82   83 2    
   164   82   84 am   BACKBONE|DICT|INTERRES
   165   84   85 1    
   166   84  205 1    
   167   85   86 1    
   168   85   87 1    
   169   85  206 1    
   170   86  207 1    
   171   86  208 1    
   172   86  209 1    
   173   87   88 2    
   174   87   89 am   BACKBONE|DICT|INTERRES
   175   89   90 1    
   176   89  210 1    
   177   90   91 1    
   178   90   92 1    
   179   90  211 1    
   180   91  212 1    
   181   91  213 1    
   182   91  214 1    
   183   92   93 2    
   184   92   94 am   BACKBONE|DICT|INTERRES
   185   94   95 1    
   186   94  215 1    
   187   95   96 1    
   188   95   97 1    
   189   95  216 1    
   190   96  217 1    
   191   96  218 1    
   192   96  219 1    
   193   97   98 2    
   194   97   99 am   BACKBONE|DICT|INTERRES
   195   99  100 1    
   196   99  220 1    
   197  100  101 1    
   198  100  102 1    
   199  100  221 1    
   200  101  222 1    
   201  101  223 1    
   202  101  224 1    
   203  102  103 2    
   204  102  104 am   BACKBONE|DICT|INTERRES
   205  104  105 1    
   206  104  225 1    
   207  105  106 1    
   208  105  107 1    
   209  105  226 1    
   210  106  227 1    
   211  106  228 1    
   212  106  229 1    
   213  107  108 2    
   214  107  109 am   BACKBONE|DICT|INTERRES
   215  109  110 1    
   216  109  230 1    
   217  110  111 1    
   218  110  112 1    
   219  110  231 1    
   220  111  232 1    
   221  111  233 1    
   222  111  234 1    
   223  112  113 2    
   224  112  114 am   BACKBONE|DICT|INTERRES
   225  114  115 1    
   226  114  235 1    
   227  115  116 1    
   228  115  117 1    
   229  115  236 1    
   230  116  237 1    
   231  116  238 1    
   232  116  239 1    
   233  117  118 2    
   234  117  119 am   BACKBONE|DICT|INTERRES
   235  119  120 1    
   236  119  240 1    
   237  120  121 1    
   238  120  124 1    
   239  120  241 1    
   240  121  122 am   BACKBONE|DICT|INTERRES
   241  121  123 2    
   242  122  242 1    
   243  122  243 1    
   244  124  125 1    
   245  124  244 1    
   246  124  245 1    
   247  125  126 1    
   248  126  246 1    
   249  126  247 1    
@<TRIPOS>SUBSTRUCTURE
     1 UNK         1 GROUP             0       ****    0 ROOT    
