@<TRIPOS>MOLECULE
3R540
247   249    1
SMALL
USER_CHARGES


@<TRIPOS>ATOM
      1 CA          1.6302  -11.5365  -51.4519 C.3       0 UNK        -0.1800 
      2 C           1.3538  -11.9380  -50.0099 C.2       0 UNK         0.5000 
      3 O           0.9545  -11.0960  -49.2053 O.2       0 UNK        -0.5000 
      4 N           1.5701  -13.2170  -49.6793 N.am      1 UNK        -0.5000 
      5 CA          1.3215  -13.7971  -48.3544 C.3       1 UNK         0.1400 
      6 C6          2.1751  -15.0642  -48.0980 C.3       23 UNK        -0.0398 
      7 S7          2.0659  -16.3382  -49.4021 S.3       23 UNK        -0.2404 
      8 C8          1.0870  -17.6159  -48.5582 C.3       23 UNK        -0.0205 
      9 C9          0.7790  -18.7705  -49.4887 C.ar      23 UNK        -0.0193 
     10 C10        -0.2276  -18.6369  -50.4421 C.ar      23 UNK        -0.1150 
     11 C11        -0.4727  -19.6548  -51.3655 C.ar      23 UNK        -0.0193 
     12 C12         0.2291  -20.8605  -51.2548 C.ar      23 UNK        -0.1150 
     13 C13         1.1918  -21.0367  -50.2532 C.ar      23 UNK        -0.0193 
     14 C14         1.4916  -19.9666  -49.4020 C.ar      23 UNK        -0.1150 
     15 C15         1.8904  -22.3881  -50.1022 C.3       23 UNK        -0.0205 
     16 S16         2.2130  -22.8826  -48.3685 S.3       23 UNK        -0.2404 
     17 C17         0.5855  -22.5997  -47.5917 C.3       23 UNK        -0.0398 
     18 CA          0.2609  -23.6149  -46.4751 C.3       11 UNK         0.1400 
     19 N           1.2026  -23.5617  -45.3535 N.am      11 UNK        -0.5000 
     20 C           1.2592  -24.4861  -44.3818 C.2       10 UNK         0.5000 
     21 O           0.5413  -25.4845  -44.3573 O.2       10 UNK        -0.5000 
     22 CA          2.2367  -24.2441  -43.2145 C.3       10 UNK         0.1400 
     23 CB          3.5918  -24.9044  -43.5070 C.3       10 UNK        -0.1800 
     24 N           2.4496  -22.8298  -42.9108 N.am      10 UNK        -0.5000 
     25 C           1.4923  -21.9499  -42.5862 C.2       9 UNK         0.5000 
     26 O           0.3121  -22.2603  -42.4148 O.2       9 UNK        -0.5000 
     27 CA          1.9132  -20.4688  -42.4935 C.3       9 UNK         0.1400 
     28 CB          2.1181  -20.0613  -41.0275 C.3       9 UNK        -0.1800 
     29 N           3.1149  -20.1105  -43.2611 N.am      9 UNK        -0.5000 
     30 C           3.3089  -20.3007  -44.5761 C.2       8 UNK         0.5000 
     31 O           2.5055  -20.8827  -45.3077 O.2       8 UNK        -0.5000 
     32 CA          4.6338  -19.7443  -45.1439 C.3       8 UNK         0.1400 
     33 CB          4.7504  -19.9081  -46.6747 C.3       8 UNK        -0.1800 
     34 N           4.8743  -18.3494  -44.7432 N.am      8 UNK        -0.5000 
     35 C           4.0807  -17.3062  -45.0224 C.2       7 UNK         0.5000 
     36 O           3.0516  -17.3876  -45.6976 O.2       7 UNK        -0.5000 
     37 CA          4.4941  -15.9363  -44.4604 C.3       7 UNK         0.1400 
     38 CB          5.5359  -15.2568  -45.3625 C.3       7 UNK        -0.1800 
     39 N           3.2813  -15.1333  -44.4351 N.am      7 UNK        -0.5000 
     40 C           2.8170  -14.4097  -43.4147 C.2       6 UNK         0.5000 
     41 O           3.4895  -14.0846  -42.4357 O.2       6 UNK        -0.5000 
     42 CA          1.3233  -14.0229  -43.4913 C.3       6 UNK         0.1400 
     43 CB          1.1619  -12.6059  -44.0619 C.3       6 UNK        -0.1800 
     44 N           0.5142  -14.9506  -44.2940 N.am      6 UNK        -0.5000 
     45 C           0.3421  -16.2563  -44.0377 C.2       5 UNK         0.5000 
     46 O           0.8056  -16.8319  -43.0513 O.2       5 UNK        -0.5000 
     47 CA         -0.4997  -17.0215  -45.0746 C.3       5 UNK         0.1400 
     48 CB         -0.3906  -18.5514  -44.9544 C.3       5 UNK        -0.1800 
     49 N          -1.8981  -16.5942  -45.0711 N.am      5 UNK        -0.5000 
     50 C          -2.7576  -16.6010  -44.0391 C.2       4 UNK         0.5000 
     51 O          -2.4908  -17.0278  -42.9157 O.2       4 UNK        -0.5000 
     52 CA         -4.1622  -16.0191  -44.2966 C.3       4 UNK         0.1400 
     53 CB         -4.2548  -14.5887  -43.7422 C.3       4 UNK        -0.1800 
     54 N          -4.5246  -15.9953  -45.7131 N.am      4 UNK        -0.5000 
     55 C          -4.8217  -17.0760  -46.4477 C.2       3 UNK         0.5000 
     56 O          -4.9175  -18.2126  -45.9851 O.2       3 UNK        -0.5000 
     57 CA         -5.0284  -16.8435  -47.9572 C.3       3 UNK         0.1400 
     58 CB         -6.5265  -16.7385  -48.2810 C.3       3 UNK        -0.1800 
     59 N          -4.3360  -15.6534  -48.4692 N.am      3 UNK        -0.5000 
     60 C          -3.0029  -15.5177  -48.5285 C.2       2 UNK         0.5000 
     61 O          -2.2272  -16.3963  -48.1521 O.2       2 UNK        -0.5000 
     62 CA         -2.4743  -14.1892  -49.1122 C.3       2 UNK         0.1400 
     63 CB         -3.1017  -12.9637  -48.4135 C.3       2 UNK        -0.1800 
     64 N          -1.0111  -14.0712  -49.1192 N.am      2 UNK        -0.5000 
     65 C          -0.1787  -14.0316  -48.0642 C.2       1 UNK         0.5000 
     66 O          -0.5391  -14.1420  -46.8895 O.2       1 UNK        -0.5000 
     67 C          -1.1931  -23.4245  -46.0053 C.2       11 UNK         0.5000 
     68 O          -2.0789  -24.1031  -46.5211 O.2       11 UNK        -0.5000 
     69 N          -1.4265  -22.5339  -45.0302 N.am      12 UNK        -0.5000 
     70 CA         -2.7502  -22.3235  -44.4391 C.3       12 UNK         0.1400 
     71 CB         -2.7873  -21.0056  -43.6531 C.3       12 UNK        -0.1800 
     72 C          -3.1837  -23.5105  -43.5634 C.2       12 UNK         0.5000 
     73 O          -4.3519  -23.8955  -43.6078 O.2       12 UNK        -0.5000 
     74 N          -2.2290  -24.1032  -42.8315 N.am      13 UNK        -0.5000 
     75 CA         -2.4308  -25.3157  -42.0337 C.3       13 UNK         0.1400 
     76 CB         -1.1877  -25.5725  -41.1688 C.3       13 UNK        -0.1800 
     77 C          -2.7658  -26.5492  -42.8971 C.2       13 UNK         0.5000 
     78 O          -3.6323  -27.3391  -42.5211 O.2       13 UNK        -0.5000 
     79 N          -2.0974  -26.6723  -44.0519 N.am      14 UNK        -0.5000 
     80 CA         -2.3228  -27.7213  -45.0493 C.3       14 UNK         0.1400 
     81 CB         -1.0784  -27.8167  -45.9471 C.3       14 UNK        -0.1800 
     82 C          -3.5790  -27.4984  -45.9169 C.2       14 UNK         0.5000 
     83 O          -3.9765  -28.4176  -46.6337 O.2       14 UNK        -0.5000 
     84 N          -4.1541  -26.2866  -45.8672 N.am      15 UNK        -0.5000 
     85 CA         -5.2425  -25.7778  -46.7122 C.3       15 UNK         0.1400 
     86 CB         -6.5504  -26.5617  -46.4775 C.3       15 UNK        -0.1800 
     87 C          -4.8449  -25.6831  -48.2036 C.2       15 UNK         0.5000 
     88 O          -5.6845  -25.8540  -49.0888 O.2       15 UNK        -0.5000 
     89 N          -3.5606  -25.3960  -48.4449 N.am      16 UNK        -0.5000 
     90 CA         -2.9444  -25.2014  -49.7549 C.3       16 UNK         0.1400 
     91 CB         -1.5222  -25.7834  -49.7112 C.3       16 UNK        -0.1800 
     92 C          -2.8974  -23.7157  -50.1587 C.2       16 UNK         0.5000 
     93 O          -2.6018  -23.4182  -51.3169 O.2       16 UNK        -0.5000 
     94 N          -3.1893  -22.8039  -49.2180 N.am      17 UNK        -0.5000 
     95 CA         -3.2030  -21.3488  -49.3970 C.3       17 UNK         0.1400 
     96 CB         -3.0708  -20.6672  -48.0227 C.3       17 UNK        -0.1800 
     97 C          -4.4203  -20.8423  -50.2059 C.2       17 UNK         0.5000 
     98 O          -5.1312  -19.9368  -49.7679 O.2       17 UNK        -0.5000 
     99 N          -4.6417  -21.4338  -51.3850 N.am      18 UNK        -0.5000 
    100 CA        -5.6618  -21.0566  -52.3600 C.3       18 UNK         0.1400 
    101 CB        -5.9455  -22.2649  -53.2691 C.3       18 UNK        -0.1800 
    102 C         -5.1853  -19.8251  -53.1499 C.2       18 UNK         0.5000 
    103 O         -4.6683  -19.9579  -54.2612 O.2       18 UNK        -0.5000 
    104 N         -5.3000  -18.6482  -52.5238 N.am      19 UNK        -0.5000 
    105 CA        -4.7559  -17.3719  -52.9865 C.3       19 UNK         0.1400 
    106 CB        -4.6256  -16.4217  -51.7866 C.3       19 UNK        -0.1800 
    107 C         -5.5170  -16.7460  -54.1712 C.2       19 UNK         0.5000 
    108 O         -5.9903  -15.6127  -54.0792 O.2       19 UNK        -0.5000 
    109 N         -5.5788  -17.4836  -55.2851 N.am      20 UNK        -0.5000 
    110 CA        -6.0374  -16.9921  -56.5848 C.3       20 UNK         0.1400 
    111 CB        -6.2827  -18.1866  -57.5190 C.3       20 UNK        -0.1800 
    112 C         -5.0309  -16.0058  -57.2110 C.2       20 UNK         0.5000 
    113 O         -5.4459  -15.0492  -57.8662 O.2       20 UNK        -0.5000 
    114 N         -3.7336  -16.2512  -56.9772 N.am      21 UNK        -0.5000 
    115 CA        -2.6177  -15.4195  -57.4360 C.3       21 UNK         0.1400 
    116 CB        -1.9179  -16.1343  -58.6050 C.3       21 UNK        -0.1800 
    117 C         -1.6156  -15.0938  -56.3091 C.2       21 UNK         0.5000 
    118 O         -0.6735  -14.3383  -56.5508 O.2       21 UNK        -0.5000 
    119 N         -1.8151  -15.6570  -55.1082 N.am      22 UNK        -0.5000 
    120 CA        -0.9102  -15.5098  -53.9504 C.3       22 UNK         0.1400 
    121 C         -1.1031  -14.1983  -53.1274 C.2       22 UNK         0.5000 
    122 N         -1.9826  -13.2853  -53.5180 N.am      22 UNK        -0.7600 
    123 O         -0.4590  -14.0162  -52.0973 O.2       22 UNK        -0.5000 
    124 C124       -0.9361  -16.7361  -53.0002 C.3       23 UNK        -0.0398 
    125 S125       -0.8993  -18.3770  -53.8058 S.3       23 UNK        -0.2404 
    126 C126       -1.5108  -19.4533  -52.4605 C.3       23 UNK        -0.0205 
    127 H127        2.3655  -10.7327  -51.4861 H         1 UNK         0.0600 
    128 H128        0.7129  -11.1844  -51.9238 H         1 UNK         0.0600 
    129 H129        2.0114  -12.3732  -52.0381 H         1 UNK         0.0600 
    130 H130        1.8684  -13.8720  -50.3892 H         1 UNK         0.3000 
    131 H131        1.6445  -13.0595  -47.6165 H         1 UNK         0.0600 
    132 H132        3.2238  -14.7750  -48.0225 H         1 UNK         0.0800 
    133 H133        1.9285  -15.5026  -47.1313 H         1 UNK         0.0800 
    134 H134        1.6160  -17.9745  -47.6763 H         1 UNK         0.0800 
    135 H135        0.1527  -17.1806  -48.2136 H         1 UNK         0.0800 
    136 H136       -0.7948  -17.7188  -50.4753 H         1 UNK         0.1150 
    137 H137        0.0129  -21.6686  -51.9398 H         1 UNK         0.1150 
    138 H138        2.2583  -20.0739  -48.6486 H         1 UNK         0.1150 
    139 H139        1.2927  -23.1717  -50.5708 H         1 UNK         0.0800 
    140 H140        2.8377  -22.3554  -50.6413 H         1 UNK         0.0800 
    141 H141       -0.1774  -22.6463  -48.3717 H         1 UNK         0.0800 
    142 H142        0.5634  -21.5807  -47.2008 H         1 UNK         0.0800 
    143 H143        0.3263  -24.6154  -46.9079 H         1 UNK         0.0600 
    144 H144        1.8027  -22.7430  -45.3083 H         1 UNK         0.3000 
    145 H145        1.8115  -24.7113  -42.3246 H         1 UNK         0.0600 
    146 H146        4.2671  -24.8152  -42.6559 H         1 UNK         0.0600 
    147 H147        3.4705  -25.9687  -43.7138 H         1 UNK         0.0600 
    148 H148        4.0793  -24.4550  -44.3731 H         1 UNK         0.0600 
    149 H149        3.3868  -22.4784  -43.0364 H         1 UNK         0.3000 
    150 H150        1.0877  -19.8792  -42.8907 H         1 UNK         0.0600 
    151 H151        2.9651  -20.5822  -40.5794 H         1 UNK         0.0600 
    152 H152        1.2353  -20.2928  -40.4298 H         1 UNK         0.0600 
    153 H153        2.2944  -18.9890  -40.9387 H         1 UNK         0.0600 
    154 H154        3.8309  -19.6176  -42.7482 H         1 UNK         0.3000 
    155 H155        5.4295  -20.3389  -44.6930 H         1 UNK         0.0600 
    156 H156        3.9773  -19.3516  -47.2041 H         1 UNK         0.0600 
    157 H157        4.6529  -20.9549  -46.9653 H         1 UNK         0.0600 
    158 H158        5.7179  -19.5596  -47.0352 H         1 UNK         0.0600 
    159 H159        5.7028  -18.1905  -44.1866 H         1 UNK         0.3000 
    160 H160        4.8928  -16.0673  -43.4523 H         1 UNK         0.0600 
    161 H161        5.1764  -15.1539  -46.3871 H         1 UNK         0.0600 
    162 H162        6.4609  -15.8334  -45.3945 H         1 UNK         0.0600 
    163 H163        5.7846  -14.2615  -44.9938 H         1 UNK         0.0600 
    164 H164        2.6120  -15.4247  -45.1348 H         1 UNK         0.3000 
    165 H165        0.9284  -14.0338  -42.4735 H         1 UNK         0.0600 
    166 H166        0.1173  -12.2941  -44.0544 H         1 UNK         0.0600 
    167 H167        1.7223  -11.8800  -43.4713 H         1 UNK         0.0600 
    168 H168        1.5225  -12.5431  -45.0892 H         1 UNK         0.0600 
    169 H169        0.0704  -14.5646  -45.1245 H         1 UNK         0.3000 
    170 H170       -0.1020  -16.7469  -46.0490 H         1 UNK         0.0600 
    171 H171        0.6451  -18.8698  -45.0699 H         1 UNK         0.0600 
    172 H172       -0.7412  -18.9032  -43.9850 H         1 UNK         0.0600 
    173 H173       -0.9704  -19.0510  -45.7306 H         1 UNK         0.0600 
    174 H174       -2.2257  -16.2361  -45.9601 H         1 UNK         0.3000 
    175 H175       -4.8833  -16.6435  -43.7648 H         1 UNK         0.0600 
    176 H176       -4.0214  -14.5668  -42.6769 H         1 UNK         0.0600 
    177 H177       -3.5573  -13.9168  -44.2444 H         1 UNK         0.0600 
    178 H178       -5.2594  -14.1826  -43.8616 H         1 UNK         0.0600 
    179 H179       -4.4822  -15.1005  -46.1775 H         1 UNK         0.3000 
    180 H180       -4.6245  -17.7132  -48.4771 H         1 UNK         0.0600 
    181 H181       -6.9804  -15.8649  -47.8116 H         1 UNK         0.0600 
    182 H182       -7.0632  -17.6192  -47.9254 H         1 UNK         0.0600 
    183 H183       -6.6987  -16.6727  -49.3544 H         1 UNK         0.0600 
    184 H184       -4.9233  -14.9012  -48.7988 H         1 UNK         0.3000 
    185 H185       -2.7756  -14.1709  -50.1604 H         1 UNK         0.0600 
    186 H186       -4.1786  -12.9162  -48.5758 H         1 UNK         0.0600 
    187 H187       -2.9331  -12.9795  -47.3361 H         1 UNK         0.0600 
    188 H188       -2.6822  -12.0350  -48.8011 H         1 UNK         0.0600 
    189 H189       -0.5972  -13.9988  -50.0437 H         1 UNK         0.3000 
    190 H190       -0.6489  -22.0515  -44.6016 H         1 UNK         0.3000 
    191 H191       -3.4780  -22.2402  -45.2492 H         1 UNK         0.0600 
    192 H192       -2.7064  -20.1523  -44.3253 H         1 UNK         0.0600 
    193 H193       -3.7311  -20.8950  -43.1178 H         1 UNK         0.0600 
    194 H194       -1.9845  -20.9425  -42.9185 H         1 UNK         0.0600 
    195 H195       -1.3006  -23.6974  -42.8284 H         1 UNK         0.3000 
    196 H196       -3.2765  -25.1372  -41.3663 H         1 UNK         0.0600 
    197 H197       -1.3450  -26.4247  -40.5065 H         1 UNK         0.0600 
    198 H198       -0.9561  -24.7108  -40.5424 H         1 UNK         0.0600 
    199 H199       -0.3105  -25.7904  -41.7774 H         1 UNK         0.0600 
    200 H200       -1.3379  -26.0261  -44.2458 H         1 UNK         0.3000 
    201 H201       -2.4458  -28.6748  -44.5318 H         1 UNK         0.0600 
    202 H202       -1.1847  -28.6117  -46.6862 H         1 UNK         0.0600 
    203 H203       -0.1854  -28.0365  -45.3618 H         1 UNK         0.0600 
    204 H204       -0.9034  -26.8862  -46.4889 H         1 UNK         0.0600 
    205 H205       -3.7372  -25.6057  -45.2469 H         1 UNK         0.3000 
    206 H206       -5.4158  -24.7518  -46.3846 H         1 UNK         0.0600 
    207 H207       -6.7947  -26.6105  -45.4164 H         1 UNK         0.0600 
    208 H208       -7.3891  -26.0796  -46.9808 H         1 UNK         0.0600 
    209 H209       -6.4881  -27.5822  -46.8558 H         1 UNK         0.0600 
    210 H210       -2.9638  -25.1960  -47.6445 H         1 UNK         0.3000 
    211 H211       -3.5150  -25.7369  -50.5163 H         1 UNK         0.0600 
    212 H212       -0.8964  -25.2644  -48.9847 H         1 UNK         0.0600 
    213 H213       -1.0342  -25.7000  -50.6832 H         1 UNK         0.0600 
    214 H214       -1.5374  -26.8405  -49.4447 H         1 UNK         0.0600 
    215 H215       -3.4201  -23.1438  -48.2956 H         1 UNK         0.3000 
    216 H216       -2.3178  -21.0804  -49.9710 H         1 UNK         0.0600 
    217 H217       -3.0082  -19.5831  -48.1272 H         1 UNK         0.0600 
    218 H218       -2.1651  -20.9851  -47.5079 H         1 UNK         0.0600 
    219 H219       -3.9226  -20.8867  -47.3782 H         1 UNK         0.0600 
    220 H220       -3.9897  -22.1606  -51.6669 H         1 UNK         0.3000 
    221 H221       -6.5869  -20.7983  -51.8403 H         1 UNK         0.0600 
    222 H222       -5.0470  -22.6018  -53.7881 H         1 UNK         0.0600 
    223 H223       -6.3326  -23.1061  -52.6938 H         1 UNK         0.0600 
    224 H224       -6.6906  -22.0174  -54.0261 H         1 UNK         0.0600 
    225 H225       -5.7032  -18.6508  -51.5955 H         1 UNK         0.3000 
    226 H226       -3.7494  -17.5624  -53.3563 H         1 UNK         0.0600 
    227 H227       -4.1360  -15.4896  -52.0722 H         1 UNK         0.0600 
    228 H228       -5.5997  -16.1669  -51.3698 H         1 UNK         0.0600 
    229 H229       -4.0263  -16.8768  -50.9987 H         1 UNK         0.0600 
    230 H230       -5.2109  -18.4311  -55.2445 H         1 UNK         0.3000 
    231 H231       -6.9838  -16.4655  -56.4443 H         1 UNK         0.0600 
    232 H232       -5.3723  -18.7644  -57.6836 H         1 UNK         0.0600 
    233 H233       -6.6415  -17.8527  -58.4934 H         1 UNK         0.0600 
    234 H234       -7.0362  -18.8589  -57.1082 H         1 UNK         0.0600 
    235 H235       -3.4909  -17.0948  -56.4794 H         1 UNK         0.3000 
    236 H236       -2.9891  -14.4580  -57.7960 H         1 UNK         0.0600 
    237 H237       -2.6102  -16.3116  -59.4282 H         1 UNK         0.0600 
    238 H238       -1.0953  -15.5356  -58.9983 H         1 UNK         0.0600 
    239 H239       -1.5076  -17.0972  -58.2985 H         1 UNK         0.0600 
    240 H240       -2.6212  -16.2422  -54.9729 H         1 UNK         0.3000 
    241 H241        0.1064  -15.4507  -54.3438 H         1 UNK         0.0600 
    242 H242       -2.0950  -12.4442  -52.9757 H         1 UNK         0.3800 
    243 H243       -2.5171  -13.4127  -54.3614 H         1 UNK         0.3800 
    244 H244       -0.0647  -16.6796  -52.3460 H         1 UNK         0.0800 
    245 H245       -1.8087  -16.6886  -52.3493 H         1 UNK         0.0800 
    246 H246       -2.4168  -19.0328  -52.0252 H         1 UNK         0.0800 
    247 H247       -1.7997  -20.4149  -52.8880 H         1 UNK         0.0800 
@<TRIPOS>BOND
     1    1    2 1    
     2    1  127 1    
     3    1  128 1    
     4    1  129 1    
     5    2    3 2    
     6    2    4 am   BACKBONE|DICT|INTERRES
     7    4    5 1    
     8    4  130 1    
     9    5    6 1    
    10    5   65 1    
    11    5  131 1    
    12    6    7 1    
    13    6  132 1    
    14    6  133 1    
    15    7    8 1    
    16    8    9 1    
    17    8  134 1    
    18    8  135 1    
    19    9   10 ar   
    20    9   14 ar   
    21   10   11 ar   
    22   10  136 1    
    23   11   12 ar   
    24   11  126 1    
    25   12   13 ar   
    26   12  137 1    
    27   13   14 ar   
    28   13   15 1    
    29   14  138 1    
    30   15   16 1    
    31   15  139 1    
    32   15  140 1    
    33   16   17 1    
    34   17   18 1    
    35   17  141 1    
    36   17  142 1    
    37   18   19 1    
    38   18   67 1    
    39   18  143 1    
    40   19   20 am   BACKBONE|DICT|INTERRES
    41   19  144 1    
    42   20   21 2    
    43   20   22 1    
    44   22   23 1    
    45   22   24 1    
    46   22  145 1    
    47   23  146 1    
    48   23  147 1    
    49   23  148 1    
    50   24   25 am   BACKBONE|DICT|INTERRES
    51   24  149 1    
    52   25   26 2    
    53   25   27 1    
    54   27   28 1    
    55   27   29 1    
    56   27  150 1    
    57   28  151 1    
    58   28  152 1    
    59   28  153 1    
    60   29   30 am   BACKBONE|DICT|INTERRES
    61   29  154 1    
    62   30   31 2    
    63   30   32 1    
    64   32   33 1    
    65   32   34 1    
    66   32  155 1    
    67   33  156 1    
    68   33  157 1    
    69   33  158 1    
    70   34   35 am   BACKBONE|DICT|INTERRES
    71   34  159 1    
    72   35   36 2    
    73   35   37 1    
    74   37   38 1    
    75   37   39 1    
    76   37  160 1    
    77   38  161 1    
    78   38  162 1    
    79   38  163 1    
    80   39   40 am   BACKBONE|DICT|INTERRES
    81   39  164 1    
    82   40   41 2    
    83   40   42 1    
    84   42   43 1    
    85   42   44 1    
    86   42  165 1    
    87   43  166 1    
    88   43  167 1    
    89   43  168 1    
    90   44   45 am   BACKBONE|DICT|INTERRES
    91   44  169 1    
    92   45   46 2    
    93   45   47 1    
    94   47   48 1    
    95   47   49 1    
    96   47  170 1    
    97   48  171 1    
    98   48  172 1    
    99   48  173 1    
   100   49   50 am   BACKBONE|DICT|INTERRES
   101   49  174 1    
   102   50   51 2    
   103   50   52 1    
   104   52   53 1    
   105   52   54 1    
   106   52  175 1    
   107   53  176 1    
   108   53  177 1    
   109   53  178 1    
   110   54   55 am   BACKBONE|DICT|INTERRES
   111   54  179 1    
   112   55   56 2    
   113   55   57 1    
   114   57   58 1    
   115   57   59 1    
   116   57  180 1    
   117   58  181 1    
   118   58  182 1    
   119   58  183 1    
   120   59   60 am   BACKBONE|DICT|INTERRES
   121   59  184 1    
   122   60   61 2    
   123   60   62 1    
   124   62   63 1    
   125   62   64 1    
   126   62  185 1    
   127   63  186 1    
   128   63  187 1    
   129   63  188 1    
   130   64   65 am   BACKBONE|DICT|INTERRES
   131   64  189 1    
   132   65   66 2    
   133   67   68 2    
   134   67   69 am   BACKBONE|DICT|INTERRES
   135   69   70 1    
   136   69  190 1    
   137   70   71 1    
   138   70   72 1    
   139   70  191 1    
   140   71  192 1    
   141   71  193 1    
   142   71  194 1    
   143   72   73 2    
   144   72   74 am   BACKBONE|DICT|INTERRES
   145   74   75 1    
   146   74  195 1    
   147   75   76 1    
   148   75   77 1    
   149   75  196 1    
   150   76  197 1    
   151   76  198 1    
   152   76  199 1    
   153   77   78 2    
   154   77   79 am   BACKBONE|DICT|INTERRES
   155   79   80 1    
   156   79  200 1    
   157   80   81 1    
   158   80   82 1    
   159   80  201 1    
   160   81  202 1    
   161   81  203 1    
   162   81  204 1    
   163   82   83 2    
   164   82   84 am   BACKBONE|DICT|INTERRES
   165   84   85 1    
   166   84  205 1    
   167   85   86 1    
   168   85   87 1    
   169   85  206 1    
   170   86  207 1    
   171   86  208 1    
   172   86  209 1    
   173   87   88 2    
   174   87   89 am   BACKBONE|DICT|INTERRES
   175   89   90 1    
   176   89  210 1    
   177   90   91 1    
   178   90   92 1    
   179   90  211 1    
   180   91  212 1    
   181   91  213 1    
   182   91  214 1    
   183   92   93 2    
   184   92   94 am   BACKBONE|DICT|INTERRES
   185   94   95 1    
   186   94  215 1    
   187   95   96 1    
   188   95   97 1    
   189   95  216 1    
   190   96  217 1    
   191   96  218 1    
   192   96  219 1    
   193   97   98 2    
   194   97   99 am   BACKBONE|DICT|INTERRES
   195   99  100 1    
   196   99  220 1    
   197  100  101 1    
   198  100  102 1    
   199  100  221 1    
   200  101  222 1    
   201  101  223 1    
   202  101  224 1    
   203  102  103 2    
   204  102  104 am   BACKBONE|DICT|INTERRES
   205  104  105 1    
   206  104  225 1    
   207  105  106 1    
   208  105  107 1    
   209  105  226 1    
   210  106  227 1    
   211  106  228 1    
   212  106  229 1    
   213  107  108 2    
   214  107  109 am   BACKBONE|DICT|INTERRES
   215  109  110 1    
   216  109  230 1    
   217  110  111 1    
   218  110  112 1    
   219  110  231 1    
   220  111  232 1    
   221  111  233 1    
   222  111  234 1    
   223  112  113 2    
   224  112  114 am   BACKBONE|DICT|INTERRES
   225  114  115 1    
   226  114  235 1    
   227  115  116 1    
   228  115  117 1    
   229  115  236 1    
   230  116  237 1    
   231  116  238 1    
   232  116  239 1    
   233  117  118 2    
   234  117  119 am   BACKBONE|DICT|INTERRES
   235  119  120 1    
   236  119  240 1    
   237  120  121 1    
   238  120  124 1    
   239  120  241 1    
   240  121  122 am   BACKBONE|DICT|INTERRES
   241  121  123 2    
   242  122  242 1    
   243  122  243 1    
   244  124  125 1    
   245  124  244 1    
   246  124  245 1    
   247  125  126 1    
   248  126  246 1    
   249  126  247 1    
@<TRIPOS>SUBSTRUCTURE
     1 UNK         1 GROUP             0       ****    0 ROOT    
