@<TRIPOS>MOLECULE
3R540
247   249    1
SMALL
USER_CHARGES


@<TRIPOS>ATOM
      1 CA          0.1454  -10.8546  -50.4937 C.3       0 UNK        -0.1800 
      2 C           1.4245  -11.6433  -50.2492 C.2       0 UNK         0.5000 
      3 O           2.0970  -12.0283  -51.2060 O.2       0 UNK        -0.5000 
      4 N           1.7576  -11.8761  -48.9762 N.am      1 UNK        -0.5000 
      5 CA          2.9589  -12.5770  -48.5194 C.3       1 UNK         0.1400 
      6 C6          2.6355  -13.9743  -47.9361 C.3       23 UNK        -0.0398 
      7 S7          1.9274  -15.1246  -49.1606 S.3       23 UNK        -0.2404 
      8 C8          0.3331  -15.5253  -48.3705 C.3       23 UNK        -0.0205 
      9 C9         -0.4583  -16.6046  -49.1033 C.ar      23 UNK        -0.0193 
     10 C10        -1.8440  -16.4760  -49.2361 C.ar      23 UNK        -0.1150 
     11 C11        -2.5965  -17.4678  -49.8720 C.ar      23 UNK        -0.0193 
     12 C12        -1.9521  -18.5937  -50.3906 C.ar      23 UNK        -0.1150 
     13 C13        -0.5667  -18.7367  -50.2703 C.ar      23 UNK        -0.0193 
     14 C14         0.1694  -17.7481  -49.6108 C.ar      23 UNK        -0.1150 
     15 C15         0.1444  -19.9508  -50.8573 C.3       23 UNK        -0.0205 
     16 S16        -0.4083  -21.5285  -50.1342 S.3       23 UNK        -0.2404 
     17 C17        -0.3044  -21.1660  -48.3512 C.3       23 UNK        -0.0398 
     18 CA         -0.2863  -22.4272  -47.4595 C.3       11 UNK         0.1400 
     19 N           0.1224  -22.0923  -46.0943 N.am      11 UNK        -0.5000 
     20 C           0.3979  -22.9761  -45.1271 C.2       10 UNK         0.5000 
     21 O           0.3671  -24.1949  -45.2857 O.2       10 UNK        -0.5000 
     22 CA          0.7043  -22.4017  -43.7325 C.3       10 UNK         0.1400 
     23 CB          2.1451  -21.8760  -43.6568 C.3       10 UNK        -0.1800 
     24 N          -0.2334  -21.3451  -43.3490 N.am      10 UNK        -0.5000 
     25 C          -1.5497  -21.5368  -43.1766 C.2       9 UNK         0.5000 
     26 O          -2.0979  -22.6348  -43.2712 O.2       9 UNK        -0.5000 
     27 CA         -2.4060  -20.2902  -42.8959 C.3       9 UNK         0.1400 
     28 CB         -2.3109  -19.8887  -41.4167 C.3       9 UNK        -0.1800 
     29 N          -2.0433  -19.1534  -43.7428 N.am      9 UNK        -0.5000 
     30 C          -2.1551  -19.1308  -45.0790 C.2       8 UNK         0.5000 
     31 O          -2.6166  -20.0579  -45.7418 O.2       8 UNK        -0.5000 
     32 CA         -1.6042  -17.8914  -45.8049 C.3       8 UNK         0.1400 
     33 CB         -2.5941  -16.7205  -45.7332 C.3       8 UNK        -0.1800 
     34 N          -0.3012  -17.4761  -45.2853 N.am      8 UNK        -0.5000 
     35 C           0.8066  -18.2283  -45.3544 C.2       7 UNK         0.5000 
     36 O           0.8500  -19.3363  -45.8863 O.2       7 UNK        -0.5000 
     37 CA          2.0675  -17.6726  -44.6757 C.3       7 UNK         0.1400 
     38 CB          2.8098  -16.7003  -45.6031 C.3       7 UNK        -0.1800 
     39 N           1.7597  -17.0216  -43.4028 N.am      7 UNK        -0.5000 
     40 C           1.3547  -17.6791  -42.3068 C.2       6 UNK         0.5000 
     41 O           1.2626  -18.9053  -42.2378 O.2       6 UNK        -0.5000 
     42 CA          0.9264  -16.8148  -41.1084 C.3       6 UNK         0.1400 
     43 CB          2.1442  -16.3684  -40.2874 C.3       6 UNK        -0.1800 
     44 N           0.1493  -15.6449  -41.5238 N.am      6 UNK        -0.5000 
     45 C          -1.0928  -15.7239  -42.0241 C.2       5 UNK         0.5000 
     46 O          -1.6983  -16.7842  -42.1689 O.2       5 UNK        -0.5000 
     47 CA         -1.7737  -14.4168  -42.4659 C.3       5 UNK         0.1400 
     48 CB         -2.5971  -13.8269  -41.3116 C.3       5 UNK        -0.1800 
     49 N          -0.8535  -13.3978  -42.9658 N.am      5 UNK        -0.5000 
     50 C          -0.0326  -13.5250  -44.0165 C.2       4 UNK         0.5000 
     51 O           0.0821  -14.5593  -44.6785 O.2       4 UNK        -0.5000 
     52 CA          0.8195  -12.2917  -44.3826 C.3       4 UNK         0.1400 
     53 CB          0.4233  -11.0017  -43.6308 C.3       4 UNK        -0.1800 
     54 N           2.2566  -12.5246  -44.2269 N.am      4 UNK        -0.5000 
     55 C           2.9055  -13.0092  -43.1556 C.2       3 UNK         0.5000 
     56 O           2.3401  -13.4036  -42.1343 O.2       3 UNK        -0.5000 
     57 CA          4.4466  -13.0705  -43.2336 C.3       3 UNK         0.1400 
     58 CB          4.9630  -14.4881  -42.9410 C.3       3 UNK        -0.1800 
     59 N           4.9625  -12.6359  -44.5365 N.am      3 UNK        -0.5000 
     60 C           5.3568  -11.3875  -44.8245 C.2       2 UNK         0.5000 
     61 O           5.3889  -10.4707  -44.0033 O.2       2 UNK        -0.5000 
     62 CA          5.7485  -11.1084  -46.2901 C.3       2 UNK         0.1400 
     63 CB          7.2365  -11.4158  -46.5171 C.3       2 UNK        -0.1800 
     64 N           4.9461  -11.8498  -47.2717 N.am      2 UNK        -0.5000 
     65 C           3.6238  -11.7084  -47.4386 C.2       1 UNK         0.5000 
     66 O           2.9254  -10.9671  -46.7422 O.2       1 UNK        -0.5000 
     67 C          -1.6329  -23.1834  -47.4917 C.2       11 UNK         0.5000 
     68 O          -1.7514  -24.1815  -48.2035 O.2       11 UNK        -0.5000 
     69 N          -2.6109  -22.7312  -46.6950 N.am      12 UNK        -0.5000 
     70 CA         -3.9104  -23.3827  -46.5269 C.3       12 UNK         0.1400 
     71 CB         -4.8397  -22.4811  -45.7019 C.3       12 UNK        -0.1800 
     72 C          -3.8067  -24.7841  -45.8985 C.2       12 UNK         0.5000 
     73 O          -4.5546  -25.6776  -46.2929 O.2       12 UNK        -0.5000 
     74 N          -2.8783  -24.9602  -44.9509 N.am      13 UNK        -0.5000 
     75 CA         -2.6051  -26.2389  -44.3017 C.3       13 UNK         0.1400 
     76 CB         -1.8376  -25.9951  -42.9923 C.3       13 UNK        -0.1800 
     77 C          -1.8395  -27.2136  -45.2149 C.2       13 UNK         0.5000 
     78 O          -2.2593  -28.3620  -45.3635 O.2       13 UNK        -0.5000 
     79 N          -0.7178  -26.7533  -45.7836 N.am      14 UNK        -0.5000 
     80 CA          0.2432  -27.6005  -46.4898 C.3       14 UNK         0.1400 
     81 CB          1.6398  -26.9669  -46.3902 C.3       14 UNK        -0.1800 
     82 C          -0.1116  -27.8553  -47.9632 C.2       14 UNK         0.5000 
     83 O           0.1660  -28.9475  -48.4609 O.2       14 UNK        -0.5000 
     84 N          -0.6764  -26.8499  -48.6430 N.am      15 UNK        -0.5000 
     85 CA         -0.8778  -26.8451  -50.0948 C.3       15 UNK         0.1400 
     86 CB          0.0432  -25.7752  -50.7103 C.3       15 UNK        -0.1800 
     87 C          -2.3437  -26.6059  -50.4931 C.2       15 UNK         0.5000 
     88 O          -2.6144  -26.4214  -51.6795 O.2       15 UNK        -0.5000 
     89 N          -3.2627  -26.5718  -49.5149 N.am      16 UNK        -0.5000 
     90 CA         -4.7016  -26.3048  -49.6686 C.3       16 UNK         0.1400 
     91 CB         -5.3835  -27.4568  -50.4366 C.3       16 UNK        -0.1800 
     92 C          -5.0194  -24.9210  -50.2835 C.2       16 UNK         0.5000 
     93 O          -6.1043  -24.7351  -50.8364 O.2       16 UNK        -0.5000 
     94 N          -4.0579  -23.9870  -50.1973 N.am      17 UNK        -0.5000 
     95 CA         -4.0366  -22.6661  -50.8355 C.3       17 UNK         0.1400 
     96 CB         -5.0951  -21.7318  -50.2136 C.3       17 UNK        -0.1800 
     97 C          -4.1062  -22.7162  -52.3800 C.2       17 UNK         0.5000 
     98 O          -4.5644  -21.7535  -52.9987 O.2       17 UNK        -0.5000 
     99 N          -3.6580  -23.8304  -52.9817 N.am      18 UNK        -0.5000 
    100 CA        -3.6849  -24.0823  -54.4243 C.3       18 UNK         0.1400 
    101 CB        -3.1568  -25.4972  -54.7023 C.3       18 UNK        -0.1800 
    102 C         -2.8911  -23.0454  -55.2406 C.2       18 UNK         0.5000 
    103 O         -1.8922  -22.5079  -54.7558 O.2       18 UNK        -0.5000 
    104 N         -3.3694  -22.7822  -56.4644 N.am      19 UNK        -0.5000 
    105 CA        -2.8925  -21.8050  -57.4548 C.3       19 UNK         0.1400 
    106 CB        -1.4297  -22.0682  -57.8615 C.3       19 UNK        -0.1800 
    107 C         -3.1071  -20.3331  -57.0467 C.2       19 UNK         0.5000 
    108 O         -3.5356  -19.5352  -57.8813 O.2       19 UNK        -0.5000 
    109 N         -2.8284  -20.0005  -55.7811 N.am      20 UNK        -0.5000 
    110 CA        -3.0625  -18.6899  -55.1795 C.3       20 UNK         0.1400 
    111 CB        -2.3187  -18.6143  -53.8389 C.3       20 UNK        -0.1800 
    112 C         -4.5619  -18.3995  -54.9925 C.2       20 UNK         0.5000 
    113 O         -5.0218  -17.3212  -55.3722 O.2       20 UNK        -0.5000 
    114 N         -5.2892  -19.3761  -54.4278 N.am      21 UNK        -0.5000 
    115 CA        -6.7228  -19.4084  -54.1150 C.3       21 UNK         0.1400 
    116 CB        -7.5815  -19.2862  -55.3884 C.3       21 UNK        -0.1800 
    117 C         -7.1593  -18.3983  -53.0360 C.2       21 UNK         0.5000 
    118 O         -7.7517  -18.8022  -52.0350 O.2       21 UNK        -0.5000 
    119 N         -6.8587  -17.1141  -53.2593 N.am      22 UNK        -0.5000 
    120 CA        -7.1414  -15.9657  -52.3796 C.3       22 UNK         0.1400 
    121 C         -8.6559  -15.6422  -52.1844 C.2       22 UNK         0.5000 
    122 N         -9.5500  -16.1231  -53.0398 N.am      22 UNK        -0.7600 
    123 O         -9.0301  -14.9175  -51.2659 O.2       22 UNK        -0.5000 
    124 C124       -6.3624  -16.0251  -51.0357 C.3       23 UNK        -0.0398 
    125 S125       -4.5550  -16.1257  -51.2774 S.3       23 UNK        -0.2404 
    126 C126       -4.1052  -17.3215  -49.9850 C.3       23 UNK        -0.0205 
    127 H127       -0.3432  -10.5741  -49.5602 H         1 UNK         0.0600 
    128 H128       -0.5559  -11.4505  -51.0779 H         1 UNK         0.0600 
    129 H129        0.3662   -9.9432  -51.0493 H         1 UNK         0.0600 
    130 H130        1.2157  -11.4577  -48.2321 H         1 UNK         0.3000 
    131 H131        3.6702  -12.6875  -49.3407 H         1 UNK         0.0600 
    132 H132        1.9531  -13.8801  -47.0893 H         1 UNK         0.0800 
    133 H133        3.5407  -14.4437  -47.5471 H         1 UNK         0.0800 
    134 H134        0.5120  -15.8625  -47.3510 H         1 UNK         0.0800 
    135 H135       -0.2531  -14.6080  -48.2955 H         1 UNK         0.0800 
    136 H136       -2.3448  -15.6051  -48.8370 H         1 UNK         0.1150 
    137 H137       -2.5280  -19.3651  -50.8810 H         1 UNK         0.1150 
    138 H138        1.2378  -17.8652  -49.4989 H         1 UNK         0.1150 
    139 H139       -0.0293  -19.9778  -51.9337 H         1 UNK         0.0800 
    140 H140        1.2241  -19.8673  -50.7240 H         1 UNK         0.0800 
    141 H141       -1.1235  -20.5017  -48.0700 H         1 UNK         0.0800 
    142 H142        0.6134  -20.5983  -48.1933 H         1 UNK         0.0800 
    143 H143        0.4727  -23.1062  -47.8543 H         1 UNK         0.0600 
    144 H144        0.2138  -21.1008  -45.8859 H         1 UNK         0.3000 
    145 H145        0.6033  -23.2146  -43.0105 H         1 UNK         0.0600 
    146 H146        2.3866  -21.5340  -42.6502 H         1 UNK         0.0600 
    147 H147        2.8596  -22.6585  -43.9151 H         1 UNK         0.0600 
    148 H148        2.3092  -21.0430  -44.3402 H         1 UNK         0.0600 
    149 H149        0.1517  -20.4165  -43.2169 H         1 UNK         0.3000 
    150 H150       -3.4451  -20.5466  -43.1113 H         1 UNK         0.0600 
    151 H151       -2.5741  -20.7238  -40.7663 H         1 UNK         0.0600 
    152 H152       -2.9936  -19.0706  -41.1868 H         1 UNK         0.0600 
    153 H153       -1.3032  -19.5677  -41.1503 H         1 UNK         0.0600 
    154 H154       -1.7021  -18.3248  -43.2625 H         1 UNK         0.3000 
    155 H155       -1.4694  -18.1583  -46.8547 H         1 UNK         0.0600 
    156 H156       -3.5248  -16.9711  -46.2434 H         1 UNK         0.0600 
    157 H157       -2.1895  -15.8281  -46.2110 H         1 UNK         0.0600 
    158 H158       -2.8442  -16.4674  -44.7038 H         1 UNK         0.0600 
    159 H159       -0.2418  -16.5541  -44.8659 H         1 UNK         0.3000 
    160 H160        2.7293  -18.5191  -44.4804 H         1 UNK         0.0600 
    161 H161        2.3305  -15.7230  -45.6247 H         1 UNK         0.0600 
    162 H162        2.8446  -17.0761  -46.6269 H         1 UNK         0.0600 
    163 H163        3.8414  -16.5654  -45.2832 H         1 UNK         0.0600 
    164 H164        1.7413  -16.0119  -43.3941 H         1 UNK         0.3000 
    165 H165        0.2956  -17.4311  -40.4640 H         1 UNK         0.0600 
    166 H166        1.8403  -15.8001  -39.4083 H         1 UNK         0.0600 
    167 H167        2.7151  -17.2294  -39.9377 H         1 UNK         0.0600 
    168 H168        2.8183  -15.7444  -40.8727 H         1 UNK         0.0600 
    169 H169        0.6109  -14.7441  -41.4818 H         1 UNK         0.3000 
    170 H170       -2.4592  -14.6610  -43.2786 H         1 UNK         0.0600 
    171 H171       -3.3149  -14.5553  -40.9316 H         1 UNK         0.0600 
    172 H172       -1.9621  -13.5257  -40.4774 H         1 UNK         0.0600 
    173 H173       -3.1639  -12.9539  -41.6358 H         1 UNK         0.0600 
    174 H174       -0.8506  -12.5188  -42.4696 H         1 UNK         0.3000 
    175 H175        0.6479  -12.1174  -45.4456 H         1 UNK         0.0600 
    176 H176        0.6102  -11.0758  -42.5587 H         1 UNK         0.0600 
    177 H177        0.9936  -10.1501  -44.0028 H         1 UNK         0.0600 
    178 H178       -0.6314  -10.7637  -43.7759 H         1 UNK         0.0600 
    179 H179        2.8186  -12.1901  -44.9984 H         1 UNK         0.3000 
    180 H180        4.8295  -12.4137  -42.4500 H         1 UNK         0.0600 
    181 H181        4.5322  -15.2234  -43.6174 H         1 UNK         0.0600 
    182 H182        4.7141  -14.7919  -41.9243 H         1 UNK         0.0600 
    183 H183        6.0479  -14.5404  -43.0331 H         1 UNK         0.0600 
    184 H184        4.9849  -13.3292  -45.2697 H         1 UNK         0.3000 
    185 H185        5.5911  -10.0431  -46.4718 H         1 UNK         0.0600 
    186 H186        7.8615  -10.8611  -45.8158 H         1 UNK         0.0600 
    187 H187        7.4546  -12.4761  -46.3830 H         1 UNK         0.0600 
    188 H188        7.5495  -11.1323  -47.5221 H         1 UNK         0.0600 
    189 H189        5.4544  -12.4799  -47.8762 H         1 UNK         0.3000 
    190 H190       -2.4700  -21.8644  -46.1810 H         1 UNK         0.3000 
    191 H191       -4.3553  -23.5004  -47.5150 H         1 UNK         0.0600 
    192 H192       -4.9886  -21.5181  -46.1906 H         1 UNK         0.0600 
    193 H193       -5.8220  -22.9391  -45.5799 H         1 UNK         0.0600 
    194 H194       -4.4381  -22.2930  -44.7062 H         1 UNK         0.0600 
    195 H195       -2.3426  -24.1593  -44.6334 H         1 UNK         0.3000 
    196 H196       -3.5588  -26.7045  -44.0436 H         1 UNK         0.0600 
    197 H197       -1.6230  -26.9356  -42.4834 H         1 UNK         0.0600 
    198 H198       -2.4190  -25.3789  -42.3062 H         1 UNK         0.0600 
    199 H199       -0.8869  -25.4904  -43.1666 H         1 UNK         0.0600 
    200 H200       -0.4288  -25.7921  -45.6075 H         1 UNK         0.3000 
    201 H201        0.2873  -28.5705  -45.9893 H         1 UNK         0.0600 
    202 H202        1.9331  -26.8190  -45.3507 H         1 UNK         0.0600 
    203 H203        1.6787  -25.9980  -46.8898 H         1 UNK         0.0600 
    204 H204        2.3931  -27.6051  -46.8536 H         1 UNK         0.0600 
    205 H205       -0.8992  -25.9803  -48.1680 H         1 UNK         0.3000 
    206 H206       -0.6049  -27.8095  -50.5270 H         1 UNK         0.0600 
    207 H207        1.0863  -25.9589  -50.4532 H         1 UNK         0.0600 
    208 H208       -0.0246  -25.7727  -51.7989 H         1 UNK         0.0600 
    209 H209       -0.2147  -24.7737  -50.3644 H         1 UNK         0.0600 
    210 H210       -2.9407  -26.7055  -48.5667 H         1 UNK         0.3000 
    211 H211       -5.1275  -26.2937  -48.6673 H         1 UNK         0.0600 
    212 H212       -5.0772  -27.4851  -51.4827 H         1 UNK         0.0600 
    213 H213       -6.4688  -27.3521  -50.4180 H         1 UNK         0.0600 
    214 H214       -5.1459  -28.4227  -49.9908 H         1 UNK         0.0600 
    215 H215       -3.2106  -24.2393  -49.6987 H         1 UNK         0.3000 
    216 H216       -3.0637  -22.2408  -50.6026 H         1 UNK         0.0600 
    217 H217       -4.9989  -20.7174  -50.6018 H         1 UNK         0.0600 
    218 H218       -4.9822  -21.6727  -49.1313 H         1 UNK         0.0600 
    219 H219       -6.1096  -22.0668  -50.4302 H         1 UNK         0.0600 
    220 H220       -3.2886  -24.5809  -52.4085 H         1 UNK         0.3000 
    221 H221       -4.7301  -24.0374  -54.7367 H         1 UNK         0.0600 
    222 H222       -2.1271  -25.6135  -54.3617 H         1 UNK         0.0600 
    223 H223       -3.7638  -26.2502  -54.1991 H         1 UNK         0.0600 
    224 H224       -3.1782  -25.7245  -55.7689 H         1 UNK         0.0600 
    225 H225       -4.2059  -23.2748  -56.7462 H         1 UNK         0.3000 
    226 H226       -3.5064  -21.9708  -58.3416 H         1 UNK         0.0600 
    227 H227       -1.2916  -23.0971  -58.1935 H         1 UNK         0.0600 
    228 H228       -1.1352  -21.4181  -58.6863 H         1 UNK         0.0600 
    229 H229       -0.7352  -21.8833  -57.0418 H         1 UNK         0.0600 
    230 H230       -2.4651  -20.7326  -55.1774 H         1 UNK         0.3000 
    231 H231       -2.6514  -17.9257  -55.8423 H         1 UNK         0.0600 
    232 H232       -2.6245  -19.4207  -53.1724 H         1 UNK         0.0600 
    233 H233       -2.5151  -17.6695  -53.3298 H         1 UNK         0.0600 
    234 H234       -1.2407  -18.6904  -53.9807 H         1 UNK         0.0600 
    235 H235       -4.7937  -20.2026  -54.1023 H         1 UNK         0.3000 
    236 H236       -6.9047  -20.4011  -53.7001 H         1 UNK         0.0600 
    237 H237       -7.3190  -20.0570  -56.1131 H         1 UNK         0.0600 
    238 H238       -8.6401  -19.4066  -55.1553 H         1 UNK         0.0600 
    239 H239       -7.4635  -18.3175  -55.8742 H         1 UNK         0.0600 
    240 H240       -6.3252  -16.9094  -54.1004 H         1 UNK         0.3000 
    241 H241       -6.7600  -15.1003  -52.9224 H         1 UNK         0.0600 
    242 H242       -9.2602  -16.7074  -53.8074 H         1 UNK         0.3800 
    243 H243      -10.5259  -15.9021  -52.9160 H         1 UNK         0.3800 
    244 H244       -6.5545  -15.1320  -50.4391 H         1 UNK         0.0800 
    245 H245       -6.7073  -16.8689  -50.4367 H         1 UNK         0.0800 
    246 H246       -4.5089  -16.9926  -49.0262 H         1 UNK         0.0800 
    247 H247       -4.5708  -18.2829  -50.2067 H         1 UNK         0.0800 
@<TRIPOS>BOND
     1    1    2 1    
     2    1  127 1    
     3    1  128 1    
     4    1  129 1    
     5    2    3 2    
     6    2    4 am   BACKBONE|DICT|INTERRES
     7    4    5 1    
     8    4  130 1    
     9    5    6 1    
    10    5   65 1    
    11    5  131 1    
    12    6    7 1    
    13    6  132 1    
    14    6  133 1    
    15    7    8 1    
    16    8    9 1    
    17    8  134 1    
    18    8  135 1    
    19    9   10 ar   
    20    9   14 ar   
    21   10   11 ar   
    22   10  136 1    
    23   11   12 ar   
    24   11  126 1    
    25   12   13 ar   
    26   12  137 1    
    27   13   14 ar   
    28   13   15 1    
    29   14  138 1    
    30   15   16 1    
    31   15  139 1    
    32   15  140 1    
    33   16   17 1    
    34   17   18 1    
    35   17  141 1    
    36   17  142 1    
    37   18   19 1    
    38   18   67 1    
    39   18  143 1    
    40   19   20 am   BACKBONE|DICT|INTERRES
    41   19  144 1    
    42   20   21 2    
    43   20   22 1    
    44   22   23 1    
    45   22   24 1    
    46   22  145 1    
    47   23  146 1    
    48   23  147 1    
    49   23  148 1    
    50   24   25 am   BACKBONE|DICT|INTERRES
    51   24  149 1    
    52   25   26 2    
    53   25   27 1    
    54   27   28 1    
    55   27   29 1    
    56   27  150 1    
    57   28  151 1    
    58   28  152 1    
    59   28  153 1    
    60   29   30 am   BACKBONE|DICT|INTERRES
    61   29  154 1    
    62   30   31 2    
    63   30   32 1    
    64   32   33 1    
    65   32   34 1    
    66   32  155 1    
    67   33  156 1    
    68   33  157 1    
    69   33  158 1    
    70   34   35 am   BACKBONE|DICT|INTERRES
    71   34  159 1    
    72   35   36 2    
    73   35   37 1    
    74   37   38 1    
    75   37   39 1    
    76   37  160 1    
    77   38  161 1    
    78   38  162 1    
    79   38  163 1    
    80   39   40 am   BACKBONE|DICT|INTERRES
    81   39  164 1    
    82   40   41 2    
    83   40   42 1    
    84   42   43 1    
    85   42   44 1    
    86   42  165 1    
    87   43  166 1    
    88   43  167 1    
    89   43  168 1    
    90   44   45 am   BACKBONE|DICT|INTERRES
    91   44  169 1    
    92   45   46 2    
    93   45   47 1    
    94   47   48 1    
    95   47   49 1    
    96   47  170 1    
    97   48  171 1    
    98   48  172 1    
    99   48  173 1    
   100   49   50 am   BACKBONE|DICT|INTERRES
   101   49  174 1    
   102   50   51 2    
   103   50   52 1    
   104   52   53 1    
   105   52   54 1    
   106   52  175 1    
   107   53  176 1    
   108   53  177 1    
   109   53  178 1    
   110   54   55 am   BACKBONE|DICT|INTERRES
   111   54  179 1    
   112   55   56 2    
   113   55   57 1    
   114   57   58 1    
   115   57   59 1    
   116   57  180 1    
   117   58  181 1    
   118   58  182 1    
   119   58  183 1    
   120   59   60 am   BACKBONE|DICT|INTERRES
   121   59  184 1    
   122   60   61 2    
   123   60   62 1    
   124   62   63 1    
   125   62   64 1    
   126   62  185 1    
   127   63  186 1    
   128   63  187 1    
   129   63  188 1    
   130   64   65 am   BACKBONE|DICT|INTERRES
   131   64  189 1    
   132   65   66 2    
   133   67   68 2    
   134   67   69 am   BACKBONE|DICT|INTERRES
   135   69   70 1    
   136   69  190 1    
   137   70   71 1    
   138   70   72 1    
   139   70  191 1    
   140   71  192 1    
   141   71  193 1    
   142   71  194 1    
   143   72   73 2    
   144   72   74 am   BACKBONE|DICT|INTERRES
   145   74   75 1    
   146   74  195 1    
   147   75   76 1    
   148   75   77 1    
   149   75  196 1    
   150   76  197 1    
   151   76  198 1    
   152   76  199 1    
   153   77   78 2    
   154   77   79 am   BACKBONE|DICT|INTERRES
   155   79   80 1    
   156   79  200 1    
   157   80   81 1    
   158   80   82 1    
   159   80  201 1    
   160   81  202 1    
   161   81  203 1    
   162   81  204 1    
   163   82   83 2    
   164   82   84 am   BACKBONE|DICT|INTERRES
   165   84   85 1    
   166   84  205 1    
   167   85   86 1    
   168   85   87 1    
   169   85  206 1    
   170   86  207 1    
   171   86  208 1    
   172   86  209 1    
   173   87   88 2    
   174   87   89 am   BACKBONE|DICT|INTERRES
   175   89   90 1    
   176   89  210 1    
   177   90   91 1    
   178   90   92 1    
   179   90  211 1    
   180   91  212 1    
   181   91  213 1    
   182   91  214 1    
   183   92   93 2    
   184   92   94 am   BACKBONE|DICT|INTERRES
   185   94   95 1    
   186   94  215 1    
   187   95   96 1    
   188   95   97 1    
   189   95  216 1    
   190   96  217 1    
   191   96  218 1    
   192   96  219 1    
   193   97   98 2    
   194   97   99 am   BACKBONE|DICT|INTERRES
   195   99  100 1    
   196   99  220 1    
   197  100  101 1    
   198  100  102 1    
   199  100  221 1    
   200  101  222 1    
   201  101  223 1    
   202  101  224 1    
   203  102  103 2    
   204  102  104 am   BACKBONE|DICT|INTERRES
   205  104  105 1    
   206  104  225 1    
   207  105  106 1    
   208  105  107 1    
   209  105  226 1    
   210  106  227 1    
   211  106  228 1    
   212  106  229 1    
   213  107  108 2    
   214  107  109 am   BACKBONE|DICT|INTERRES
   215  109  110 1    
   216  109  230 1    
   217  110  111 1    
   218  110  112 1    
   219  110  231 1    
   220  111  232 1    
   221  111  233 1    
   222  111  234 1    
   223  112  113 2    
   224  112  114 am   BACKBONE|DICT|INTERRES
   225  114  115 1    
   226  114  235 1    
   227  115  116 1    
   228  115  117 1    
   229  115  236 1    
   230  116  237 1    
   231  116  238 1    
   232  116  239 1    
   233  117  118 2    
   234  117  119 am   BACKBONE|DICT|INTERRES
   235  119  120 1    
   236  119  240 1    
   237  120  121 1    
   238  120  124 1    
   239  120  241 1    
   240  121  122 am   BACKBONE|DICT|INTERRES
   241  121  123 2    
   242  122  242 1    
   243  122  243 1    
   244  124  125 1    
   245  124  244 1    
   246  124  245 1    
   247  125  126 1    
   248  126  246 1    
   249  126  247 1    
@<TRIPOS>SUBSTRUCTURE
     1 UNK         1 GROUP             0       ****    0 ROOT    
