@<TRIPOS>MOLECULE
3R540
247   249    1
SMALL
USER_CHARGES


@<TRIPOS>ATOM
      1 CA          2.1323   -9.9774  -47.4609 C.3       0 UNK        -0.1800 
      2 C           2.0428  -11.1435  -46.4884 C.2       0 UNK         0.5000 
      3 O           2.7736  -11.1730  -45.4986 O.2       0 UNK        -0.5000 
      4 N           1.1350  -12.0927  -46.7479 N.am      1 UNK        -0.5000 
      5 CA          0.9375  -13.3312  -45.9772 C.3       1 UNK         0.1400 
      6 C6         -0.1034  -14.2601  -46.6488 C.3       23 UNK        -0.0398 
      7 S7          0.4015  -14.7587  -48.3283 S.3       23 UNK        -0.2404 
      8 C8         -0.8967  -15.9681  -48.7328 C.3       23 UNK        -0.0205 
      9 C9         -0.4488  -16.8974  -49.8497 C.ar      23 UNK        -0.0193 
     10 C10        -1.0129  -16.8208  -51.1261 C.ar      23 UNK        -0.1150 
     11 C11        -0.5890  -17.6881  -52.1393 C.ar      23 UNK        -0.0193 
     12 C12         0.4014  -18.6384  -51.8683 C.ar      23 UNK        -0.1150 
     13 C13         0.9673  -18.7246  -50.5936 C.ar      23 UNK        -0.0193 
     14 C14         0.5394  -17.8494  -49.5952 C.ar      23 UNK        -0.1150 
     15 C15         2.0417  -19.7559  -50.2813 C.3       23 UNK        -0.0205 
     16 S16         1.3573  -21.4294  -50.0709 S.3       23 UNK        -0.2404 
     17 C17         0.0340  -21.1595  -48.8437 C.3       23 UNK        -0.0398 
     18 CA         -0.3065  -22.4676  -48.0959 C.3       11 UNK         0.1400 
     19 N           0.6717  -22.7780  -47.0500 N.am      11 UNK        -0.5000 
     20 C           0.8230  -23.9842  -46.4894 C.2       10 UNK         0.5000 
     21 O           0.1524  -24.9702  -46.7956 O.2       10 UNK        -0.5000 
     22 CA          1.8706  -24.0890  -45.3662 C.3       10 UNK         0.1400 
     23 CB          3.2947  -24.0842  -45.9426 C.3       10 UNK        -0.1800 
     24 N           1.7403  -23.0210  -44.3720 N.am      10 UNK        -0.5000 
     25 C           0.6813  -22.8742  -43.5642 C.2       9 UNK         0.5000 
     26 O          -0.2939  -23.6235  -43.5761 O.2       9 UNK        -0.5000 
     27 CA          0.6880  -21.6745  -42.5996 C.3       9 UNK         0.1400 
     28 CB          1.4615  -22.0199  -41.3186 C.3       9 UNK        -0.1800 
     29 N           1.2060  -20.4180  -43.1484 N.am      9 UNK        -0.5000 
     30 C           0.8423  -19.8344  -44.2980 C.2       8 UNK         0.5000 
     31 O           0.1199  -20.3611  -45.1458 O.2       8 UNK        -0.5000 
     32 CA          1.3141  -18.3816  -44.4832 C.3       8 UNK         0.1400 
     33 CB          1.2580  -17.9301  -45.9494 C.3       8 UNK        -0.1800 
     34 N           0.4691  -17.4994  -43.6797 N.am      8 UNK        -0.5000 
     35 C           0.6481  -17.2674  -42.3754 C.2       7 UNK         0.5000 
     36 O           1.6057  -17.7052  -41.7291 O.2       7 UNK        -0.5000 
     37 CA         -0.4422  -16.4567  -41.6623 C.3       7 UNK         0.1400 
     38 CB         -1.6173  -17.3652  -41.2550 C.3       7 UNK        -0.1800 
     39 N           0.1684  -15.8529  -40.4878 N.am      7 UNK        -0.5000 
     40 C          -0.3107  -14.8434  -39.7546 C.2       6 UNK         0.5000 
     41 O          -1.4196  -14.3335  -39.9180 O.2       6 UNK        -0.5000 
     42 CA          0.6418  -14.2887  -38.6747 C.3       6 UNK         0.1400 
     43 CB          0.4978  -15.0782  -37.3647 C.3       6 UNK        -0.1800 
     44 N           2.0446  -14.3131  -39.1074 N.am      6 UNK        -0.5000 
     45 C           2.5207  -13.5604  -40.1078 C.2       5 UNK         0.5000 
     46 O           1.8567  -12.6886  -40.6729 O.2       5 UNK        -0.5000 
     47 CA          3.9589  -13.8378  -40.5709 C.3       5 UNK         0.1400 
     48 CB          4.1002  -15.2556  -41.1572 C.3       5 UNK        -0.1800 
     49 N           4.2880  -12.8546  -41.5934 N.am      5 UNK        -0.5000 
     50 C           5.5032  -12.4355  -41.9527 C.2       4 UNK         0.5000 
     51 O           6.5485  -12.8689  -41.4662 O.2       4 UNK        -0.5000 
     52 CA          5.5616  -11.3483  -43.0444 C.3       4 UNK         0.1400 
     53 CB          5.9345  -11.9714  -44.3988 C.3       4 UNK        -0.1800 
     54 N           4.3022  -10.6141  -43.1996 N.am      4 UNK        -0.5000 
     55 C           3.8556   -9.6706  -42.3586 C.2       3 UNK         0.5000 
     56 O           4.4664   -9.3107  -41.3517 O.2       3 UNK        -0.5000 
     57 CA          2.4968   -9.0323  -42.6885 C.3       3 UNK         0.1400 
     58 CB          2.6389   -8.0143  -43.8318 C.3       3 UNK        -0.1800 
     59 N           1.5157  -10.0520  -43.0646 N.am      3 UNK        -0.5000 
     60 C           0.4342  -10.3797  -42.3418 C.2       2 UNK         0.5000 
     61 O           0.1265   -9.8138  -41.2911 O.2       2 UNK        -0.5000 
     62 CA         -0.4768  -11.5066  -42.8777 C.3       2 UNK         0.1400 
     63 CB         -1.9454  -11.0513  -42.9337 C.3       2 UNK        -0.1800 
     64 N          -0.0844  -11.9534  -44.2156 N.am      2 UNK        -0.5000 
     65 C           0.5601  -13.0932  -44.4977 C.2       1 UNK         0.5000 
     66 O           0.8685  -13.9368  -43.6567 O.2       1 UNK        -0.5000 
     67 C          -1.7450  -22.4414  -47.5470 C.2       11 UNK         0.5000 
     68 O          -2.6656  -22.8207  -48.2718 O.2       11 UNK        -0.5000 
     69 N          -1.9168  -22.0347  -46.2817 N.am      12 UNK        -0.5000 
     70 CA         -3.1904  -22.0813  -45.5653 C.3       12 UNK         0.1400 
     71 CB         -3.0727  -21.3046  -44.2455 C.3       12 UNK        -0.1800 
     72 C          -3.6652  -23.5258  -45.3203 C.2       12 UNK         0.5000 
     73 O          -4.8343  -23.8241  -45.5633 O.2       12 UNK        -0.5000 
     74 N          -2.7466  -24.4028  -44.8878 N.am      13 UNK        -0.5000 
     75 CA         -2.9916  -25.8314  -44.6755 C.3       13 UNK         0.1400 
     76 CB         -1.8025  -26.4557  -43.9297 C.3       13 UNK        -0.1800 
     77 C          -3.2675  -26.5905  -45.9855 C.2       13 UNK         0.5000 
     78 O          -4.1511  -27.4479  -46.0149 O.2       13 UNK        -0.5000 
     79 N          -2.5293  -26.2448  -47.0500 N.am      14 UNK        -0.5000 
     80 CA         -2.7268  -26.7741  -48.4020 C.3       14 UNK         0.1400 
     81 CB         -1.4962  -26.4337  -49.2568 C.3       14 UNK        -0.1800 
     82 C          -4.0044  -26.2468  -49.0859 C.2       14 UNK         0.5000 
     83 O          -4.4747  -26.8721  -50.0366 O.2       14 UNK        -0.5000 
     84 N          -4.5187  -25.1053  -48.6026 N.am      15 UNK        -0.5000 
     85 CA         -5.6276  -24.3158  -49.1422 C.3       15 UNK         0.1400 
     86 CB         -6.9611  -25.0816  -49.0254 C.3       15 UNK        -0.1800 
     87 C          -5.3209  -23.8332  -50.5728 C.2       15 UNK         0.5000 
     88 O          -6.1179  -24.0495  -51.4858 O.2       15 UNK        -0.5000 
     89 N          -4.1447  -23.2100  -50.7380 N.am      16 UNK        -0.5000 
     90 CA         -3.5248  -22.8412  -52.0160 C.3       16 UNK         0.1400 
     91 CB         -2.2231  -22.0744  -51.7391 C.3       16 UNK        -0.1800 
     92 C          -4.4208  -22.0397  -52.9792 C.2       16 UNK         0.5000 
     93 O          -4.3693  -22.2722  -54.1877 O.2       16 UNK        -0.5000 
     94 N          -5.2420  -21.1350  -52.4319 N.am      17 UNK        -0.5000 
     95 CA         -6.1878  -20.3210  -53.1950 C.3       17 UNK         0.1400 
     96 CB         -6.6703  -19.1542  -52.3212 C.3       17 UNK        -0.1800 
     97 C          -7.3828  -21.1321  -53.7324 C.2       17 UNK         0.5000 
     98 O          -7.8446  -20.8633  -54.8414 O.2       17 UNK        -0.5000 
     99 N          -7.8489  -22.1184  -52.9535 N.am      18 UNK        -0.5000 
    100 CA        -8.9419  -23.0220  -53.3217 C.3       18 UNK         0.1400 
    101 CB        -9.5696  -23.6113  -52.0493 C.3       18 UNK        -0.1800 
    102 C         -8.4602  -24.1421  -54.2595 C.2       18 UNK         0.5000 
    103 O         -9.1872  -24.5301  -55.1743 O.2       18 UNK        -0.5000 
    104 N         -7.2259  -24.6125  -54.0349 N.am      19 UNK        -0.5000 
    105 CA        -6.5178  -25.5886  -54.8651 C.3       19 UNK         0.1400 
    106 CB        -5.3022  -26.1041  -54.0779 C.3       19 UNK        -0.1800 
    107 C         -6.0694  -25.0248  -56.2299 C.2       19 UNK         0.5000 
    108 O         -5.6858  -25.8029  -57.1037 O.2       19 UNK        -0.5000 
    109 N         -6.1080  -23.6915  -56.3751 N.am      20 UNK        -0.5000 
    110 CA        -5.6878  -22.8934  -57.5310 C.3       20 UNK         0.1400 
    111 CB        -6.5003  -23.2511  -58.7926 C.3       20 UNK        -0.1800 
    112 C         -4.1637  -22.9159  -57.7690 C.2       20 UNK         0.5000 
    113 O         -3.7077  -22.5996  -58.8692 O.2       20 UNK        -0.5000 
    114 N         -3.3918  -23.2220  -56.7165 N.am      21 UNK        -0.5000 
    115 CA        -1.9290  -23.1544  -56.6935 C.3       21 UNK         0.1400 
    116 CB        -1.4122  -23.8456  -55.4231 C.3       21 UNK        -0.1800 
    117 C         -1.4143  -21.7043  -56.7801 C.2       21 UNK         0.5000 
    118 O         -0.3136  -21.4766  -57.2828 O.2       21 UNK        -0.5000 
    119 N         -2.2446  -20.7536  -56.3324 N.am      22 UNK        -0.5000 
    120 CA        -2.0652  -19.3074  -56.5265 C.3       22 UNK         0.1400 
    121 C         -2.3087  -18.8153  -57.9868 C.2       22 UNK         0.5000 
    122 N         -2.7798  -19.6406  -58.9159 N.am      22 UNK        -0.7600 
    123 O         -2.0554  -17.6522  -58.2882 O.2       22 UNK        -0.5000 
    124 C124       -2.9181  -18.4876  -55.5237 C.3       23 UNK        -0.0398 
    125 S125       -2.4911  -18.8310  -53.7846 S.3       23 UNK        -0.2404 
    126 C126       -1.1872  -17.5900  -53.5317 C.3       23 UNK        -0.0205 
    127 H127        1.8387   -9.0523  -46.9650 H         1 UNK         0.0600 
    128 H128        1.4854  -10.1214  -48.3265 H         1 UNK         0.0600 
    129 H129        3.1564   -9.8651  -47.8166 H         1 UNK         0.0600 
    130 H130        0.5701  -12.0140  -47.5819 H         1 UNK         0.3000 
    131 H131        1.8969  -13.8533  -45.9674 H         1 UNK         0.0600 
    132 H132       -1.0789  -13.7733  -46.7046 H         1 UNK         0.0800 
    133 H133       -0.2420  -15.1658  -46.0556 H         1 UNK         0.0800 
    134 H134       -1.8097  -15.4378  -49.0079 H         1 UNK         0.0800 
    135 H135       -1.1388  -16.5661  -47.8535 H         1 UNK         0.0800 
    136 H136       -1.7785  -16.0861  -51.3327 H         1 UNK         0.1150 
    137 H137        0.7266  -19.3147  -52.6466 H         1 UNK         0.1150 
    138 H138        0.9827  -17.9030  -48.6145 H         1 UNK         0.1150 
    139 H139        2.5888  -19.4803  -49.3782 H         1 UNK         0.0800 
    140 H140        2.7755  -19.7720  -51.0883 H         1 UNK         0.0800 
    141 H141       -0.8296  -20.7716  -49.3866 H         1 UNK         0.0800 
    142 H142        0.3255  -20.3797  -48.1381 H         1 UNK         0.0800 
    143 H143       -0.2836  -23.2835  -48.8214 H         1 UNK         0.0600 
    144 H144        1.2140  -22.0044  -46.6942 H         1 UNK         0.3000 
    145 H145        1.7146  -25.0430  -44.8578 H         1 UNK         0.0600 
    146 H146        3.4188  -24.8774  -46.6810 H         1 UNK         0.0600 
    147 H147        4.0362  -24.2506  -45.1611 H         1 UNK         0.0600 
    148 H148        3.5307  -23.1392  -46.4334 H         1 UNK         0.0600 
    149 H149        2.4946  -22.3536  -44.3071 H         1 UNK         0.3000 
    150 H150       -0.3491  -21.4856  -42.3179 H         1 UNK         0.0600 
    151 H151        2.5244  -22.1631  -41.5171 H         1 UNK         0.0600 
    152 H152        1.0840  -22.9391  -40.8682 H         1 UNK         0.0600 
    153 H153        1.3626  -21.2306  -40.5730 H         1 UNK         0.0600 
    154 H154        1.7636  -19.8618  -42.5124 H         1 UNK         0.3000 
    155 H155        2.3525  -18.3102  -44.1519 H         1 UNK         0.0600 
    156 H156        0.2403  -17.9556  -46.3402 H         1 UNK         0.0600 
    157 H157        1.8715  -18.5807  -46.5736 H         1 UNK         0.0600 
    158 H158        1.6386  -16.9151  -46.0651 H         1 UNK         0.0600 
    159 H159       -0.3601  -17.1431  -44.1309 H         1 UNK         0.3000 
    160 H160       -0.7937  -15.6665  -42.3285 H         1 UNK         0.0600 
    161 H161       -1.2963  -18.1519  -40.5711 H         1 UNK         0.0600 
    162 H162       -2.0599  -17.8486  -42.1268 H         1 UNK         0.0600 
    163 H163       -2.4089  -16.7987  -40.7649 H         1 UNK         0.0600 
    164 H164        1.0992  -16.2035  -40.2991 H         1 UNK         0.3000 
    165 H165        0.3596  -13.2513  -38.4816 H         1 UNK         0.0600 
    166 H166       -0.5339  -15.0605  -37.0110 H         1 UNK         0.0600 
    167 H167        0.7840  -16.1233  -37.4893 H         1 UNK         0.0600 
    168 H168        1.1179  -14.6510  -36.5764 H         1 UNK         0.0600 
    169 H169        2.6451  -14.9974  -38.6705 H         1 UNK         0.3000 
    170 H170        4.6265  -13.7156  -39.7157 H         1 UNK         0.0600 
    171 H171        3.4236  -15.4075  -41.9996 H         1 UNK         0.0600 
    172 H172        3.8748  -16.0200  -40.4131 H         1 UNK         0.0600 
    173 H173        5.1154  -15.4400  -41.5084 H         1 UNK         0.0600 
    174 H174        3.4750  -12.3998  -41.9913 H         1 UNK         0.3000 
    175 H175        6.3453  -10.6410  -42.7651 H         1 UNK         0.0600 
    176 H176        6.8862  -12.5009  -44.3387 H         1 UNK         0.0600 
    177 H177        5.1802  -12.6855  -44.7324 H         1 UNK         0.0600 
    178 H178        6.0352  -11.2074  -45.1699 H         1 UNK         0.0600 
    179 H179        3.7552  -10.8380  -44.0288 H         1 UNK         0.3000 
    180 H180        2.1673   -8.4892  -41.8005 H         1 UNK         0.0600 
    181 H181        2.9985   -8.4799  -44.7497 H         1 UNK         0.0600 
    182 H182        3.3452   -7.2269  -43.5659 H         1 UNK         0.0600 
    183 H183        1.6849   -7.5348  -44.0516 H         1 UNK         0.0600 
    184 H184        1.7229  -10.5851  -43.9012 H         1 UNK         0.3000 
    185 H185       -0.4104  -12.3344  -42.1686 H         1 UNK         0.0600 
    186 H186       -2.3075  -10.7662  -41.9452 H         1 UNK         0.0600 
    187 H187       -2.0759  -10.1926  -43.5932 H         1 UNK         0.0600 
    188 H188       -2.5916  -11.8525  -43.2929 H         1 UNK         0.0600 
    189 H189       -0.2876  -11.3203  -44.9760 H         1 UNK         0.3000 
    190 H190       -1.1174  -21.6624  -45.7759 H         1 UNK         0.3000 
    191 H191       -3.9399  -21.5828  -46.1838 H         1 UNK         0.0600 
    192 H192       -2.7551  -20.2761  -44.4186 H         1 UNK         0.0600 
    193 H193       -4.0325  -21.2678  -43.7291 H         1 UNK         0.0600 
    194 H194       -2.3553  -21.7670  -43.5688 H         1 UNK         0.0600 
    195 H195       -1.8145  -24.0688  -44.6576 H         1 UNK         0.3000 
    196 H196       -3.8764  -25.9295  -44.0432 H         1 UNK         0.0600 
    197 H197       -1.9613  -27.5214  -43.7607 H         1 UNK         0.0600 
    198 H198       -1.6619  -25.9898  -42.9543 H         1 UNK         0.0600 
    199 H199       -0.8732  -26.3452  -44.4900 H         1 UNK         0.0600 
    200 H200       -1.7658  -25.5873  -46.9252 H         1 UNK         0.3000 
    201 H201       -2.8094  -27.8610  -48.3377 H         1 UNK         0.0600 
    202 H202       -1.5863  -26.8555  -50.2586 H         1 UNK         0.0600 
    203 H203       -0.5841  -26.8359  -48.8157 H         1 UNK         0.0600 
    204 H204       -1.3709  -25.3562  -49.3655 H         1 UNK         0.0600 
    205 H205       -4.0174  -24.6648  -47.8428 H         1 UNK         0.3000 
    206 H206       -5.7017  -23.4231  -48.5196 H         1 UNK         0.0600 
    207 H207       -7.1300  -25.4221  -48.0038 H         1 UNK         0.0600 
    208 H208       -7.8004  -24.4407  -49.2964 H         1 UNK         0.0600 
    209 H209       -6.9906  -25.9536  -49.6794 H         1 UNK         0.0600 
    210 H210       -3.5724  -23.0728  -49.9079 H         1 UNK         0.3000 
    211 H211       -3.2658  -23.7734  -52.5202 H         1 UNK         0.0600 
    212 H212       -1.7233  -21.7908  -52.6662 H         1 UNK         0.0600 
    213 H213       -1.5218  -22.6804  -51.1656 H         1 UNK         0.0600 
    214 H214       -2.4120  -21.1566  -51.1812 H         1 UNK         0.0600 
    215 H215       -5.2218  -21.0064  -51.4313 H         1 UNK         0.3000 
    216 H216       -5.6600  -19.9020  -54.0544 H         1 UNK         0.0600 
    217 H217       -5.8347  -18.5291  -52.0053 H         1 UNK         0.0600 
    218 H218       -7.1857  -19.5058  -51.4266 H         1 UNK         0.0600 
    219 H219       -7.3632  -18.5155  -52.8707 H         1 UNK         0.0600 
    220 H220       -7.3548  -22.3372  -52.0986 H         1 UNK         0.3000 
    221 H221       -9.7118  -22.4507  -53.8450 H         1 UNK         0.0600 
    222 H222       -8.8586  -24.2237  -51.4945 H         1 UNK         0.0600 
    223 H223       -9.9274  -22.8252  -51.3843 H         1 UNK         0.0600 
    224 H224      -10.4233  -24.2441  -52.2947 H         1 UNK         0.0600 
    225 H225       -6.7348  -24.2872  -53.2046 H         1 UNK         0.3000 
    226 H226       -7.1890  -26.4280  -55.0572 H         1 UNK         0.0600 
    227 H227       -5.6018  -26.5317  -53.1205 H         1 UNK         0.0600 
    228 H228       -4.7763  -26.8824  -54.6320 H         1 UNK         0.0600 
    229 H229       -4.5885  -25.3049  -53.8768 H         1 UNK         0.0600 
    230 H230       -6.4071  -23.1570  -55.5713 H         1 UNK         0.3000 
    231 H231       -5.9288  -21.8609  -57.2739 H         1 UNK         0.0600 
    232 H232       -6.2462  -24.2401  -59.1743 H         1 UNK         0.0600 
    233 H233       -6.3111  -22.5362  -59.5941 H         1 UNK         0.0600 
    234 H234       -7.5712  -23.2331  -58.5899 H         1 UNK         0.0600 
    235 H235       -3.8498  -23.3524  -55.8213 H         1 UNK         0.3000 
    236 H236       -1.5482  -23.6970  -57.5611 H         1 UNK         0.0600 
    237 H237       -1.7580  -23.3397  -54.5227 H         1 UNK         0.0600 
    238 H238       -1.7448  -24.8826  -55.3743 H         1 UNK         0.0600 
    239 H239       -0.3218  -23.8508  -55.3980 H         1 UNK         0.0600 
    240 H240       -3.1065  -21.0441  -55.8916 H         1 UNK         0.3000 
    241 H241       -1.0168  -19.0842  -56.3209 H         1 UNK         0.0600 
    242 H242       -2.9775  -20.6127  -58.7168 H         1 UNK         0.3800 
    243 H243       -2.9207  -19.2919  -59.8510 H         1 UNK         0.3800 
    244 H244       -2.8094  -17.4159  -55.7006 H         1 UNK         0.0800 
    245 H245       -3.9776  -18.7071  -55.6640 H         1 UNK         0.0800 
    246 H246       -0.4018  -17.7285  -54.2761 H         1 UNK         0.0800 
    247 H247       -1.5976  -16.5925  -53.6971 H         1 UNK         0.0800 
@<TRIPOS>BOND
     1    1    2 1    
     2    1  127 1    
     3    1  128 1    
     4    1  129 1    
     5    2    3 2    
     6    2    4 am   BACKBONE|DICT|INTERRES
     7    4    5 1    
     8    4  130 1    
     9    5    6 1    
    10    5   65 1    
    11    5  131 1    
    12    6    7 1    
    13    6  132 1    
    14    6  133 1    
    15    7    8 1    
    16    8    9 1    
    17    8  134 1    
    18    8  135 1    
    19    9   10 ar   
    20    9   14 ar   
    21   10   11 ar   
    22   10  136 1    
    23   11   12 ar   
    24   11  126 1    
    25   12   13 ar   
    26   12  137 1    
    27   13   14 ar   
    28   13   15 1    
    29   14  138 1    
    30   15   16 1    
    31   15  139 1    
    32   15  140 1    
    33   16   17 1    
    34   17   18 1    
    35   17  141 1    
    36   17  142 1    
    37   18   19 1    
    38   18   67 1    
    39   18  143 1    
    40   19   20 am   BACKBONE|DICT|INTERRES
    41   19  144 1    
    42   20   21 2    
    43   20   22 1    
    44   22   23 1    
    45   22   24 1    
    46   22  145 1    
    47   23  146 1    
    48   23  147 1    
    49   23  148 1    
    50   24   25 am   BACKBONE|DICT|INTERRES
    51   24  149 1    
    52   25   26 2    
    53   25   27 1    
    54   27   28 1    
    55   27   29 1    
    56   27  150 1    
    57   28  151 1    
    58   28  152 1    
    59   28  153 1    
    60   29   30 am   BACKBONE|DICT|INTERRES
    61   29  154 1    
    62   30   31 2    
    63   30   32 1    
    64   32   33 1    
    65   32   34 1    
    66   32  155 1    
    67   33  156 1    
    68   33  157 1    
    69   33  158 1    
    70   34   35 am   BACKBONE|DICT|INTERRES
    71   34  159 1    
    72   35   36 2    
    73   35   37 1    
    74   37   38 1    
    75   37   39 1    
    76   37  160 1    
    77   38  161 1    
    78   38  162 1    
    79   38  163 1    
    80   39   40 am   BACKBONE|DICT|INTERRES
    81   39  164 1    
    82   40   41 2    
    83   40   42 1    
    84   42   43 1    
    85   42   44 1    
    86   42  165 1    
    87   43  166 1    
    88   43  167 1    
    89   43  168 1    
    90   44   45 am   BACKBONE|DICT|INTERRES
    91   44  169 1    
    92   45   46 2    
    93   45   47 1    
    94   47   48 1    
    95   47   49 1    
    96   47  170 1    
    97   48  171 1    
    98   48  172 1    
    99   48  173 1    
   100   49   50 am   BACKBONE|DICT|INTERRES
   101   49  174 1    
   102   50   51 2    
   103   50   52 1    
   104   52   53 1    
   105   52   54 1    
   106   52  175 1    
   107   53  176 1    
   108   53  177 1    
   109   53  178 1    
   110   54   55 am   BACKBONE|DICT|INTERRES
   111   54  179 1    
   112   55   56 2    
   113   55   57 1    
   114   57   58 1    
   115   57   59 1    
   116   57  180 1    
   117   58  181 1    
   118   58  182 1    
   119   58  183 1    
   120   59   60 am   BACKBONE|DICT|INTERRES
   121   59  184 1    
   122   60   61 2    
   123   60   62 1    
   124   62   63 1    
   125   62   64 1    
   126   62  185 1    
   127   63  186 1    
   128   63  187 1    
   129   63  188 1    
   130   64   65 am   BACKBONE|DICT|INTERRES
   131   64  189 1    
   132   65   66 2    
   133   67   68 2    
   134   67   69 am   BACKBONE|DICT|INTERRES
   135   69   70 1    
   136   69  190 1    
   137   70   71 1    
   138   70   72 1    
   139   70  191 1    
   140   71  192 1    
   141   71  193 1    
   142   71  194 1    
   143   72   73 2    
   144   72   74 am   BACKBONE|DICT|INTERRES
   145   74   75 1    
   146   74  195 1    
   147   75   76 1    
   148   75   77 1    
   149   75  196 1    
   150   76  197 1    
   151   76  198 1    
   152   76  199 1    
   153   77   78 2    
   154   77   79 am   BACKBONE|DICT|INTERRES
   155   79   80 1    
   156   79  200 1    
   157   80   81 1    
   158   80   82 1    
   159   80  201 1    
   160   81  202 1    
   161   81  203 1    
   162   81  204 1    
   163   82   83 2    
   164   82   84 am   BACKBONE|DICT|INTERRES
   165   84   85 1    
   166   84  205 1    
   167   85   86 1    
   168   85   87 1    
   169   85  206 1    
   170   86  207 1    
   171   86  208 1    
   172   86  209 1    
   173   87   88 2    
   174   87   89 am   BACKBONE|DICT|INTERRES
   175   89   90 1    
   176   89  210 1    
   177   90   91 1    
   178   90   92 1    
   179   90  211 1    
   180   91  212 1    
   181   91  213 1    
   182   91  214 1    
   183   92   93 2    
   184   92   94 am   BACKBONE|DICT|INTERRES
   185   94   95 1    
   186   94  215 1    
   187   95   96 1    
   188   95   97 1    
   189   95  216 1    
   190   96  217 1    
   191   96  218 1    
   192   96  219 1    
   193   97   98 2    
   194   97   99 am   BACKBONE|DICT|INTERRES
   195   99  100 1    
   196   99  220 1    
   197  100  101 1    
   198  100  102 1    
   199  100  221 1    
   200  101  222 1    
   201  101  223 1    
   202  101  224 1    
   203  102  103 2    
   204  102  104 am   BACKBONE|DICT|INTERRES
   205  104  105 1    
   206  104  225 1    
   207  105  106 1    
   208  105  107 1    
   209  105  226 1    
   210  106  227 1    
   211  106  228 1    
   212  106  229 1    
   213  107  108 2    
   214  107  109 am   BACKBONE|DICT|INTERRES
   215  109  110 1    
   216  109  230 1    
   217  110  111 1    
   218  110  112 1    
   219  110  231 1    
   220  111  232 1    
   221  111  233 1    
   222  111  234 1    
   223  112  113 2    
   224  112  114 am   BACKBONE|DICT|INTERRES
   225  114  115 1    
   226  114  235 1    
   227  115  116 1    
   228  115  117 1    
   229  115  236 1    
   230  116  237 1    
   231  116  238 1    
   232  116  239 1    
   233  117  118 2    
   234  117  119 am   BACKBONE|DICT|INTERRES
   235  119  120 1    
   236  119  240 1    
   237  120  121 1    
   238  120  124 1    
   239  120  241 1    
   240  121  122 am   BACKBONE|DICT|INTERRES
   241  121  123 2    
   242  122  242 1    
   243  122  243 1    
   244  124  125 1    
   245  124  244 1    
   246  124  245 1    
   247  125  126 1    
   248  126  246 1    
   249  126  247 1    
@<TRIPOS>SUBSTRUCTURE
     1 UNK         1 GROUP             0       ****    0 ROOT    
