@<TRIPOS>MOLECULE
3R540
247   249    1
SMALL
USER_CHARGES


@<TRIPOS>ATOM
      1 CA         -2.3307  -11.5076  -49.3544 C.3       0 UNK        -0.1800 
      2 C          -0.8987  -11.3223  -48.8741 C.2       0 UNK         0.5000 
      3 O          -0.4963  -10.2051  -48.5479 O.2       0 UNK        -0.5000 
      4 N          -0.1290  -12.4151  -48.8134 N.am      1 UNK        -0.5000 
      5 CA          1.2686  -12.4778  -48.3678 C.3       1 UNK         0.1400 
      6 C6          2.0222  -13.6759  -49.0078 C.3       23 UNK        -0.0398 
      7 S7          1.1871  -15.2867  -48.7890 S.3       23 UNK        -0.2404 
      8 C8          0.2923  -15.4865  -50.3629 C.3       23 UNK        -0.0205 
      9 C9          0.8120  -16.6906  -51.1264 C.ar      23 UNK        -0.0193 
     10 C10         1.7739  -16.5366  -52.1279 C.ar      23 UNK        -0.1150 
     11 C11         2.2558  -17.6506  -52.8219 C.ar      23 UNK        -0.0193 
     12 C12         1.7779  -18.9235  -52.4973 C.ar      23 UNK        -0.1150 
     13 C13         0.8177  -19.0884  -51.4952 C.ar      23 UNK        -0.0193 
     14 C14         0.3299  -17.9658  -50.8219 C.ar      23 UNK        -0.1150 
     15 C15         0.3039  -20.4780  -51.1536 C.3       23 UNK        -0.0205 
     16 S16         1.3108  -21.2518  -49.8517 S.3       23 UNK        -0.2404 
     17 C17         0.5267  -20.5861  -48.3430 C.3       23 UNK        -0.0398 
     18 CA         -0.2162  -21.6769  -47.5390 C.3       11 UNK         0.1400 
     19 N          -0.4614  -21.2583  -46.1575 N.am      11 UNK        -0.5000 
     20 C          -0.8087  -22.0906  -45.1671 C.2       10 UNK         0.5000 
     21 O          -0.9483  -23.3041  -45.3106 O.2       10 UNK        -0.5000 
     22 CA         -1.0883  -21.4539  -43.7959 C.3       10 UNK         0.1400 
     23 CB          0.2189  -21.1946  -43.0378 C.3       10 UNK        -0.1800 
     24 N          -1.8530  -20.2110  -43.8977 N.am      10 UNK        -0.5000 
     25 C          -3.1213  -20.1539  -44.3255 C.2       9 UNK         0.5000 
     26 O          -3.7770  -21.1424  -44.6564 O.2       9 UNK        -0.5000 
     27 CA         -3.7497  -18.7549  -44.4406 C.3       9 UNK         0.1400 
     28 CB         -4.2420  -18.2697  -43.0689 C.3       9 UNK        -0.1800 
     29 N          -2.8584  -17.7452  -45.0156 N.am      9 UNK        -0.5000 
     30 C          -2.2676  -17.8075  -46.2186 C.2       8 UNK         0.5000 
     31 O          -2.3265  -18.7838  -46.9643 O.2       8 UNK        -0.5000 
     32 CA         -1.4793  -16.5681  -46.6750 C.3       8 UNK         0.1400 
     33 CB         -2.3498  -15.6974  -47.5942 C.3       8 UNK        -0.1800 
     34 N          -1.0043  -15.7515  -45.5580 N.am      8 UNK        -0.5000 
     35 C           0.0146  -16.0879  -44.7566 C.2       7 UNK         0.5000 
     36 O           0.7079  -17.0934  -44.9309 O.2       7 UNK        -0.5000 
     37 CA          0.2990  -15.1419  -43.5663 C.3       7 UNK         0.1400 
     38 CB         -0.9555  -14.3923  -43.0635 C.3       7 UNK        -0.1800 
     39 N           0.9632  -15.8080  -42.4420 N.am      7 UNK        -0.5000 
     40 C           0.5462  -16.8912  -41.7646 C.2       6 UNK         0.5000 
     41 O          -0.5080  -17.4861  -42.0015 O.2       6 UNK        -0.5000 
     42 CA          1.4641  -17.3875  -40.6278 C.3       6 UNK         0.1400 
     43 CB          1.4639  -18.9182  -40.4863 C.3       6 UNK        -0.1800 
     44 N           2.8422  -16.9318  -40.8190 N.am      6 UNK        -0.5000 
     45 C           3.5638  -16.2519  -39.9209 C.2       5 UNK         0.5000 
     46 O           3.1729  -15.9877  -38.7831 O.2       5 UNK        -0.5000 
     47 CA          4.9571  -15.7650  -40.3708 C.3       5 UNK         0.1400 
     48 CB          6.0403  -16.7534  -39.9113 C.3       5 UNK        -0.1800 
     49 N           5.1100  -15.5299  -41.8136 N.am      5 UNK        -0.5000 
     50 C           4.3800  -14.6791  -42.5475 C.2       4 UNK         0.5000 
     51 O           3.3779  -14.0971  -42.1260 O.2       4 UNK        -0.5000 
     52 CA          4.8240  -14.4759  -44.0083 C.3       4 UNK         0.1400 
     53 CB          4.1405  -15.4975  -44.9296 C.3       4 UNK        -0.1800 
     54 N           4.5127  -13.1230  -44.4716 N.am      4 UNK        -0.5000 
     55 C           5.1487  -12.0179  -44.0505 C.2       3 UNK         0.5000 
     56 O           6.1367  -12.0448  -43.3146 O.2       3 UNK        -0.5000 
     57 CA          4.6094  -10.6508  -44.5229 C.3       3 UNK         0.1400 
     58 CB          5.4585  -10.1112  -45.6844 C.3       3 UNK        -0.1800 
     59 N           3.2096  -10.6908  -44.9438 N.am      3 UNK        -0.5000 
     60 C           2.1599  -10.8701  -44.1303 C.2       2 UNK         0.5000 
     61 O           2.2471  -10.8926  -42.9028 O.2       2 UNK        -0.5000 
     62 CA          0.7800  -11.0687  -44.7943 C.3       2 UNK         0.1400 
     63 CB         -0.1171   -9.8437  -44.5604 C.3       2 UNK        -0.1800 
     64 N           0.8219  -11.3486  -46.2343 N.am      2 UNK        -0.5000 
     65 C           1.3840  -12.4118  -46.8247 C.2       1 UNK         0.5000 
     66 O           1.9802  -13.2863  -46.1957 O.2       1 UNK        -0.5000 
     67 C          -1.5202  -22.1341  -48.2274 C.2       11 UNK         0.5000 
     68 O          -1.5267  -23.1729  -48.8861 O.2       11 UNK        -0.5000 
     69 N          -2.6105  -21.3854  -48.0101 N.am      12 UNK        -0.5000 
     70 CA         -3.9608  -21.6940  -48.4816 C.3       12 UNK         0.1400 
     71 CB         -4.9011  -20.5468  -48.0749 C.3       12 UNK        -0.1800 
     72 C          -4.4885  -23.0468  -47.9653 C.2       12 UNK         0.5000 
     73 O          -5.1177  -23.7850  -48.7264 O.2       12 UNK        -0.5000 
     74 N          -4.1964  -23.3522  -46.6930 N.am      13 UNK        -0.5000 
     75 CA         -4.4767  -24.6394  -46.0627 C.3       13 UNK         0.1400 
     76 CB         -4.3312  -24.5105  -44.5390 C.3       13 UNK        -0.1800 
     77 C          -3.5777  -25.7626  -46.6103 C.2       13 UNK         0.5000 
     78 O          -4.0897  -26.8259  -46.9619 O.2       13 UNK        -0.5000 
     79 N          -2.2630  -25.5046  -46.6927 N.am      14 UNK        -0.5000 
     80 CA         -1.2504  -26.4483  -47.1785 C.3       14 UNK         0.1400 
     81 CB          0.1524  -25.8556  -46.9823 C.3       14 UNK        -0.1800 
     82 C          -1.4517  -26.8759  -48.6433 C.2       14 UNK         0.5000 
     83 O          -1.1755  -28.0287  -48.9797 O.2       14 UNK        -0.5000 
     84 N          -1.9746  -25.9679  -49.4776 N.am      15 UNK        -0.5000 
     85 CA         -2.3758  -26.1959  -50.8670 C.3       15 UNK         0.1400 
     86 CB         -2.4922  -24.8332  -51.5748 C.3       15 UNK        -0.1800 
     87 C          -3.6731  -27.0296  -50.9798 C.2       15 UNK         0.5000 
     88 O          -4.6337  -26.5937  -51.6153 O.2       15 UNK        -0.5000 
     89 N          -3.6897  -28.2049  -50.3331 N.am      16 UNK        -0.5000 
     90 CA         -4.7614  -29.2105  -50.2959 C.3       16 UNK         0.1400 
     91 CB         -4.8602  -29.9148  -51.6647 C.3       16 UNK        -0.1800 
     92 C          -6.1287  -28.6693  -49.8183 C.2       16 UNK         0.5000 
     93 O          -7.1682  -29.2080  -50.2028 O.2       16 UNK        -0.5000 
     94 N          -6.1020  -27.5919  -49.0190 N.am      17 UNK        -0.5000 
     95 CA         -7.2367  -26.7735  -48.5795 C.3       17 UNK         0.1400 
     96 CB         -8.1264  -27.5603  -47.5957 C.3       17 UNK        -0.1800 
     97 C          -8.0420  -26.1341  -49.7362 C.2       17 UNK         0.5000 
     98 O          -9.1971  -25.7552  -49.5346 O.2       17 UNK        -0.5000 
     99 N          -7.4296  -26.0076  -50.9238 N.am      18 UNK        -0.5000 
    100 CA        -8.0464  -25.4362  -52.1236 C.3       18 UNK         0.1400 
    101 CB        -7.3319  -25.9894  -53.3671 C.3       18 UNK        -0.1800 
    102 C         -8.0253  -23.8963  -52.1324 C.2       18 UNK         0.5000 
    103 O         -8.7053  -23.2925  -52.9629 O.2       18 UNK        -0.5000 
    104 N         -7.2449  -23.2949  -51.2218 N.am      19 UNK        -0.5000 
    105 CA        -7.0547  -21.8559  -51.0292 C.3       19 UNK         0.1400 
    106 CB        -8.3611  -21.1721  -50.5757 C.3       19 UNK        -0.1800 
    107 C         -6.3725  -21.1542  -52.2205 C.2       19 UNK         0.5000 
    108 O         -6.6451  -19.9825  -52.4887 O.2       19 UNK        -0.5000 
    109 N         -5.4766  -21.8800  -52.9019 N.am      20 UNK        -0.5000 
    110 CA        -4.5995  -21.3449  -53.9406 C.3       20 UNK         0.1400 
    111 CB        -3.9757  -22.5138  -54.7179 C.3       20 UNK        -0.1800 
    112 C         -3.5040  -20.4548  -53.3251 C.2       20 UNK         0.5000 
    113 O         -3.0177  -20.7523  -52.2315 O.2       20 UNK        -0.5000 
    114 N         -3.1245  -19.3972  -54.0464 N.am      21 UNK        -0.5000 
    115 CA        -2.0986  -18.4342  -53.6633 C.3       21 UNK         0.1400 
    116 CB        -2.6491  -17.4684  -52.5954 C.3       21 UNK        -0.1800 
    117 C         -1.6341  -17.6737  -54.9123 C.2       21 UNK         0.5000 
    118 O         -2.3359  -17.6806  -55.9279 O.2       21 UNK        -0.5000 
    119 N         -0.4699  -17.0223  -54.8118 N.am      22 UNK        -0.5000 
    120 CA         0.1300  -16.2139  -55.8895 C.3       22 UNK         0.1400 
    121 C         -0.5646  -14.8415  -56.1413 C.2       22 UNK         0.5000 
    122 N         -1.4735  -14.3830  -55.2890 N.am      22 UNK        -0.7600 
    123 O         -0.2761  -14.1811  -57.1356 O.2       22 UNK        -0.5000 
    124 C124        1.6565  -16.0187  -55.6950 C.3       23 UNK        -0.0398 
    125 S125        2.5757  -17.5931  -55.5796 S.3       23 UNK        -0.2404 
    126 C126        3.3028  -17.4877  -53.9128 C.3       23 UNK        -0.0205 
    127 H127       -3.0295  -11.1883  -48.5812 H         1 UNK         0.0600 
    128 H128       -2.5080  -10.9057  -50.2457 H         1 UNK         0.0600 
    129 H129       -2.5455  -12.5485  -49.5981 H         1 UNK         0.0600 
    130 H130       -0.5274  -13.3090  -49.0582 H         1 UNK         0.3000 
    131 H131        1.7698  -11.5781  -48.7315 H         1 UNK         0.0600 
    132 H132        2.1652  -13.4899  -50.0727 H         1 UNK         0.0800 
    133 H133        3.0314  -13.7563  -48.5999 H         1 UNK         0.0800 
    134 H134       -0.7692  -15.6211  -50.1529 H         1 UNK         0.0800 
    135 H135        0.3642  -14.5877  -50.9766 H         1 UNK         0.0800 
    136 H136        2.1513  -15.5507  -52.3605 H         1 UNK         0.1150 
    137 H137        2.1556  -19.7874  -53.0264 H         1 UNK         0.1150 
    138 H138       -0.4212  -18.0793  -50.0538 H         1 UNK         0.1150 
    139 H139       -0.7421  -20.4371  -50.8459 H         1 UNK         0.0800 
    140 H140        0.3298  -21.1105  -52.0422 H         1 UNK         0.0800 
    141 H141       -0.1389  -19.7553  -48.5757 H         1 UNK         0.0800 
    142 H142        1.3276  -20.1612  -47.7363 H         1 UNK         0.0800 
    143 H143        0.4413  -22.5471  -47.4857 H         1 UNK         0.0600 
    144 H144       -0.4256  -20.2675  -45.9665 H         1 UNK         0.3000 
    145 H145       -1.6774  -22.1687  -43.2172 H         1 UNK         0.0600 
    146 H146        0.0111  -20.9028  -42.0097 H         1 UNK         0.0600 
    147 H147        0.8375  -22.0923  -42.9996 H         1 UNK         0.0600 
    148 H148        0.8087  -20.4044  -43.5044 H         1 UNK         0.0600 
    149 H149       -1.3856  -19.3529  -43.6357 H         1 UNK         0.3000 
    150 H150       -4.6152  -18.8377  -45.1005 H         1 UNK         0.0600 
    151 H151       -4.9177  -18.9966  -42.6161 H         1 UNK         0.0600 
    152 H152       -4.7881  -17.3302  -43.1549 H         1 UNK         0.0600 
    153 H153       -3.4136  -18.1143  -42.3760 H         1 UNK         0.0600 
    154 H154       -2.7196  -16.9106  -44.4665 H         1 UNK         0.3000 
    155 H155       -0.6187  -16.9242  -47.2435 H         1 UNK         0.0600 
    156 H156       -1.8039  -14.8221  -47.9440 H         1 UNK         0.0600 
    157 H157       -3.2492  -15.3478  -47.0857 H         1 UNK         0.0600 
    158 H158       -2.6675  -16.2577  -48.4747 H         1 UNK         0.0600 
    159 H159       -1.5184  -14.9048  -45.3653 H         1 UNK         0.3000 
    160 H160        1.0065  -14.3969  -43.9311 H         1 UNK         0.0600 
    161 H161       -0.7141  -13.7627  -42.2068 H         1 UNK         0.0600 
    162 H162       -1.7426  -15.0815  -42.7552 H         1 UNK         0.0600 
    163 H163       -1.3680  -13.7341  -43.8285 H         1 UNK         0.0600 
    164 H164        1.8346  -15.3748  -42.1537 H         1 UNK         0.3000 
    165 H165        1.0487  -16.9663  -39.7104 H         1 UNK         0.0600 
    166 H166        2.0827  -19.2337  -39.6463 H         1 UNK         0.0600 
    167 H167        0.4579  -19.2970  -40.3035 H         1 UNK         0.0600 
    168 H168        1.8504  -19.4003  -41.3841 H         1 UNK         0.0600 
    169 H169        3.2478  -17.1045  -41.7279 H         1 UNK         0.3000 
    170 H170        5.1357  -14.8110  -39.8705 H         1 UNK         0.0600 
    171 H171        5.9781  -16.9318  -38.8368 H         1 UNK         0.0600 
    172 H172        5.9409  -17.7183  -40.4102 H         1 UNK         0.0600 
    173 H173        7.0397  -16.3692  -40.1165 H         1 UNK         0.0600 
    174 H174        5.8977  -15.9876  -42.2499 H         1 UNK         0.3000 
    175 H175        5.9045  -14.6209  -44.0721 H         1 UNK         0.0600 
    176 H176        4.4471  -15.3619  -45.9670 H         1 UNK         0.0600 
    177 H177        4.3974  -16.5183  -44.6446 H         1 UNK         0.0600 
    178 H178        3.0550  -15.4122  -44.8919 H         1 UNK         0.0600 
    179 H179        3.6824  -13.0272  -45.0458 H         1 UNK         0.3000 
    180 H180        4.6941   -9.9565  -43.6844 H         1 UNK         0.0600 
    181 H181        5.4021  -10.7600  -46.5594 H         1 UNK         0.0600 
    182 H182        6.5086  -10.0360  -45.3988 H         1 UNK         0.0600 
    183 H183        5.1326   -9.1144  -45.9824 H         1 UNK         0.0600 
    184 H184        3.0359  -10.6672  -45.9371 H         1 UNK         0.3000 
    185 H185        0.3166  -11.9275  -44.3065 H         1 UNK         0.0600 
    186 H186       -1.1232  -10.0123  -44.9450 H         1 UNK         0.0600 
    187 H187       -0.2108   -9.6219  -43.4965 H         1 UNK         0.0600 
    188 H188        0.2844   -8.9546  -45.0481 H         1 UNK         0.0600 
    189 H189        0.3491  -10.6838  -46.8399 H         1 UNK         0.3000 
    190 H190       -2.5081  -20.5176  -47.4876 H         1 UNK         0.3000 
    191 H191       -3.9269  -21.7480  -49.5718 H         1 UNK         0.0600 
    192 H192       -4.8368  -20.3389  -47.0079 H         1 UNK         0.0600 
    193 H193       -5.9450  -20.7753  -48.2857 H         1 UNK         0.0600 
    194 H194       -4.6508  -19.6289  -48.6073 H         1 UNK         0.0600 
    195 H195       -3.7313  -22.6566  -46.1203 H         1 UNK         0.3000 
    196 H196       -5.5136  -24.9044  -46.2768 H         1 UNK         0.0600 
    197 H197       -3.3227  -24.2120  -44.2512 H         1 UNK         0.0600 
    198 H198       -4.5483  -25.4578  -44.0441 H         1 UNK         0.0600 
    199 H199       -5.0232  -23.7684  -44.1402 H         1 UNK         0.0600 
    200 H200       -1.9143  -24.6140  -46.3493 H         1 UNK         0.3000 
    201 H201       -1.3248  -27.3483  -46.5649 H         1 UNK         0.0600 
    202 H202        0.2798  -24.9336  -47.5492 H         1 UNK         0.0600 
    203 H203        0.9221  -26.5535  -47.3140 H         1 UNK         0.0600 
    204 H204        0.3458  -25.6361  -45.9323 H         1 UNK         0.0600 
    205 H205       -2.1053  -25.0228  -49.1274 H         1 UNK         0.3000 
    206 H206       -1.5871  -26.7630  -51.3648 H         1 UNK         0.0600 
    207 H207       -1.5518  -24.2833  -51.5320 H         1 UNK         0.0600 
    208 H208       -2.7450  -24.9607  -52.6276 H         1 UNK         0.0600 
    209 H209       -3.2629  -24.2084  -51.1206 H         1 UNK         0.0600 
    210 H210       -2.8512  -28.4380  -49.8076 H         1 UNK         0.3000 
    211 H211       -4.4570  -29.9543  -49.5585 H         1 UNK         0.0600 
    212 H212       -5.2156  -29.2359  -52.4408 H         1 UNK         0.0600 
    213 H213       -5.5497  -30.7589  -51.6259 H         1 UNK         0.0600 
    214 H214       -3.8920  -30.3051  -51.9784 H         1 UNK         0.0600 
    215 H215       -5.1951  -27.2619  -48.7073 H         1 UNK         0.3000 
    216 H216       -6.8030  -25.9380  -48.0302 H         1 UNK         0.0600 
    217 H217       -7.5354  -27.9805  -46.7818 H         1 UNK         0.0600 
    218 H218       -8.8810  -26.9144  -47.1455 H         1 UNK         0.0600 
    219 H219       -8.6499  -28.3795  -48.0892 H         1 UNK         0.0600 
    220 H220       -6.4681  -26.3238  -51.0234 H         1 UNK         0.3000 
    221 H221       -9.0907  -25.7527  -52.1662 H         1 UNK         0.0600 
    222 H222       -6.3037  -25.6326  -53.4341 H         1 UNK         0.0600 
    223 H223       -7.3096  -27.0795  -53.3595 H         1 UNK         0.0600 
    224 H224       -7.8430  -25.6802  -54.2796 H         1 UNK         0.0600 
    225 H225       -6.7199  -23.8893  -50.5928 H         1 UNK         0.3000 
    226 H226       -6.3457  -21.7744  -50.2111 H         1 UNK         0.0600 
    227 H227       -8.7961  -21.6845  -49.7176 H         1 UNK         0.0600 
    228 H228       -8.1780  -20.1395  -50.2762 H         1 UNK         0.0600 
    229 H229       -9.1071  -21.1537  -51.3705 H         1 UNK         0.0600 
    230 H230       -5.2937  -22.8247  -52.5988 H         1 UNK         0.3000 
    231 H231       -5.2008  -20.7484  -54.6302 H         1 UNK         0.0600 
    232 H232       -4.7431  -23.1551  -55.1521 H         1 UNK         0.0600 
    233 H233       -3.3442  -23.1302  -54.0779 H         1 UNK         0.0600 
    234 H234       -3.3544  -22.1494  -55.5369 H         1 UNK         0.0600 
    235 H235       -3.5253  -19.2255  -54.9608 H         1 UNK         0.3000 
    236 H236       -1.2416  -18.9783  -53.2672 H         1 UNK         0.0600 
    237 H237       -1.9225  -16.6954  -52.3454 H         1 UNK         0.0600 
    238 H238       -3.5550  -16.9677  -52.9388 H         1 UNK         0.0600 
    239 H239       -2.8878  -17.9942  -51.6707 H         1 UNK         0.0600 
    240 H240        0.0619  -17.0803  -53.9546 H         1 UNK         0.3000 
    241 H241        0.0001  -16.7754  -56.8168 H         1 UNK         0.0600 
    242 H242       -1.9175  -13.4961  -55.4690 H         1 UNK         0.3800 
    243 H243       -1.7285  -14.9150  -54.4737 H         1 UNK         0.3800 
    244 H244        2.0768  -15.4682  -56.5386 H         1 UNK         0.0800 
    245 H245        1.8519  -15.4052  -54.8149 H         1 UNK         0.0800 
    246 H246        4.0545  -18.2715  -53.8083 H         1 UNK         0.0800 
    247 H247        3.8361  -16.5420  -53.8032 H         1 UNK         0.0800 
@<TRIPOS>BOND
     1    1    2 1    
     2    1  127 1    
     3    1  128 1    
     4    1  129 1    
     5    2    3 2    
     6    2    4 am   BACKBONE|DICT|INTERRES
     7    4    5 1    
     8    4  130 1    
     9    5    6 1    
    10    5   65 1    
    11    5  131 1    
    12    6    7 1    
    13    6  132 1    
    14    6  133 1    
    15    7    8 1    
    16    8    9 1    
    17    8  134 1    
    18    8  135 1    
    19    9   10 ar   
    20    9   14 ar   
    21   10   11 ar   
    22   10  136 1    
    23   11   12 ar   
    24   11  126 1    
    25   12   13 ar   
    26   12  137 1    
    27   13   14 ar   
    28   13   15 1    
    29   14  138 1    
    30   15   16 1    
    31   15  139 1    
    32   15  140 1    
    33   16   17 1    
    34   17   18 1    
    35   17  141 1    
    36   17  142 1    
    37   18   19 1    
    38   18   67 1    
    39   18  143 1    
    40   19   20 am   BACKBONE|DICT|INTERRES
    41   19  144 1    
    42   20   21 2    
    43   20   22 1    
    44   22   23 1    
    45   22   24 1    
    46   22  145 1    
    47   23  146 1    
    48   23  147 1    
    49   23  148 1    
    50   24   25 am   BACKBONE|DICT|INTERRES
    51   24  149 1    
    52   25   26 2    
    53   25   27 1    
    54   27   28 1    
    55   27   29 1    
    56   27  150 1    
    57   28  151 1    
    58   28  152 1    
    59   28  153 1    
    60   29   30 am   BACKBONE|DICT|INTERRES
    61   29  154 1    
    62   30   31 2    
    63   30   32 1    
    64   32   33 1    
    65   32   34 1    
    66   32  155 1    
    67   33  156 1    
    68   33  157 1    
    69   33  158 1    
    70   34   35 am   BACKBONE|DICT|INTERRES
    71   34  159 1    
    72   35   36 2    
    73   35   37 1    
    74   37   38 1    
    75   37   39 1    
    76   37  160 1    
    77   38  161 1    
    78   38  162 1    
    79   38  163 1    
    80   39   40 am   BACKBONE|DICT|INTERRES
    81   39  164 1    
    82   40   41 2    
    83   40   42 1    
    84   42   43 1    
    85   42   44 1    
    86   42  165 1    
    87   43  166 1    
    88   43  167 1    
    89   43  168 1    
    90   44   45 am   BACKBONE|DICT|INTERRES
    91   44  169 1    
    92   45   46 2    
    93   45   47 1    
    94   47   48 1    
    95   47   49 1    
    96   47  170 1    
    97   48  171 1    
    98   48  172 1    
    99   48  173 1    
   100   49   50 am   BACKBONE|DICT|INTERRES
   101   49  174 1    
   102   50   51 2    
   103   50   52 1    
   104   52   53 1    
   105   52   54 1    
   106   52  175 1    
   107   53  176 1    
   108   53  177 1    
   109   53  178 1    
   110   54   55 am   BACKBONE|DICT|INTERRES
   111   54  179 1    
   112   55   56 2    
   113   55   57 1    
   114   57   58 1    
   115   57   59 1    
   116   57  180 1    
   117   58  181 1    
   118   58  182 1    
   119   58  183 1    
   120   59   60 am   BACKBONE|DICT|INTERRES
   121   59  184 1    
   122   60   61 2    
   123   60   62 1    
   124   62   63 1    
   125   62   64 1    
   126   62  185 1    
   127   63  186 1    
   128   63  187 1    
   129   63  188 1    
   130   64   65 am   BACKBONE|DICT|INTERRES
   131   64  189 1    
   132   65   66 2    
   133   67   68 2    
   134   67   69 am   BACKBONE|DICT|INTERRES
   135   69   70 1    
   136   69  190 1    
   137   70   71 1    
   138   70   72 1    
   139   70  191 1    
   140   71  192 1    
   141   71  193 1    
   142   71  194 1    
   143   72   73 2    
   144   72   74 am   BACKBONE|DICT|INTERRES
   145   74   75 1    
   146   74  195 1    
   147   75   76 1    
   148   75   77 1    
   149   75  196 1    
   150   76  197 1    
   151   76  198 1    
   152   76  199 1    
   153   77   78 2    
   154   77   79 am   BACKBONE|DICT|INTERRES
   155   79   80 1    
   156   79  200 1    
   157   80   81 1    
   158   80   82 1    
   159   80  201 1    
   160   81  202 1    
   161   81  203 1    
   162   81  204 1    
   163   82   83 2    
   164   82   84 am   BACKBONE|DICT|INTERRES
   165   84   85 1    
   166   84  205 1    
   167   85   86 1    
   168   85   87 1    
   169   85  206 1    
   170   86  207 1    
   171   86  208 1    
   172   86  209 1    
   173   87   88 2    
   174   87   89 am   BACKBONE|DICT|INTERRES
   175   89   90 1    
   176   89  210 1    
   177   90   91 1    
   178   90   92 1    
   179   90  211 1    
   180   91  212 1    
   181   91  213 1    
   182   91  214 1    
   183   92   93 2    
   184   92   94 am   BACKBONE|DICT|INTERRES
   185   94   95 1    
   186   94  215 1    
   187   95   96 1    
   188   95   97 1    
   189   95  216 1    
   190   96  217 1    
   191   96  218 1    
   192   96  219 1    
   193   97   98 2    
   194   97   99 am   BACKBONE|DICT|INTERRES
   195   99  100 1    
   196   99  220 1    
   197  100  101 1    
   198  100  102 1    
   199  100  221 1    
   200  101  222 1    
   201  101  223 1    
   202  101  224 1    
   203  102  103 2    
   204  102  104 am   BACKBONE|DICT|INTERRES
   205  104  105 1    
   206  104  225 1    
   207  105  106 1    
   208  105  107 1    
   209  105  226 1    
   210  106  227 1    
   211  106  228 1    
   212  106  229 1    
   213  107  108 2    
   214  107  109 am   BACKBONE|DICT|INTERRES
   215  109  110 1    
   216  109  230 1    
   217  110  111 1    
   218  110  112 1    
   219  110  231 1    
   220  111  232 1    
   221  111  233 1    
   222  111  234 1    
   223  112  113 2    
   224  112  114 am   BACKBONE|DICT|INTERRES
   225  114  115 1    
   226  114  235 1    
   227  115  116 1    
   228  115  117 1    
   229  115  236 1    
   230  116  237 1    
   231  116  238 1    
   232  116  239 1    
   233  117  118 2    
   234  117  119 am   BACKBONE|DICT|INTERRES
   235  119  120 1    
   236  119  240 1    
   237  120  121 1    
   238  120  124 1    
   239  120  241 1    
   240  121  122 am   BACKBONE|DICT|INTERRES
   241  121  123 2    
   242  122  242 1    
   243  122  243 1    
   244  124  125 1    
   245  124  244 1    
   246  124  245 1    
   247  125  126 1    
   248  126  246 1    
   249  126  247 1    
@<TRIPOS>SUBSTRUCTURE
     1 UNK         1 GROUP             0       ****    0 ROOT    
