@<TRIPOS>MOLECULE
3R540
247   249    1
SMALL
USER_CHARGES


@<TRIPOS>ATOM
      1 CA         -1.2889  -12.3539  -50.1927 C.3       0 UNK        -0.1800 
      2 C          -0.3304  -13.1572  -49.3262 C.2       0 UNK         0.5000 
      3 O          -0.6727  -13.5021  -48.1964 O.2       0 UNK        -0.5000 
      4 N           0.8751  -13.4359  -49.8404 N.am      1 UNK        -0.5000 
      5 CA          1.9339  -14.2974  -49.2807 C.3       1 UNK         0.1400 
      6 C6          1.4964  -15.7736  -49.1127 C.3       23 UNK        -0.0398 
      7 S7          0.9996  -16.5507  -50.6885 S.3       23 UNK        -0.2404 
      8 C8         -0.2577  -17.7333  -50.1172 C.3       23 UNK        -0.0205 
      9 C9         -1.6670  -17.1743  -50.2203 C.ar      23 UNK        -0.0193 
     10 C10        -2.4989  -17.5734  -51.2689 C.ar      23 UNK        -0.1150 
     11 C11        -3.8219  -17.1296  -51.3346 C.ar      23 UNK        -0.0193 
     12 C12        -4.3012  -16.2515  -50.3588 C.ar      23 UNK        -0.1150 
     13 C13        -3.4729  -15.8262  -49.3159 C.ar      23 UNK        -0.0193 
     14 C14        -2.1600  -16.2985  -49.2493 C.ar      23 UNK        -0.1150 
     15 C15        -4.0126  -14.8801  -48.2490 C.3       23 UNK        -0.0205 
     16 S16        -3.9674  -15.5784  -46.5613 S.3       23 UNK        -0.2404 
     17 C17        -4.6784  -17.2413  -46.7991 C.3       23 UNK        -0.0398 
     18 CA         -3.6819  -18.3364  -46.3415 C.3       11 UNK         0.1400 
     19 N          -3.7816  -18.5694  -44.8968 N.am      11 UNK        -0.5000 
     20 C          -2.9972  -19.3824  -44.1805 C.2       10 UNK         0.5000 
     21 O          -2.0277  -19.9930  -44.6394 O.2       10 UNK        -0.5000 
     22 CA         -3.4333  -19.6090  -42.7283 C.3       10 UNK         0.1400 
     23 CB         -4.3990  -20.8090  -42.6502 C.3       10 UNK        -0.1800 
     24 N          -2.2558  -19.8238  -41.8978 N.am      10 UNK        -0.5000 
     25 C          -2.2316  -19.8688  -40.5604 C.2       9 UNK         0.5000 
     26 O          -3.2421  -19.7714  -39.8616 O.2       9 UNK        -0.5000 
     27 CA         -0.8548  -19.9966  -39.8752 C.3       9 UNK         0.1400 
     28 CB         -0.8831  -20.9315  -38.6482 C.3       9 UNK        -0.1800 
     29 N           0.2400  -20.3414  -40.7861 N.am      9 UNK        -0.5000 
     30 C           0.4762  -21.4989  -41.4194 C.2       8 UNK         0.5000 
     31 O          -0.2237  -22.5048  -41.3049 O.2       8 UNK        -0.5000 
     32 CA          1.7003  -21.5338  -42.3582 C.3       8 UNK         0.1400 
     33 CB          1.2435  -21.5126  -43.8223 C.3       8 UNK        -0.1800 
     34 N           2.6321  -20.4230  -42.1382 N.am      8 UNK        -0.5000 
     35 C           3.4637  -20.3289  -41.0908 C.2       7 UNK         0.5000 
     36 O           3.5808  -21.2027  -40.2309 O.2       7 UNK        -0.5000 
     37 CA          4.2788  -19.0289  -40.9645 C.3       7 UNK         0.1400 
     38 CB          5.5340  -19.0916  -41.8475 C.3       7 UNK        -0.1800 
     39 N           3.5035  -17.8296  -41.2927 N.am      7 UNK        -0.5000 
     40 C           2.4577  -17.3751  -40.5862 C.2       6 UNK         0.5000 
     41 O           2.0381  -17.9153  -39.5631 O.2       6 UNK        -0.5000 
     42 CA          1.7283  -16.1331  -41.1344 C.3       6 UNK         0.1400 
     43 CB          2.4834  -14.8444  -40.7772 C.3       6 UNK        -0.1800 
     44 N           1.5196  -16.1986  -42.5807 N.am      6 UNK        -0.5000 
     45 C           0.7458  -17.1069  -43.1917 C.2       5 UNK         0.5000 
     46 O           0.0748  -17.9475  -42.5951 O.2       5 UNK        -0.5000 
     47 CA          0.7687  -17.1138  -44.7279 C.3       5 UNK         0.1400 
     48 CB         -0.2354  -16.1060  -45.3059 C.3       5 UNK        -0.1800 
     49 N           2.1139  -16.8632  -45.2553 N.am      5 UNK        -0.5000 
     50 C           3.1313  -17.7315  -45.1402 C.2       4 UNK         0.5000 
     51 O           3.0143  -18.8526  -44.6466 O.2       4 UNK        -0.5000 
     52 CA          4.5251  -17.2535  -45.5887 C.3       4 UNK         0.1400 
     53 CB          4.7681  -17.5231  -47.0795 C.3       4 UNK        -0.1800 
     54 N           4.7577  -15.8395  -45.2918 N.am      4 UNK        -0.5000 
     55 C           4.9574  -15.3741  -44.0503 C.2       3 UNK         0.5000 
     56 O           4.9868  -16.0946  -43.0542 O.2       3 UNK        -0.5000 
     57 CA          5.1086  -13.8522  -43.8749 C.3       3 UNK         0.1400 
     58 CB          6.5842  -13.4427  -43.9883 C.3       3 UNK        -0.1800 
     59 N           4.3169  -13.0646  -44.8194 N.am      3 UNK        -0.5000 
     60 C           2.9854  -13.1196  -44.9567 C.2       2 UNK         0.5000 
     61 O           2.2632  -13.8714  -44.3001 O.2       2 UNK        -0.5000 
     62 CA          2.3530  -12.2026  -46.0224 C.3       2 UNK         0.1400 
     63 CB          3.2585  -11.0266  -46.4508 C.3       2 UNK        -0.1800 
     64 N           1.9057  -12.9410  -47.2057 N.am      2 UNK        -0.5000 
     65 C           2.6098  -13.7684  -47.9905 C.2       1 UNK         0.5000 
     66 O           3.7697  -14.1086  -47.7494 O.2       1 UNK        -0.5000 
     67 C          -3.8953  -19.6375  -47.1378 C.2       11 UNK         0.5000 
     68 O          -3.1086  -19.9402  -48.0338 O.2       11 UNK        -0.5000 
     69 N          -4.9272  -20.4079  -46.7615 N.am      12 UNK        -0.5000 
     70 CA         -5.2659  -21.6883  -47.3837 C.3       12 UNK         0.1400 
     71 CB         -6.6184  -22.1803  -46.8501 C.3       12 UNK        -0.1800 
     72 C          -4.1839  -22.7640  -47.1862 C.2       12 UNK         0.5000 
     73 O          -3.9886  -23.5863  -48.0811 O.2       12 UNK        -0.5000 
     74 N          -3.4883  -22.7241  -46.0409 N.am      13 UNK        -0.5000 
     75 CA         -2.3698  -23.6111  -45.7273 C.3       13 UNK         0.1400 
     76 CB         -2.0568  -23.5547  -44.2249 C.3       13 UNK        -0.1800 
     77 C          -1.1285  -23.2809  -46.5714 C.2       13 UNK         0.5000 
     78 O          -0.5339  -24.1925  -47.1458 O.2       13 UNK        -0.5000 
     79 N          -0.7924  -21.9868  -46.6820 N.am      14 UNK        -0.5000 
     80 CA          0.3061  -21.4936  -47.5196 C.3       14 UNK         0.1400 
     81 CB          0.5738  -20.0176  -47.2054 C.3       14 UNK        -0.1800 
     82 C           0.0659  -21.7044  -49.0268 C.2       14 UNK         0.5000 
     83 O           1.0149  -21.9810  -49.7604 O.2       14 UNK        -0.5000 
     84 N          -1.2012  -21.6178  -49.4517 N.am      15 UNK        -0.5000 
     85 CA         -1.6603  -21.9444  -50.8030 C.3       15 UNK         0.1400 
     86 CB         -3.0577  -21.3415  -51.0021 C.3       15 UNK        -0.1800 
     87 C          -1.6803  -23.4594  -51.1075 C.2       15 UNK         0.5000 
     88 O          -1.8597  -23.8237  -52.2676 O.2       15 UNK        -0.5000 
     89 N          -1.4934  -24.3053  -50.0818 N.am      16 UNK        -0.5000 
     90 CA         -1.5178  -25.7702  -50.1128 C.3       16 UNK         0.1400 
     91 CB         -0.4078  -26.3367  -51.0240 C.3       16 UNK        -0.1800 
     92 C          -2.9233  -26.3114  -50.4402 C.2       16 UNK         0.5000 
     93 O          -3.1226  -26.9560  -51.4711 O.2       16 UNK        -0.5000 
     94 N          -3.8607  -26.0292  -49.5252 N.am      17 UNK        -0.5000 
     95 CA         -5.2892  -26.3574  -49.5535 C.3       17 UNK         0.1400 
     96 CB         -5.5427  -27.8686  -49.7459 C.3       17 UNK        -0.1800 
     97 C          -6.0670  -25.4590  -50.5334 C.2       17 UNK         0.5000 
     98 O          -6.8876  -25.9511  -51.3109 O.2       17 UNK        -0.5000 
     99 N          -5.8034  -24.1467  -50.4358 N.am      18 UNK        -0.5000 
    100 CA        -6.4049  -23.0496  -51.2060 C.3       18 UNK         0.1400 
    101 CB        -7.9267  -22.9761  -50.9508 C.3       18 UNK        -0.1800 
    102 C         -6.0502  -23.0770  -52.7107 C.2       18 UNK         0.5000 
    103 O         -5.2335  -23.8906  -53.1456 O.2       18 UNK        -0.5000 
    104 N         -6.6518  -22.1487  -53.4710 N.am      19 UNK        -0.5000 
    105 CA        -6.4192  -21.8884  -54.8962 C.3       19 UNK         0.1400 
    106 CB        -6.9151  -23.0674  -55.7642 C.3       19 UNK        -0.1800 
    107 C         -4.9581  -21.4649  -55.1567 C.2       19 UNK         0.5000 
    108 O         -4.5188  -20.4791  -54.5610 O.2       19 UNK        -0.5000 
    109 N         -4.2443  -22.1886  -56.0331 N.am      20 UNK        -0.5000 
    110 CA        -2.8452  -21.9826  -56.4238 C.3       20 UNK         0.1400 
    111 CB        -1.9009  -22.3622  -55.2623 C.3       20 UNK        -0.1800 
    112 C         -2.6186  -20.5615  -56.9750 C.2       20 UNK         0.5000 
    113 O         -3.0996  -20.2604  -58.0689 O.2       20 UNK        -0.5000 
    114 N         -1.9515  -19.7009  -56.1933 N.am      21 UNK        -0.5000 
    115 CA        -1.7264  -18.2808  -56.4774 C.3       21 UNK         0.1400 
    116 CB        -0.8724  -17.6807  -55.3492 C.3       21 UNK        -0.1800 
    117 C         -3.0231  -17.4639  -56.6575 C.2       21 UNK         0.5000 
    118 O         -3.0094  -16.4649  -57.3780 O.2       21 UNK        -0.5000 
    119 N         -4.1130  -17.9144  -56.0243 N.am      22 UNK        -0.5000 
    120 CA        -5.4641  -17.3497  -56.1585 C.3       22 UNK         0.1400 
    121 C         -6.3280  -18.0688  -57.2377 C.2       22 UNK         0.5000 
    122 N         -5.8106  -19.0358  -57.9879 N.am      22 UNK        -0.7600 
    123 O         -7.4970  -17.7352  -57.4108 O.2       22 UNK        -0.5000 
    124 C124       -6.1970  -17.2911  -54.7935 C.3       23 UNK        -0.0398 
    125 S125       -5.2836  -16.3143  -53.5497 S.3       23 UNK        -0.2404 
    126 C126       -4.7444  -17.6404  -52.4291 C.3       23 UNK        -0.0205 
    127 H127       -0.8303  -12.0539  -51.1351 H         1 UNK         0.0600 
    128 H128       -1.6079  -11.4542  -49.6665 H         1 UNK         0.0600 
    129 H129       -2.1730  -12.9502  -50.4191 H         1 UNK         0.0600 
    130 H130        1.0863  -13.0769  -50.7608 H         1 UNK         0.3000 
    131 H131        2.7247  -14.2850  -50.0327 H         1 UNK         0.0600 
    132 H132        0.6876  -15.8437  -48.3893 H         1 UNK         0.0800 
    133 H133        2.3074  -16.3771  -48.7104 H         1 UNK         0.0800 
    134 H134       -0.1714  -18.6478  -50.7063 H         1 UNK         0.0800 
    135 H135       -0.0572  -18.0215  -49.0875 H         1 UNK         0.0800 
    136 H136       -2.1251  -18.2591  -52.0159 H         1 UNK         0.1150 
    137 H137       -5.3256  -15.9099  -50.4094 H         1 UNK         0.1150 
    138 H138       -1.5334  -15.9911  -48.4269 H         1 UNK         0.1150 
    139 H139       -3.4281  -13.9595  -48.2630 H         1 UNK         0.0800 
    140 H140       -5.0402  -14.5922  -48.4760 H         1 UNK         0.0800 
    141 H141       -4.9670  -17.3687  -47.8426 H         1 UNK         0.0800 
    142 H142       -5.6147  -17.3042  -46.2424 H         1 UNK         0.0800 
    143 H143       -2.6618  -18.0100  -46.5583 H         1 UNK         0.0600 
    144 H144       -4.5439  -18.1002  -44.4298 H         1 UNK         0.3000 
    145 H145       -3.9420  -18.7105  -42.3733 H         1 UNK         0.0600 
    146 H146       -4.8335  -20.9108  -41.6562 H         1 UNK         0.0600 
    147 H147       -5.2300  -20.6953  -43.3473 H         1 UNK         0.0600 
    148 H148       -3.8959  -21.7453  -42.8873 H         1 UNK         0.0600 
    149 H149       -1.3773  -19.8377  -42.4029 H         1 UNK         0.3000 
    150 H150       -0.6188  -18.9957  -39.5116 H         1 UNK         0.0600 
    151 H151        0.1005  -21.0017  -38.1836 H         1 UNK         0.0600 
    152 H152       -1.5725  -20.5595  -37.8895 H         1 UNK         0.0600 
    153 H153       -1.2049  -21.9392  -38.9116 H         1 UNK         0.0600 
    154 H154        0.8611  -19.5722  -41.0005 H         1 UNK         0.3000 
    155 H155        2.2305  -22.4713  -42.1791 H         1 UNK         0.0600 
    156 H156        0.6382  -20.6308  -44.0346 H         1 UNK         0.0600 
    157 H157        0.6423  -22.3906  -44.0553 H         1 UNK         0.0600 
    158 H158        2.0928  -21.5139  -44.5056 H         1 UNK         0.0600 
    159 H159        2.6417  -19.6928  -42.8438 H         1 UNK         0.3000 
    160 H160        4.6017  -18.9412  -39.9250 H         1 UNK         0.0600 
    161 H161        5.2785  -19.1430  -42.9061 H         1 UNK         0.0600 
    162 H162        6.1352  -19.9705  -41.6113 H         1 UNK         0.0600 
    163 H163        6.1661  -18.2165  -41.6970 H         1 UNK         0.0600 
    164 H164        3.8318  -17.2849  -42.0852 H         1 UNK         0.3000 
    165 H165        0.7452  -16.0891  -40.6608 H         1 UNK         0.0600 
    166 H166        1.9592  -13.9633  -41.1479 H         1 UNK         0.0600 
    167 H167        2.5780  -14.7373  -39.6960 H         1 UNK         0.0600 
    168 H168        3.4895  -14.8357  -41.1946 H         1 UNK         0.0600 
    169 H169        1.9937  -15.5046  -43.1495 H         1 UNK         0.3000 
    170 H170        0.4479  -18.1067  -45.0417 H         1 UNK         0.0600 
    171 H171       -1.2281  -16.2588  -44.8800 H         1 UNK         0.0600 
    172 H172        0.0522  -15.0746  -45.1036 H         1 UNK         0.0600 
    173 H173       -0.3326  -16.2235  -46.3829 H         1 UNK         0.0600 
    174 H174        2.3066  -15.9288  -45.5856 H         1 UNK         0.3000 
    175 H175        5.2566  -17.8434  -45.0322 H         1 UNK         0.0600 
    176 H176        4.2003  -16.8445  -47.7109 H         1 UNK         0.0600 
    177 H177        5.8216  -17.3974  -47.3294 H         1 UNK         0.0600 
    178 H178        4.4898  -18.5430  -47.3487 H         1 UNK         0.0600 
    179 H179        4.7055  -15.1851  -46.0642 H         1 UNK         0.3000 
    180 H180        4.7624  -13.6017  -42.8706 H         1 UNK         0.0600 
    181 H181        6.9796  -13.6355  -44.9864 H         1 UNK         0.0600 
    182 H182        7.1992  -13.9976  -43.2783 H         1 UNK         0.0600 
    183 H183        6.7179  -12.3826  -43.7722 H         1 UNK         0.0600 
    184 H184        4.8303  -12.4441  -45.4281 H         1 UNK         0.3000 
    185 H185        1.4577  -11.7796  -45.5644 H         1 UNK         0.0600 
    186 H186        3.5889  -10.4472  -45.5875 H         1 UNK         0.0600 
    187 H187        4.1454  -11.3613  -46.9901 H         1 UNK         0.0600 
    188 H188        2.7184  -10.3426  -47.1055 H         1 UNK         0.0600 
    189 H189        0.9244  -12.8322  -47.4470 H         1 UNK         0.3000 
    190 H190       -5.5232  -20.0956  -46.0094 H         1 UNK         0.3000 
    191 H191       -5.3684  -21.5183  -48.4567 H         1 UNK         0.0600 
    192 H192       -7.4108  -21.4624  -47.0624 H         1 UNK         0.0600 
    193 H193       -6.9032  -23.1233  -47.3192 H         1 UNK         0.0600 
    194 H194       -6.5917  -22.3438  -45.7720 H         1 UNK         0.0600 
    195 H195       -3.6886  -21.9909  -45.3784 H         1 UNK         0.3000 
    196 H196       -2.6695  -24.6340  -45.9658 H         1 UNK         0.0600 
    197 H197       -1.2198  -24.2079  -43.9754 H         1 UNK         0.0600 
    198 H198       -2.9100  -23.8856  -43.6330 H         1 UNK         0.0600 
    199 H199       -1.7927  -22.5488  -43.8990 H         1 UNK         0.0600 
    200 H200       -1.3216  -21.2933  -46.1643 H         1 UNK         0.3000 
    201 H201        1.2045  -22.0568  -47.2581 H         1 UNK         0.0600 
    202 H202        1.0040  -19.9167  -46.2128 H         1 UNK         0.0600 
    203 H203       -0.3396  -19.4231  -47.2418 H         1 UNK         0.0600 
    204 H204        1.2922  -19.5857  -47.9032 H         1 UNK         0.0600 
    205 H205       -1.9091  -21.2876  -48.8019 H         1 UNK         0.3000 
    206 H206       -0.9826  -21.4758  -51.5195 H         1 UNK         0.0600 
    207 H207       -3.0526  -20.2648  -50.8423 H         1 UNK         0.0600 
    208 H208       -3.4271  -21.5202  -52.0129 H         1 UNK         0.0600 
    209 H209       -3.7690  -21.7747  -50.3019 H         1 UNK         0.0600 
    210 H210       -1.3449  -23.9030  -49.1650 H         1 UNK         0.3000 
    211 H211       -1.2901  -26.0970  -49.0970 H         1 UNK         0.0600 
    212 H212       -0.5724  -26.0966  -52.0745 H         1 UNK         0.0600 
    213 H213       -0.3612  -27.4233  -50.9446 H         1 UNK         0.0600 
    214 H214        0.5700  -25.9475  -50.7403 H         1 UNK         0.0600 
    215 H215       -3.5994  -25.3972  -48.7748 H         1 UNK         0.3000 
    216 H216       -5.6644  -26.1016  -48.5614 H         1 UNK         0.0600 
    217 H217       -6.5947  -28.1064  -49.5845 H         1 UNK         0.0600 
    218 H218       -4.9641  -28.4602  -49.0365 H         1 UNK         0.0600 
    219 H219       -5.2886  -28.2036  -50.7515 H         1 UNK         0.0600 
    220 H220       -5.0829  -23.8773  -49.7754 H         1 UNK         0.3000 
    221 H221       -5.9710  -22.1324  -50.8096 H         1 UNK         0.0600 
    222 H222       -8.4605  -23.7920  -51.4391 H         1 UNK         0.0600 
    223 H223       -8.1493  -23.0221  -49.8846 H         1 UNK         0.0600 
    224 H224       -8.3496  -22.0424  -51.3218 H         1 UNK         0.0600 
    225 H225       -7.2827  -21.5032  -53.0185 H         1 UNK         0.3000 
    226 H226       -7.0284  -21.0201  -55.1519 H         1 UNK         0.0600 
    227 H227       -7.9630  -23.2855  -55.5578 H         1 UNK         0.0600 
    228 H228       -6.8435  -22.8313  -56.8266 H         1 UNK         0.0600 
    229 H229       -6.3492  -23.9822  -55.5856 H         1 UNK         0.0600 
    230 H230       -4.7071  -22.9659  -56.4816 H         1 UNK         0.3000 
    231 H231       -2.6444  -22.6669  -57.2493 H         1 UNK         0.0600 
    232 H232       -2.0872  -21.7743  -54.3629 H         1 UNK         0.0600 
    233 H233       -0.8550  -22.2281  -55.5411 H         1 UNK         0.0600 
    234 H234       -2.0273  -23.4111  -54.9941 H         1 UNK         0.0600 
    235 H235       -1.6308  -20.0331  -55.2959 H         1 UNK         0.3000 
    236 H236       -1.1638  -18.2151  -57.4107 H         1 UNK         0.0600 
    237 H237        0.0816  -18.1996  -55.2544 H         1 UNK         0.0600 
    238 H238       -0.6517  -16.6302  -55.5428 H         1 UNK         0.0600 
    239 H239       -1.3831  -17.7350  -54.3868 H         1 UNK         0.0600 
    240 H240       -4.0444  -18.7612  -55.4686 H         1 UNK         0.3000 
    241 H241       -5.3776  -16.3201  -56.5098 H         1 UNK         0.0600 
    242 H242       -4.8376  -19.3104  -57.9071 H         1 UNK         0.3800 
    243 H243       -6.3891  -19.4722  -58.6880 H         1 UNK         0.3800 
    244 H244       -6.3814  -18.2982  -54.4159 H         1 UNK         0.0800 
    245 H245       -7.1786  -16.8281  -54.9078 H         1 UNK         0.0800 
    246 H246       -4.2433  -18.4144  -53.0105 H         1 UNK         0.0800 
    247 H247       -5.6170  -18.1102  -51.9733 H         1 UNK         0.0800 
@<TRIPOS>BOND
     1    1    2 1    
     2    1  127 1    
     3    1  128 1    
     4    1  129 1    
     5    2    3 2    
     6    2    4 am   BACKBONE|DICT|INTERRES
     7    4    5 1    
     8    4  130 1    
     9    5    6 1    
    10    5   65 1    
    11    5  131 1    
    12    6    7 1    
    13    6  132 1    
    14    6  133 1    
    15    7    8 1    
    16    8    9 1    
    17    8  134 1    
    18    8  135 1    
    19    9   10 ar   
    20    9   14 ar   
    21   10   11 ar   
    22   10  136 1    
    23   11   12 ar   
    24   11  126 1    
    25   12   13 ar   
    26   12  137 1    
    27   13   14 ar   
    28   13   15 1    
    29   14  138 1    
    30   15   16 1    
    31   15  139 1    
    32   15  140 1    
    33   16   17 1    
    34   17   18 1    
    35   17  141 1    
    36   17  142 1    
    37   18   19 1    
    38   18   67 1    
    39   18  143 1    
    40   19   20 am   BACKBONE|DICT|INTERRES
    41   19  144 1    
    42   20   21 2    
    43   20   22 1    
    44   22   23 1    
    45   22   24 1    
    46   22  145 1    
    47   23  146 1    
    48   23  147 1    
    49   23  148 1    
    50   24   25 am   BACKBONE|DICT|INTERRES
    51   24  149 1    
    52   25   26 2    
    53   25   27 1    
    54   27   28 1    
    55   27   29 1    
    56   27  150 1    
    57   28  151 1    
    58   28  152 1    
    59   28  153 1    
    60   29   30 am   BACKBONE|DICT|INTERRES
    61   29  154 1    
    62   30   31 2    
    63   30   32 1    
    64   32   33 1    
    65   32   34 1    
    66   32  155 1    
    67   33  156 1    
    68   33  157 1    
    69   33  158 1    
    70   34   35 am   BACKBONE|DICT|INTERRES
    71   34  159 1    
    72   35   36 2    
    73   35   37 1    
    74   37   38 1    
    75   37   39 1    
    76   37  160 1    
    77   38  161 1    
    78   38  162 1    
    79   38  163 1    
    80   39   40 am   BACKBONE|DICT|INTERRES
    81   39  164 1    
    82   40   41 2    
    83   40   42 1    
    84   42   43 1    
    85   42   44 1    
    86   42  165 1    
    87   43  166 1    
    88   43  167 1    
    89   43  168 1    
    90   44   45 am   BACKBONE|DICT|INTERRES
    91   44  169 1    
    92   45   46 2    
    93   45   47 1    
    94   47   48 1    
    95   47   49 1    
    96   47  170 1    
    97   48  171 1    
    98   48  172 1    
    99   48  173 1    
   100   49   50 am   BACKBONE|DICT|INTERRES
   101   49  174 1    
   102   50   51 2    
   103   50   52 1    
   104   52   53 1    
   105   52   54 1    
   106   52  175 1    
   107   53  176 1    
   108   53  177 1    
   109   53  178 1    
   110   54   55 am   BACKBONE|DICT|INTERRES
   111   54  179 1    
   112   55   56 2    
   113   55   57 1    
   114   57   58 1    
   115   57   59 1    
   116   57  180 1    
   117   58  181 1    
   118   58  182 1    
   119   58  183 1    
   120   59   60 am   BACKBONE|DICT|INTERRES
   121   59  184 1    
   122   60   61 2    
   123   60   62 1    
   124   62   63 1    
   125   62   64 1    
   126   62  185 1    
   127   63  186 1    
   128   63  187 1    
   129   63  188 1    
   130   64   65 am   BACKBONE|DICT|INTERRES
   131   64  189 1    
   132   65   66 2    
   133   67   68 2    
   134   67   69 am   BACKBONE|DICT|INTERRES
   135   69   70 1    
   136   69  190 1    
   137   70   71 1    
   138   70   72 1    
   139   70  191 1    
   140   71  192 1    
   141   71  193 1    
   142   71  194 1    
   143   72   73 2    
   144   72   74 am   BACKBONE|DICT|INTERRES
   145   74   75 1    
   146   74  195 1    
   147   75   76 1    
   148   75   77 1    
   149   75  196 1    
   150   76  197 1    
   151   76  198 1    
   152   76  199 1    
   153   77   78 2    
   154   77   79 am   BACKBONE|DICT|INTERRES
   155   79   80 1    
   156   79  200 1    
   157   80   81 1    
   158   80   82 1    
   159   80  201 1    
   160   81  202 1    
   161   81  203 1    
   162   81  204 1    
   163   82   83 2    
   164   82   84 am   BACKBONE|DICT|INTERRES
   165   84   85 1    
   166   84  205 1    
   167   85   86 1    
   168   85   87 1    
   169   85  206 1    
   170   86  207 1    
   171   86  208 1    
   172   86  209 1    
   173   87   88 2    
   174   87   89 am   BACKBONE|DICT|INTERRES
   175   89   90 1    
   176   89  210 1    
   177   90   91 1    
   178   90   92 1    
   179   90  211 1    
   180   91  212 1    
   181   91  213 1    
   182   91  214 1    
   183   92   93 2    
   184   92   94 am   BACKBONE|DICT|INTERRES
   185   94   95 1    
   186   94  215 1    
   187   95   96 1    
   188   95   97 1    
   189   95  216 1    
   190   96  217 1    
   191   96  218 1    
   192   96  219 1    
   193   97   98 2    
   194   97   99 am   BACKBONE|DICT|INTERRES
   195   99  100 1    
   196   99  220 1    
   197  100  101 1    
   198  100  102 1    
   199  100  221 1    
   200  101  222 1    
   201  101  223 1    
   202  101  224 1    
   203  102  103 2    
   204  102  104 am   BACKBONE|DICT|INTERRES
   205  104  105 1    
   206  104  225 1    
   207  105  106 1    
   208  105  107 1    
   209  105  226 1    
   210  106  227 1    
   211  106  228 1    
   212  106  229 1    
   213  107  108 2    
   214  107  109 am   BACKBONE|DICT|INTERRES
   215  109  110 1    
   216  109  230 1    
   217  110  111 1    
   218  110  112 1    
   219  110  231 1    
   220  111  232 1    
   221  111  233 1    
   222  111  234 1    
   223  112  113 2    
   224  112  114 am   BACKBONE|DICT|INTERRES
   225  114  115 1    
   226  114  235 1    
   227  115  116 1    
   228  115  117 1    
   229  115  236 1    
   230  116  237 1    
   231  116  238 1    
   232  116  239 1    
   233  117  118 2    
   234  117  119 am   BACKBONE|DICT|INTERRES
   235  119  120 1    
   236  119  240 1    
   237  120  121 1    
   238  120  124 1    
   239  120  241 1    
   240  121  122 am   BACKBONE|DICT|INTERRES
   241  121  123 2    
   242  122  242 1    
   243  122  243 1    
   244  124  125 1    
   245  124  244 1    
   246  124  245 1    
   247  125  126 1    
   248  126  246 1    
   249  126  247 1    
@<TRIPOS>SUBSTRUCTURE
     1 UNK         1 GROUP             0       ****    0 ROOT    
