@<TRIPOS>MOLECULE
3R540
247   249    1
SMALL
USER_CHARGES


@<TRIPOS>ATOM
      1 CA         -1.5227  -12.4849  -51.2131 C.3       0 UNK        -0.1800 
      2 C          -1.1847  -13.1919  -49.9092 C.2       0 UNK         0.5000 
      3 O          -1.4394  -12.6530  -48.8321 O.2       0 UNK        -0.5000 
      4 N          -0.6297  -14.4080  -49.9911 N.am      1 UNK        -0.5000 
      5 CA         -0.1803  -15.1997  -48.8383 C.3       1 UNK         0.1400 
      6 C6          0.5860  -16.4689  -49.2701 C.3       23 UNK        -0.0398 
      7 S7          2.1135  -16.0876  -50.1836 S.3       23 UNK        -0.2404 
      8 C8          3.0604  -17.6324  -49.9449 C.3       23 UNK        -0.0205 
      9 C9          2.5814  -18.8594  -50.7252 C.ar      23 UNK        -0.0193 
     10 C10         1.6521  -18.7934  -51.7727 C.ar      23 UNK        -0.1150 
     11 C11         1.2988  -19.9396  -52.4940 C.ar      23 UNK        -0.0193 
     12 C12         1.8674  -21.1675  -52.1464 C.ar      23 UNK        -0.1150 
     13 C13         2.7790  -21.2556  -51.0918 C.ar      23 UNK        -0.0193 
     14 C14         3.1339  -20.0993  -50.3929 C.ar      23 UNK        -0.1150 
     15 C15         3.3928  -22.5974  -50.7206 C.3       23 UNK        -0.0205 
     16 S16         2.1979  -23.6889  -49.8879 S.3       23 UNK        -0.2404 
     17 C17         1.9893  -22.8680  -48.2705 C.3       23 UNK        -0.0398 
     18 CA          2.7292  -23.6043  -47.1257 C.3       11 UNK         0.1400 
     19 N           2.9000  -22.7584  -45.9441 N.am      11 UNK        -0.5000 
     20 C           3.8219  -22.9580  -44.9908 C.2       10 UNK         0.5000 
     21 O           4.7010  -23.8173  -45.0636 O.2       10 UNK        -0.5000 
     22 CA          3.7568  -22.0600  -43.7384 C.3       10 UNK         0.1400 
     23 CB          4.7291  -20.8783  -43.8724 C.3       10 UNK        -0.1800 
     24 N           2.4151  -21.5480  -43.4596 N.am      10 UNK        -0.5000 
     25 C           1.3723  -22.2961  -43.0720 C.2       9 UNK         0.5000 
     26 O           1.4496  -23.4975  -42.8141 O.2       9 UNK        -0.5000 
     27 CA          0.0057  -21.5875  -43.0029 C.3       9 UNK         0.1400 
     28 CB         -0.2075  -20.9519  -41.6216 C.3       9 UNK        -0.1800 
     29 N          -0.1682  -20.5668  -44.0401 N.am      9 UNK        -0.5000 
     30 C          -0.1382  -20.7993  -45.3607 C.2       8 UNK         0.5000 
     31 O           0.0336  -21.9094  -45.8603 O.2       8 UNK        -0.5000 
     32 CA         -0.2730  -19.5773  -46.2794 C.3       8 UNK         0.1400 
     33 CB         -1.7347  -19.1253  -46.3579 C.3       8 UNK        -0.1800 
     34 N           0.5675  -18.4701  -45.8264 N.am      8 UNK        -0.5000 
     35 C           1.9043  -18.4519  -45.9321 C.2       7 UNK         0.5000 
     36 O           2.5545  -19.3291  -46.4997 O.2       7 UNK        -0.5000 
     37 CA          2.6400  -17.2731  -45.2658 C.3       7 UNK         0.1400 
     38 CB          2.7543  -16.0774  -46.2217 C.3       7 UNK        -0.1800 
     39 N           1.9906  -16.8293  -44.0335 N.am      7 UNK        -0.5000 
     40 C           1.9350  -17.5443  -42.9018 C.2       6 UNK         0.5000 
     41 O           2.4484  -18.6542  -42.7668 O.2       6 UNK        -0.5000 
     42 CA          1.1224  -16.9306  -41.7473 C.3       6 UNK         0.1400 
     43 CB          1.9913  -15.9694  -40.9234 C.3       6 UNK        -0.1800 
     44 N          -0.0730  -16.2242  -42.2125 N.am      6 UNK        -0.5000 
     45 C          -1.1003  -16.7946  -42.8528 C.2       5 UNK         0.5000 
     46 O          -1.1507  -17.9959  -43.1162 O.2       5 UNK        -0.5000 
     47 CA         -2.2374  -15.8730  -43.3223 C.3       5 UNK         0.1400 
     48 CB         -3.1807  -15.4979  -42.1650 C.3       5 UNK        -0.1800 
     49 N          -1.7778  -14.6902  -44.0575 N.am      5 UNK        -0.5000 
     50 C          -1.1217  -13.6034  -43.6260 C.2       4 UNK         0.5000 
     51 O          -0.7245  -13.4499  -42.4706 O.2       4 UNK        -0.5000 
     52 CA         -0.8650  -12.5013  -44.6748 C.3       4 UNK         0.1400 
     53 CB          0.4962  -12.7110  -45.3555 C.3       4 UNK        -0.1800 
     54 N          -1.9140  -12.4464  -45.6976 N.am      4 UNK        -0.5000 
     55 C          -3.1714  -12.0332  -45.4740 C.2       3 UNK         0.5000 
     56 O          -3.5488  -11.5283  -44.4162 O.2       3 UNK        -0.5000 
     57 CA         -4.1875  -12.2683  -46.6064 C.3       3 UNK         0.1400 
     58 CB         -4.1904  -11.0996  -47.6040 C.3       3 UNK        -0.1800 
     59 N          -3.9165  -13.5264  -47.3065 N.am      3 UNK        -0.5000 
     60 C          -4.2590  -14.7325  -46.8278 C.2       2 UNK         0.5000 
     61 O          -4.9239  -14.8931  -45.8048 O.2       2 UNK        -0.5000 
     62 CA         -3.7537  -15.9747  -47.5865 C.3       2 UNK         0.1400 
     63 CB         -4.8551  -16.5675  -48.4765 C.3       2 UNK        -0.1800 
     64 N          -2.5538  -15.7161  -48.3883 N.am      2 UNK        -0.5000 
     65 C          -1.3250  -15.5664  -47.8706 C.2       1 UNK         0.5000 
     66 O          -1.0803  -15.6779  -46.6698 O.2       1 UNK        -0.5000 
     67 C           2.0343  -24.9232  -46.7328 C.2       11 UNK         0.5000 
     68 O           2.5780  -25.9977  -46.9949 O.2       11 UNK        -0.5000 
     69 N           0.8684  -24.8194  -46.0818 N.am      12 UNK        -0.5000 
     70 CA          0.0763  -25.9471  -45.6010 C.3       12 UNK         0.1400 
     71 CB         -0.6131  -26.6571  -46.7837 C.3       12 UNK        -0.1800 
     72 C          -0.9785  -25.4447  -44.6101 C.2       12 UNK         0.5000 
     73 O          -1.4355  -24.3071  -44.7281 O.2       12 UNK        -0.5000 
     74 N          -1.4224  -26.3272  -43.7050 N.am      13 UNK        -0.5000 
     75 CA         -2.4970  -26.0653  -42.7369 C.3       13 UNK         0.1400 
     76 CB         -2.6022  -27.2558  -41.7718 C.3       13 UNK        -0.1800 
     77 C          -3.8670  -25.7743  -43.3886 C.2       13 UNK         0.5000 
     78 O          -4.7072  -25.1156  -42.7760 O.2       13 UNK        -0.5000 
     79 N          -4.0473  -26.2378  -44.6330 N.am      14 UNK        -0.5000 
     80 CA         -5.1897  -25.9494  -45.5011 C.3       14 UNK         0.1400 
     81 CB         -5.2807  -27.0613  -46.5603 C.3       14 UNK        -0.1800 
     82 C          -5.1184  -24.5610  -46.1771 C.2       14 UNK         0.5000 
     83 O          -5.9979  -24.2477  -46.9806 O.2       14 UNK        -0.5000 
     84 N          -4.0656  -23.7745  -45.8939 N.am      15 UNK        -0.5000 
     85 CA         -3.7805  -22.4363  -46.4291 C.3       15 UNK         0.1400 
     86 CB         -4.8335  -21.4181  -45.9422 C.3       15 UNK        -0.1800 
     87 C          -3.6005  -22.4290  -47.9616 C.2       15 UNK         0.5000 
     88 O          -3.9806  -21.4622  -48.6254 O.2       15 UNK        -0.5000 
     89 N          -3.0650  -23.5441  -48.4875 N.am      16 UNK        -0.5000 
     90 CA         -2.8936  -23.8849  -49.9066 C.3       16 UNK         0.1400 
     91 CB         -1.7576  -23.0484  -50.5283 C.3       16 UNK        -0.1800 
     92 C          -4.2071  -23.7906  -50.7163 C.2       16 UNK         0.5000 
     93 O          -4.1780  -23.4334  -51.8953 O.2       16 UNK        -0.5000 
     94 N          -5.3411  -24.0498  -50.0455 N.am      17 UNK        -0.5000 
     95 CA         -6.7317  -23.8192  -50.4552 C.3       17 UNK         0.1400 
     96 CB         -7.0980  -24.5918  -51.7370 C.3       17 UNK        -0.1800 
     97 C          -7.0925  -22.3232  -50.5651 C.2       17 UNK         0.5000 
     98 O          -8.1111  -21.9070  -50.0117 O.2       17 UNK        -0.5000 
     99 N          -6.2497  -21.5432  -51.2495 N.am      18 UNK        -0.5000 
    100 CA        -6.3538  -20.1007  -51.4181 C.3       18 UNK         0.1400 
    101 CB        -7.4828  -19.7516  -52.4103 C.3       18 UNK        -0.1800 
    102 C         -4.9876  -19.5645  -51.8697 C.2       18 UNK         0.5000 
    103 O         -4.8164  -19.2250  -53.0415 O.2       18 UNK        -0.5000 
    104 N         -4.0252  -19.4935  -50.9381 N.am      19 UNK        -0.5000 
    105 CA        -2.6439  -19.0448  -51.1770 C.3       19 UNK         0.1400 
    106 CB        -1.8191  -19.2148  -49.8940 C.3       19 UNK        -0.1800 
    107 C         -2.4829  -17.6031  -51.7189 C.2       19 UNK         0.5000 
    108 O         -1.3834  -17.2311  -52.1261 O.2       19 UNK        -0.5000 
    109 N         -3.5615  -16.8081  -51.7511 N.am      20 UNK        -0.5000 
    110 CA        -3.6140  -15.5297  -52.4669 C.3       20 UNK         0.1400 
    111 CB        -4.9110  -14.7894  -52.1089 C.3       20 UNK        -0.1800 
    112 C         -3.4709  -15.6731  -53.9981 C.2       20 UNK         0.5000 
    113 O         -3.0649  -14.7118  -54.6521 O.2       20 UNK        -0.5000 
    114 N         -3.7630  -16.8663  -54.5420 N.am      21 UNK        -0.5000 
    115 CA        -3.6540  -17.2049  -55.9650 C.3       21 UNK         0.1400 
    116 CB        -4.1880  -18.6287  -56.1827 C.3       21 UNK        -0.1800 
    117 C         -2.2328  -17.0721  -56.5518 C.2       21 UNK         0.5000 
    118 O         -2.1020  -16.8705  -57.7600 O.2       21 UNK        -0.5000 
    119 N         -1.2029  -17.1620  -55.6993 N.am      22 UNK        -0.5000 
    120 CA         0.1983  -16.8882  -56.0614 C.3       22 UNK         0.1400 
    121 C          0.5424  -15.3696  -56.1536 C.2       22 UNK         0.5000 
    122 N         -0.3424  -14.4470  -55.7906 N.am      22 UNK        -0.7600 
    123 O          1.6393  -15.0170  -56.5785 O.2       22 UNK        -0.5000 
    124 C124        1.1941  -17.6226  -55.1274 C.3       23 UNK        -0.0398 
    125 S125        1.0662  -19.4435  -55.2283 S.3       23 UNK        -0.2404 
    126 C126        0.2932  -19.8693  -53.6370 C.3       23 UNK        -0.0205 
    127 H127       -1.0802  -11.4890  -51.2233 H         1 UNK         0.0600 
    128 H128       -2.6029  -12.3798  -51.3138 H         1 UNK         0.0600 
    129 H129       -1.1477  -13.0304  -52.0796 H         1 UNK         0.0600 
    130 H130       -0.4279  -14.8087  -50.8971 H         1 UNK         0.3000 
    131 H131        0.5089  -14.5697  -48.2725 H         1 UNK         0.0600 
    132 H132        0.8403  -17.0843  -48.4065 H         1 UNK         0.0800 
    133 H133       -0.0378  -17.0819  -49.9128 H         1 UNK         0.0800 
    134 H134        4.0935  -17.4356  -50.2342 H         1 UNK         0.0800 
    135 H135        3.0842  -17.8740  -48.8823 H         1 UNK         0.0800 
    136 H136        1.2021  -17.8497  -52.0341 H         1 UNK         0.1150 
    137 H137        1.5966  -22.0602  -52.6927 H         1 UNK         0.1150 
    138 H138        3.8504  -20.1628  -49.5855 H         1 UNK         0.1150 
    139 H139        3.7471  -23.0903  -51.6270 H         1 UNK         0.0800 
    140 H140        4.2687  -22.4650  -50.0833 H         1 UNK         0.0800 
    141 H141        0.9205  -22.7886  -48.0719 H         1 UNK         0.0800 
    142 H142        2.3488  -21.8414  -48.3390 H         1 UNK         0.0800 
    143 H143        3.7279  -23.8535  -47.4918 H         1 UNK         0.0600 
    144 H144        2.1855  -22.0586  -45.7901 H         1 UNK         0.3000 
    145 H145        4.0706  -22.6639  -42.8845 H         1 UNK         0.0600 
    146 H146        4.7522  -20.2810  -42.9608 H         1 UNK         0.0600 
    147 H147        5.7459  -21.2266  -44.0580 H         1 UNK         0.0600 
    148 H148        4.4514  -20.2208  -44.6967 H         1 UNK         0.0600 
    149 H149        2.2809  -20.5478  -43.5625 H         1 UNK         0.3000 
    150 H150       -0.7688  -22.3414  -43.1498 H         1 UNK         0.0600 
    151 H151       -0.1373  -21.7016  -40.8325 H         1 UNK         0.0600 
    152 H152       -1.1926  -20.4909  -41.5467 H         1 UNK         0.0600 
    153 H153        0.5382  -20.1849  -41.4132 H         1 UNK         0.0600 
    154 H154       -0.3591  -19.6220  -43.7168 H         1 UNK         0.3000 
    155 H155        0.0481  -19.8644  -47.2835 H         1 UNK         0.0600 
    156 H156       -1.8226  -18.2131  -46.9368 H         1 UNK         0.0600 
    157 H157       -2.1699  -18.9406  -45.3759 H         1 UNK         0.0600 
    158 H158       -2.3428  -19.8777  -46.8559 H         1 UNK         0.0600 
    159 H159        0.1047  -17.7177  -45.3368 H         1 UNK         0.3000 
    160 H160        3.6487  -17.6097  -45.0165 H         1 UNK         0.0600 
    161 H161        1.7740  -15.7004  -46.5103 H         1 UNK         0.0600 
    162 H162        3.2881  -16.3499  -47.1314 H         1 UNK         0.0600 
    163 H163        3.3048  -15.2565  -45.7619 H         1 UNK         0.0600 
    164 H164        1.5299  -15.9321  -44.0558 H         1 UNK         0.3000 
    165 H165        0.7996  -17.7453  -41.0964 H         1 UNK         0.0600 
    166 H166        1.4473  -15.5913  -40.0577 H         1 UNK         0.0600 
    167 H167        2.8851  -16.4721  -40.5512 H         1 UNK         0.0600 
    168 H168        2.3169  -15.1126  -41.5147 H         1 UNK         0.0600 
    169 H169       -0.1164  -15.2204  -42.0589 H         1 UNK         0.3000 
    170 H170       -2.8231  -16.4474  -44.0420 H         1 UNK         0.0600 
    171 H171       -3.5964  -16.3921  -41.6991 H         1 UNK         0.0600 
    172 H172       -2.6706  -14.9325  -41.3849 H         1 UNK         0.0600 
    173 H173       -4.0178  -14.8977  -42.5221 H         1 UNK         0.0600 
    174 H174       -1.9188  -14.7523  -45.0590 H         1 UNK         0.3000 
    175 H175       -0.8430  -11.5427  -44.1525 H         1 UNK         0.0600 
    176 H176        0.5363  -13.6559  -45.8961 H         1 UNK         0.0600 
    177 H177        0.7095  -11.9113  -46.0650 H         1 UNK         0.0600 
    178 H178        1.3031  -12.7188  -44.6216 H         1 UNK         0.0600 
    179 H179       -1.6771  -12.7888  -46.6204 H         1 UNK         0.3000 
    180 H180       -5.1822  -12.3226  -46.1584 H         1 UNK         0.0600 
    181 H181       -4.8992  -11.2732  -48.4137 H         1 UNK         0.0600 
    182 H182       -3.2084  -10.9346  -48.0465 H         1 UNK         0.0600 
    183 H183       -4.4821  -10.1722  -47.1099 H         1 UNK         0.0600 
    184 H184       -3.3198  -13.4656  -48.1212 H         1 UNK         0.3000 
    185 H185       -3.5125  -16.7209  -46.8281 H         1 UNK         0.0600 
    186 H186       -5.1622  -15.8742  -49.2574 H         1 UNK         0.0600 
    187 H187       -4.5240  -17.4916  -48.9482 H         1 UNK         0.0600 
    188 H188       -5.7419  -16.8079  -47.8886 H         1 UNK         0.0600 
    189 H189       -2.6811  -15.5890  -49.3813 H         1 UNK         0.3000 
    190 H190        0.4813  -23.9021  -45.8679 H         1 UNK         0.3000 
    191 H191        0.7348  -26.6461  -45.0815 H         1 UNK         0.0600 
    192 H192       -1.2407  -27.4799  -46.4397 H         1 UNK         0.0600 
    193 H193        0.1139  -27.0811  -47.4761 H         1 UNK         0.0600 
    194 H194       -1.2471  -25.9719  -47.3474 H         1 UNK         0.0600 
    195 H195       -1.0117  -27.2496  -43.6768 H         1 UNK         0.3000 
    196 H196       -2.2173  -25.1804  -42.1614 H         1 UNK         0.0600 
    197 H197       -2.8567  -28.1777  -42.2962 H         1 UNK         0.0600 
    198 H198       -1.6639  -27.4180  -41.2410 H         1 UNK         0.0600 
    199 H199       -3.3730  -27.0825  -41.0195 H         1 UNK         0.0600 
    200 H200       -3.3030  -26.7826  -45.0414 H         1 UNK         0.3000 
    201 H201       -6.1020  -25.9710  -44.9017 H         1 UNK         0.0600 
    202 H202       -4.4024  -27.0748  -47.2068 H         1 UNK         0.0600 
    203 H203       -6.1557  -26.9289  -47.1981 H         1 UNK         0.0600 
    204 H204       -5.3700  -28.0430  -46.0945 H         1 UNK         0.0600 
    205 H205       -3.3556  -24.1291  -45.2610 H         1 UNK         0.3000 
    206 H206       -2.8178  -22.1443  -46.0091 H         1 UNK         0.0600 
    207 H207       -4.9183  -21.4307  -44.8557 H         1 UNK         0.0600 
    208 H208       -4.5689  -20.4015  -46.2332 H         1 UNK         0.0600 
    209 H209       -5.8196  -21.6253  -46.3587 H         1 UNK         0.0600 
    210 H210       -2.7993  -24.2667  -47.8350 H         1 UNK         0.3000 
    211 H211       -2.5885  -24.9318  -49.9342 H         1 UNK         0.0600 
    212 H212       -1.4476  -23.4655  -51.4870 H         1 UNK         0.0600 
    213 H213       -0.8784  -23.0241  -49.8852 H         1 UNK         0.0600 
    214 H214       -2.0711  -22.0226  -50.7122 H         1 UNK         0.0600 
    215 H215       -5.2465  -24.2683  -49.0609 H         1 UNK         0.3000 
    216 H216       -7.3399  -24.2279  -49.6466 H         1 UNK         0.0600 
    217 H217       -8.1657  -24.5100  -51.9434 H         1 UNK         0.0600 
    218 H218       -6.5713  -24.2125  -52.6127 H         1 UNK         0.0600 
    219 H219       -6.8660  -25.6521  -51.6379 H         1 UNK         0.0600 
    220 H220       -5.4263  -21.9829  -51.6535 H         1 UNK         0.3000 
    221 H221       -6.5840  -19.6455  -50.4525 H         1 UNK         0.0600 
    222 H222       -8.4581  -20.0538  -52.0292 H         1 UNK         0.0600 
    223 H223       -7.3354  -20.2401  -53.3743 H         1 UNK         0.0600 
    224 H224       -7.5270  -18.6765  -52.5890 H         1 UNK         0.0600 
    225 H225       -4.2110  -19.8867  -50.0206 H         1 UNK         0.3000 
    226 H226       -2.2308  -19.7170  -51.9302 H         1 UNK         0.0600 
    227 H227       -2.0647  -18.4448  -49.1658 H         1 UNK         0.0600 
    228 H228       -1.9745  -20.1806  -49.4222 H         1 UNK         0.0600 
    229 H229       -0.7531  -19.1558  -50.1094 H         1 UNK         0.0600 
    230 H230       -4.4387  -17.1846  -51.4253 H         1 UNK         0.3000 
    231 H231       -2.7745  -14.9212  -52.1297 H         1 UNK         0.0600 
    232 H232       -5.7924  -15.4016  -52.3030 H         1 UNK         0.0600 
    233 H233       -5.0133  -13.8732  -52.6924 H         1 UNK         0.0600 
    234 H234       -4.9223  -14.4960  -51.0603 H         1 UNK         0.0600 
    235 H235       -4.0977  -17.6112  -53.9377 H         1 UNK         0.3000 
    236 H236       -4.2953  -16.5129  -56.5144 H         1 UNK         0.0600 
    237 H237       -4.1561  -18.9039  -57.2377 H         1 UNK         0.0600 
    238 H238       -3.6004  -19.3647  -55.6323 H         1 UNK         0.0600 
    239 H239       -5.2244  -18.7162  -55.8558 H         1 UNK         0.0600 
    240 H240       -1.3938  -17.3079  -54.7184 H         1 UNK         0.3000 
    241 H241        0.3626  -17.2792  -57.0674 H         1 UNK         0.0600 
    242 H242       -0.0930  -13.4742  -55.8701 H         1 UNK         0.3800 
    243 H243       -1.2652  -14.6950  -55.4494 H         1 UNK         0.3800 
    244 H244        1.0525  -17.2819  -54.1041 H         1 UNK         0.0800 
    245 H245        2.2231  -17.3678  -55.3870 H         1 UNK         0.0800 
    246 H246       -0.2095  -20.8318  -53.7432 H         1 UNK         0.0800 
    247 H247       -0.4905  -19.1500  -53.4200 H         1 UNK         0.0800 
@<TRIPOS>BOND
     1    1    2 1    
     2    1  127 1    
     3    1  128 1    
     4    1  129 1    
     5    2    3 2    
     6    2    4 am   BACKBONE|DICT|INTERRES
     7    4    5 1    
     8    4  130 1    
     9    5    6 1    
    10    5   65 1    
    11    5  131 1    
    12    6    7 1    
    13    6  132 1    
    14    6  133 1    
    15    7    8 1    
    16    8    9 1    
    17    8  134 1    
    18    8  135 1    
    19    9   10 ar   
    20    9   14 ar   
    21   10   11 ar   
    22   10  136 1    
    23   11   12 ar   
    24   11  126 1    
    25   12   13 ar   
    26   12  137 1    
    27   13   14 ar   
    28   13   15 1    
    29   14  138 1    
    30   15   16 1    
    31   15  139 1    
    32   15  140 1    
    33   16   17 1    
    34   17   18 1    
    35   17  141 1    
    36   17  142 1    
    37   18   19 1    
    38   18   67 1    
    39   18  143 1    
    40   19   20 am   BACKBONE|DICT|INTERRES
    41   19  144 1    
    42   20   21 2    
    43   20   22 1    
    44   22   23 1    
    45   22   24 1    
    46   22  145 1    
    47   23  146 1    
    48   23  147 1    
    49   23  148 1    
    50   24   25 am   BACKBONE|DICT|INTERRES
    51   24  149 1    
    52   25   26 2    
    53   25   27 1    
    54   27   28 1    
    55   27   29 1    
    56   27  150 1    
    57   28  151 1    
    58   28  152 1    
    59   28  153 1    
    60   29   30 am   BACKBONE|DICT|INTERRES
    61   29  154 1    
    62   30   31 2    
    63   30   32 1    
    64   32   33 1    
    65   32   34 1    
    66   32  155 1    
    67   33  156 1    
    68   33  157 1    
    69   33  158 1    
    70   34   35 am   BACKBONE|DICT|INTERRES
    71   34  159 1    
    72   35   36 2    
    73   35   37 1    
    74   37   38 1    
    75   37   39 1    
    76   37  160 1    
    77   38  161 1    
    78   38  162 1    
    79   38  163 1    
    80   39   40 am   BACKBONE|DICT|INTERRES
    81   39  164 1    
    82   40   41 2    
    83   40   42 1    
    84   42   43 1    
    85   42   44 1    
    86   42  165 1    
    87   43  166 1    
    88   43  167 1    
    89   43  168 1    
    90   44   45 am   BACKBONE|DICT|INTERRES
    91   44  169 1    
    92   45   46 2    
    93   45   47 1    
    94   47   48 1    
    95   47   49 1    
    96   47  170 1    
    97   48  171 1    
    98   48  172 1    
    99   48  173 1    
   100   49   50 am   BACKBONE|DICT|INTERRES
   101   49  174 1    
   102   50   51 2    
   103   50   52 1    
   104   52   53 1    
   105   52   54 1    
   106   52  175 1    
   107   53  176 1    
   108   53  177 1    
   109   53  178 1    
   110   54   55 am   BACKBONE|DICT|INTERRES
   111   54  179 1    
   112   55   56 2    
   113   55   57 1    
   114   57   58 1    
   115   57   59 1    
   116   57  180 1    
   117   58  181 1    
   118   58  182 1    
   119   58  183 1    
   120   59   60 am   BACKBONE|DICT|INTERRES
   121   59  184 1    
   122   60   61 2    
   123   60   62 1    
   124   62   63 1    
   125   62   64 1    
   126   62  185 1    
   127   63  186 1    
   128   63  187 1    
   129   63  188 1    
   130   64   65 am   BACKBONE|DICT|INTERRES
   131   64  189 1    
   132   65   66 2    
   133   67   68 2    
   134   67   69 am   BACKBONE|DICT|INTERRES
   135   69   70 1    
   136   69  190 1    
   137   70   71 1    
   138   70   72 1    
   139   70  191 1    
   140   71  192 1    
   141   71  193 1    
   142   71  194 1    
   143   72   73 2    
   144   72   74 am   BACKBONE|DICT|INTERRES
   145   74   75 1    
   146   74  195 1    
   147   75   76 1    
   148   75   77 1    
   149   75  196 1    
   150   76  197 1    
   151   76  198 1    
   152   76  199 1    
   153   77   78 2    
   154   77   79 am   BACKBONE|DICT|INTERRES
   155   79   80 1    
   156   79  200 1    
   157   80   81 1    
   158   80   82 1    
   159   80  201 1    
   160   81  202 1    
   161   81  203 1    
   162   81  204 1    
   163   82   83 2    
   164   82   84 am   BACKBONE|DICT|INTERRES
   165   84   85 1    
   166   84  205 1    
   167   85   86 1    
   168   85   87 1    
   169   85  206 1    
   170   86  207 1    
   171   86  208 1    
   172   86  209 1    
   173   87   88 2    
   174   87   89 am   BACKBONE|DICT|INTERRES
   175   89   90 1    
   176   89  210 1    
   177   90   91 1    
   178   90   92 1    
   179   90  211 1    
   180   91  212 1    
   181   91  213 1    
   182   91  214 1    
   183   92   93 2    
   184   92   94 am   BACKBONE|DICT|INTERRES
   185   94   95 1    
   186   94  215 1    
   187   95   96 1    
   188   95   97 1    
   189   95  216 1    
   190   96  217 1    
   191   96  218 1    
   192   96  219 1    
   193   97   98 2    
   194   97   99 am   BACKBONE|DICT|INTERRES
   195   99  100 1    
   196   99  220 1    
   197  100  101 1    
   198  100  102 1    
   199  100  221 1    
   200  101  222 1    
   201  101  223 1    
   202  101  224 1    
   203  102  103 2    
   204  102  104 am   BACKBONE|DICT|INTERRES
   205  104  105 1    
   206  104  225 1    
   207  105  106 1    
   208  105  107 1    
   209  105  226 1    
   210  106  227 1    
   211  106  228 1    
   212  106  229 1    
   213  107  108 2    
   214  107  109 am   BACKBONE|DICT|INTERRES
   215  109  110 1    
   216  109  230 1    
   217  110  111 1    
   218  110  112 1    
   219  110  231 1    
   220  111  232 1    
   221  111  233 1    
   222  111  234 1    
   223  112  113 2    
   224  112  114 am   BACKBONE|DICT|INTERRES
   225  114  115 1    
   226  114  235 1    
   227  115  116 1    
   228  115  117 1    
   229  115  236 1    
   230  116  237 1    
   231  116  238 1    
   232  116  239 1    
   233  117  118 2    
   234  117  119 am   BACKBONE|DICT|INTERRES
   235  119  120 1    
   236  119  240 1    
   237  120  121 1    
   238  120  124 1    
   239  120  241 1    
   240  121  122 am   BACKBONE|DICT|INTERRES
   241  121  123 2    
   242  122  242 1    
   243  122  243 1    
   244  124  125 1    
   245  124  244 1    
   246  124  245 1    
   247  125  126 1    
   248  126  246 1    
   249  126  247 1    
@<TRIPOS>SUBSTRUCTURE
     1 UNK         1 GROUP             0       ****    0 ROOT    
