@<TRIPOS>MOLECULE
3R540
247   249    1
SMALL
USER_CHARGES


@<TRIPOS>ATOM
      1 CA         -2.8459  -16.1377  -44.8830 C.3       0 UNK        -0.1800 
      2 C          -2.4734  -15.4860  -46.2055 C.2       0 UNK         0.5000 
      3 O          -3.2076  -14.6230  -46.6864 O.2       0 UNK        -0.5000 
      4 N          -1.3353  -15.8956  -46.7831 N.am      1 UNK        -0.5000 
      5 CA         -0.7276  -15.2863  -47.9699 C.3       1 UNK         0.1400 
      6 C6         -0.0650  -16.3532  -48.8894 C.3       23 UNK        -0.0398 
      7 S7          0.0573  -15.7649  -50.6147 S.3       23 UNK        -0.2404 
      8 C8          1.5866  -16.5540  -51.2159 C.3       23 UNK        -0.0205 
      9 C9          1.3603  -17.9833  -51.6915 C.ar      23 UNK        -0.0193 
     10 C10         0.4629  -18.2437  -52.7324 C.ar      23 UNK        -0.1150 
     11 C11         0.2719  -19.5468  -53.1991 C.ar      23 UNK        -0.0193 
     12 C12         0.9793  -20.5972  -52.6114 C.ar      23 UNK        -0.1150 
     13 C13         1.8878  -20.3529  -51.5779 C.ar      23 UNK        -0.0193 
     14 C14         2.0771  -19.0418  -51.1251 C.ar      23 UNK        -0.1150 
     15 C15         2.6602  -21.5154  -50.9629 C.3       23 UNK        -0.0205 
     16 S16         2.5055  -21.6052  -49.1488 S.3       23 UNK        -0.2404 
     17 C17         0.7047  -21.4280  -48.9196 C.3       23 UNK        -0.0398 
     18 CA          0.1376  -22.3130  -47.7893 C.3       11 UNK         0.1400 
     19 N           0.8313  -22.0964  -46.5177 N.am      11 UNK        -0.5000 
     20 C           0.6323  -22.7679  -45.3785 C.2       10 UNK         0.5000 
     21 O          -0.2238  -23.6423  -45.2530 O.2       10 UNK        -0.5000 
     22 CA          1.4927  -22.3688  -44.1640 C.3       10 UNK         0.1400 
     23 CB          2.8392  -23.1151  -44.1601 C.3       10 UNK        -0.1800 
     24 N           1.6698  -20.9180  -44.0128 N.am      10 UNK        -0.5000 
     25 C           2.3476  -20.0588  -44.7890 C.2       9 UNK         0.5000 
     26 O           2.9896  -20.3870  -45.7857 O.2       9 UNK        -0.5000 
     27 CA          2.2431  -18.5703  -44.4226 C.3       9 UNK         0.1400 
     28 CB          0.9995  -17.9542  -45.0876 C.3       9 UNK        -0.1800 
     29 N           2.1867  -18.3430  -42.9795 N.am      9 UNK        -0.5000 
     30 C           3.2191  -18.5169  -42.1413 C.2       8 UNK         0.5000 
     31 O           4.3395  -18.8832  -42.4971 O.2       8 UNK        -0.5000 
     32 CA          2.9500  -18.2399  -40.6531 C.3       8 UNK         0.1400 
     33 CB          2.9792  -16.7322  -40.3605 C.3       8 UNK        -0.1800 
     34 N           1.6641  -18.7908  -40.2314 N.am      8 UNK        -0.5000 
     35 C           1.4636  -20.0746  -39.9029 C.2       7 UNK         0.5000 
     36 O           2.3546  -20.9240  -39.8793 O.2       7 UNK        -0.5000 
     37 CA          0.0215  -20.4808  -39.5436 C.3       7 UNK         0.1400 
     38 CB         -0.2132  -20.3531  -38.0308 C.3       7 UNK        -0.1800 
     39 N          -0.9853  -19.6898  -40.2528 N.am      7 UNK        -0.5000 
     40 C          -1.2260  -19.7849  -41.5663 C.2       6 UNK         0.5000 
     41 O          -0.6434  -20.5642  -42.3194 O.2       6 UNK        -0.5000 
     42 CA         -2.2574  -18.8096  -42.1506 C.3       6 UNK         0.1400 
     43 CB         -3.6754  -19.3928  -42.0734 C.3       6 UNK        -0.1800 
     44 N          -2.2294  -17.4761  -41.5422 N.am      6 UNK        -0.5000 
     45 C          -1.2005  -16.6268  -41.6539 C.2       5 UNK         0.5000 
     46 O          -0.1295  -16.9169  -42.1924 O.2       5 UNK        -0.5000 
     47 CA         -1.3910  -15.2177  -41.0889 C.3       5 UNK         0.1400 
     48 CB         -0.7134  -15.0720  -39.7166 C.3       5 UNK        -0.1800 
     49 N          -0.8094  -14.2833  -42.0455 N.am      5 UNK        -0.5000 
     50 C          -1.1816  -13.0108  -42.2192 C.2       4 UNK         0.5000 
     51 O          -2.0362  -12.4597  -41.5230 O.2       4 UNK        -0.5000 
     52 CA         -0.5327  -12.2313  -43.3855 C.3       4 UNK         0.1400 
     53 CB         -0.3053  -10.7425  -43.0493 C.3       4 UNK        -0.1800 
     54 N           0.6865  -12.8378  -43.9366 N.am      4 UNK        -0.5000 
     55 C           1.8792  -12.9820  -43.3360 C.2       3 UNK         0.5000 
     56 O           2.1021  -12.6511  -42.1715 O.2       3 UNK        -0.5000 
     57 CA          3.0205  -13.6170  -44.1611 C.3       3 UNK         0.1400 
     58 CB          3.3402  -15.0218  -43.6328 C.3       3 UNK        -0.1800 
     59 N           2.7319  -13.7050  -45.5956 N.am      3 UNK        -0.5000 
     60 C           2.8014  -12.6732  -46.4485 C.2       2 UNK         0.5000 
     61 O           3.1729  -11.5454  -46.1221 O.2       2 UNK        -0.5000 
     62 CA          2.3675  -12.9308  -47.9080 C.3       2 UNK         0.1400 
     63 CB          3.5961  -13.1999  -48.7905 C.3       2 UNK        -0.1800 
     64 N           1.4028  -14.0215  -48.1031 N.am      2 UNK        -0.5000 
     65 C           0.1943  -14.1196  -47.5308 C.2       1 UNK         0.5000 
     66 O          -0.1990  -13.3275  -46.6719 O.2       1 UNK        -0.5000 
     67 C          -1.3824  -22.0859  -47.6907 C.2       11 UNK         0.5000 
     68 O          -2.1369  -22.7593  -48.3895 O.2       11 UNK        -0.5000 
     69 N          -1.8112  -21.1406  -46.8440 N.am      12 UNK        -0.5000 
     70 CA         -3.2251  -20.8466  -46.6070 C.3       12 UNK         0.1400 
     71 CB         -3.3673  -19.4157  -46.0773 C.3       12 UNK        -0.1800 
     72 C          -3.8823  -21.8643  -45.6589 C.2       12 UNK         0.5000 
     73 O          -5.0589  -22.1745  -45.8388 O.2       12 UNK        -0.5000 
     74 N          -3.1088  -22.4069  -44.7063 N.am      13 UNK        -0.5000 
     75 CA         -3.5355  -23.4982  -43.8252 C.3       13 UNK         0.1400 
     76 CB         -2.5717  -23.6101  -42.6337 C.3       13 UNK        -0.1800 
     77 C          -3.6437  -24.8350  -44.5849 C.2       13 UNK         0.5000 
     78 O          -4.5710  -25.6061  -44.3383 O.2       13 UNK        -0.5000 
     79 N          -2.7234  -25.0541  -45.5347 N.am      14 UNK        -0.5000 
     80 CA         -2.7318  -26.1652  -46.4903 C.3       14 UNK         0.1400 
     81 CB         -1.3296  -26.2845  -47.1085 C.3       14 UNK        -0.1800 
     82 C          -3.7932  -26.0148  -47.6027 C.2       14 UNK         0.5000 
     83 O          -4.0328  -26.9737  -48.3365 O.2       14 UNK        -0.5000 
     84 N          -4.3848  -24.8164  -47.7189 N.am      15 UNK        -0.5000 
     85 CA         -5.3912  -24.3785  -48.6927 C.3       15 UNK         0.1400 
     86 CB         -6.6663  -25.2422  -48.6187 C.3       15 UNK        -0.1800 
     87 C          -4.8647  -24.2316  -50.1353 C.2       15 UNK         0.5000 
     88 O          -5.6590  -23.9991  -51.0457 O.2       15 UNK        -0.5000 
     89 N          -3.5414  -24.2886  -50.3284 N.am      16 UNK        -0.5000 
     90 CA         -2.8658  -24.0425  -51.6029 C.3       16 UNK         0.1400 
     91 CB         -1.3800  -24.4126  -51.4732 C.3       16 UNK        -0.1800 
     92 C          -3.0263  -22.5836  -52.0637 C.2       16 UNK         0.5000 
     93 O          -3.3232  -22.3441  -53.2328 O.2       16 UNK        -0.5000 
     94 N          -2.8955  -21.6453  -51.1143 N.am      17 UNK        -0.5000 
     95 CA         -3.0982  -20.2087  -51.3320 C.3       17 UNK         0.1400 
     96 CB         -2.3302  -19.4168  -50.2618 C.3       17 UNK        -0.1800 
     97 C          -4.5849  -19.7954  -51.3835 C.2       17 UNK         0.5000 
     98 O          -4.8758  -18.6317  -51.6619 O.2       17 UNK        -0.5000 
     99 N          -5.4975  -20.7384  -51.1116 N.am      18 UNK        -0.5000 
    100 CA        -6.9356  -20.5774  -51.3162 C.3       18 UNK         0.1400 
    101 CB        -7.7018  -21.2765  -50.1813 C.3       18 UNK        -0.1800 
    102 C         -7.3448  -21.1358  -52.6905 C.2       18 UNK         0.5000 
    103 O         -8.1142  -20.4893  -53.4021 O.2       18 UNK        -0.5000 
    104 N         -6.8206  -22.3198  -53.0416 N.am      19 UNK        -0.5000 
    105 CA        -7.0841  -23.0193  -54.2990 C.3       19 UNK         0.1400 
    106 CB        -6.5372  -24.4519  -54.2012 C.3       19 UNK        -0.1800 
    107 C         -6.5059  -22.3081  -55.5359 C.2       19 UNK         0.5000 
    108 O         -7.1546  -22.3051  -56.5834 O.2       19 UNK        -0.5000 
    109 N         -5.3110  -21.7231  -55.3979 N.am      20 UNK        -0.5000 
    110 CA        -4.6250  -20.9594  -56.4353 C.3       20 UNK         0.1400 
    111 CB        -3.3597  -21.7216  -56.8604 C.3       20 UNK        -0.1800 
    112 C         -4.2554  -19.5757  -55.8877 C.2       20 UNK         0.5000 
    113 O         -3.9798  -19.4432  -54.6950 O.2       20 UNK        -0.5000 
    114 N         -4.2311  -18.5724  -56.7733 N.am      21 UNK        -0.5000 
    115 CA        -3.7983  -17.2106  -56.4501 C.3       21 UNK         0.1400 
    116 CB        -4.4554  -16.2268  -57.4308 C.3       21 UNK        -0.1800 
    117 C         -2.2654  -17.0626  -56.4860 C.2       21 UNK         0.5000 
    118 O         -1.7174  -16.2664  -55.7238 O.2       21 UNK        -0.5000 
    119 N         -1.6103  -17.8314  -57.3692 N.am      22 UNK        -0.5000 
    120 CA        -0.1514  -17.8646  -57.5963 C.3       22 UNK         0.1400 
    121 C          0.4565  -16.5453  -58.1695 C.2       22 UNK         0.5000 
    122 N         -0.3351  -15.6462  -58.7417 N.am      22 UNK        -0.7600 
    123 O          1.6673  -16.3426  -58.1308 O.2       22 UNK        -0.5000 
    124 C124        0.6446  -18.4090  -56.3764 C.3       23 UNK        -0.0398 
    125 S125        0.1445  -20.1041  -55.9159 S.3       23 UNK        -0.2404 
    126 C126       -0.7033  -19.8272  -54.3309 C.3       23 UNK        -0.0205 
    127 H127       -2.9540  -15.3787  -44.1083 H         1 UNK         0.0600 
    128 H128       -3.7921  -16.6706  -44.9743 H         1 UNK         0.0600 
    129 H129       -2.0815  -16.8428  -44.5622 H         1 UNK         0.0600 
    130 H130       -0.7794  -16.5974  -46.3197 H         1 UNK         0.3000 
    131 H131       -1.5274  -14.8215  -48.5507 H         1 UNK         0.0600 
    132 H132       -0.6811  -17.2529  -48.9132 H         1 UNK         0.0800 
    133 H133        0.9061  -16.6741  -48.5093 H         1 UNK         0.0800 
    134 H134        2.3576  -16.5096  -50.4454 H         1 UNK         0.0800 
    135 H135        1.9660  -15.9717  -52.0566 H         1 UNK         0.0800 
    136 H136       -0.0858  -17.4267  -53.1806 H         1 UNK         0.1150 
    137 H137        0.8270  -21.6052  -52.9714 H         1 UNK         0.1150 
    138 H138        2.7831  -18.8502  -50.3293 H         1 UNK         0.1150 
    139 H139        2.3265  -22.4655  -51.3830 H         1 UNK         0.0800 
    140 H140        3.7147  -21.4172  -51.2236 H         1 UNK         0.0800 
    141 H141        0.5032  -20.3728  -48.7249 H         1 UNK         0.0800 
    142 H142        0.2039  -21.6701  -49.8588 H         1 UNK         0.0800 
    143 H143        0.2911  -23.3579  -48.0656 H         1 UNK         0.0600 
    144 H144        1.5989  -21.4294  -46.5313 H         1 UNK         0.3000 
    145 H145        0.9424  -22.6876  -43.2773 H         1 UNK         0.0600 
    146 H146        3.4272  -22.8595  -43.2785 H         1 UNK         0.0600 
    147 H147        2.6826  -24.1943  -44.1459 H         1 UNK         0.0600 
    148 H148        3.4383  -22.8868  -45.0419 H         1 UNK         0.0600 
    149 H149        1.1117  -20.5226  -43.2626 H         1 UNK         0.3000 
    150 H150        3.1285  -18.0657  -44.8153 H         1 UNK         0.0600 
    151 H151        0.9368  -16.8835  -44.8969 H         1 UNK         0.0600 
    152 H152        0.0812  -18.4126  -44.7186 H         1 UNK         0.0600 
    153 H153        1.0282  -18.0935  -46.1691 H         1 UNK         0.0600 
    154 H154        1.3118  -17.9763  -42.6124 H         1 UNK         0.3000 
    155 H155        3.7461  -18.7093  -40.0710 H         1 UNK         0.0600 
    156 H156        2.7825  -16.5300  -39.3076 H         1 UNK         0.0600 
    157 H157        2.2402  -16.1892  -40.9502 H         1 UNK         0.0600 
    158 H158        3.9585  -16.3126  -40.5926 H         1 UNK         0.0600 
    159 H159        0.8701  -18.1690  -40.2640 H         1 UNK         0.3000 
    160 H160       -0.1070  -21.5290  -39.8226 H         1 UNK         0.0600 
    161 H161       -0.1151  -19.3205  -37.6931 H         1 UNK         0.0600 
    162 H162        0.5081  -20.9511  -37.4721 H         1 UNK         0.0600 
    163 H163       -1.2076  -20.7044  -37.7549 H         1 UNK         0.0600 
    164 H164       -1.5099  -19.0192  -39.7106 H         1 UNK         0.3000 
    165 H165       -1.9975  -18.6904  -43.2006 H         1 UNK         0.0600 
    166 H166       -4.0107  -19.5023  -41.0414 H         1 UNK         0.0600 
    167 H167       -4.3910  -18.7568  -42.5949 H         1 UNK         0.0600 
    168 H168       -3.7202  -20.3777  -42.5401 H         1 UNK         0.0600 
    169 H169       -3.0737  -17.1734  -41.0776 H         1 UNK         0.3000 
    170 H170       -2.4606  -15.0206  -40.9902 H         1 UNK         0.0600 
    171 H171       -1.1099  -15.7959  -39.0037 H         1 UNK         0.0600 
    172 H172        0.3638  -15.2259  -39.7803 H         1 UNK         0.0600 
    173 H173       -0.8818  -14.0793  -39.2989 H         1 UNK         0.0600 
    174 H174       -0.1151  -14.6870  -42.6599 H         1 UNK         0.3000 
    175 H175       -1.2620  -12.2682  -44.1961 H         1 UNK         0.0600 
    176 H176        0.1353  -10.2111  -43.8929 H         1 UNK         0.0600 
    177 H177       -1.2466  -10.2454  -42.8119 H         1 UNK         0.0600 
    178 H178        0.3542  -10.6162  -42.1904 H         1 UNK         0.0600 
    179 H179        0.6012  -13.1282  -44.9067 H         1 UNK         0.3000 
    180 H180        3.9087  -12.9962  -44.0252 H         1 UNK         0.0600 
    181 H181        2.4510  -15.6495  -43.6097 H         1 UNK         0.0600 
    182 H182        4.0955  -15.5203  -44.2406 H         1 UNK         0.0600 
    183 H183        3.7288  -14.9681  -42.6161 H         1 UNK         0.0600 
    184 H184        2.4265  -14.5991  -45.9484 H         1 UNK         0.3000 
    185 H185        1.8903  -12.0147  -48.2620 H         1 UNK         0.0600 
    186 H186        3.3198  -13.2693  -49.8429 H         1 UNK         0.0600 
    187 H187        4.3272  -12.3951  -48.7015 H         1 UNK         0.0600 
    188 H188        4.0949  -14.1289  -48.5115 H         1 UNK         0.0600 
    189 H189        1.6413  -14.6907  -48.8202 H         1 UNK         0.3000 
    190 H190       -1.1313  -20.6235  -46.3075 H         1 UNK         0.3000 
    191 H191       -3.7632  -20.9015  -47.5561 H         1 UNK         0.0600 
    192 H192       -4.4114  -19.1723  -45.8755 H         1 UNK         0.0600 
    193 H193       -2.8121  -19.2799  -45.1531 H         1 UNK         0.0600 
    194 H194       -2.9980  -18.6899  -46.8020 H         1 UNK         0.0600 
    195 H195       -2.1394  -22.1331  -44.6447 H         1 UNK         0.3000 
    196 H196       -4.5262  -23.2566  -43.4339 H         1 UNK         0.0600 
    197 H197       -2.8838  -24.4044  -41.9547 H         1 UNK         0.0600 
    198 H198       -2.5464  -22.6846  -42.0588 H         1 UNK         0.0600 
    199 H199       -1.5534  -23.8336  -42.9517 H         1 UNK         0.0600 
    200 H200       -1.9378  -24.4122  -45.5980 H         1 UNK         0.3000 
    201 H201       -2.9502  -27.0872  -45.9479 H         1 UNK         0.0600 
    202 H202       -0.5694  -26.4245  -46.3397 H         1 UNK         0.0600 
    203 H203       -1.0669  -25.3943  -47.6804 H         1 UNK         0.0600 
    204 H204       -1.2693  -27.1384  -47.7844 H         1 UNK         0.0600 
    205 H205       -4.0891  -24.1031  -47.0678 H         1 UNK         0.3000 
    206 H206       -5.6696  -23.3700  -48.3839 H         1 UNK         0.0600 
    207 H207       -7.0310  -25.3192  -47.5943 H         1 UNK         0.0600 
    208 H208       -7.4688  -24.8069  -49.2152 H         1 UNK         0.0600 
    209 H209       -6.4970  -26.2517  -48.9934 H         1 UNK         0.0600 
    210 H210       -2.9519  -24.3588  -49.5089 H         1 UNK         0.3000 
    211 H211       -3.3181  -24.6872  -52.3594 H         1 UNK         0.0600 
    212 H212       -0.8793  -23.8204  -50.7068 H         1 UNK         0.0600 
    213 H213       -0.8529  -24.2458  -52.4135 H         1 UNK         0.0600 
    214 H214       -1.2586  -25.4645  -51.2142 H         1 UNK         0.0600 
    215 H215       -2.6825  -21.9470  -50.1697 H         1 UNK         0.3000 
    216 H216       -2.6741  -19.9428  -52.3004 H         1 UNK         0.0600 
    217 H217       -2.4346  -18.3430  -50.4223 H         1 UNK         0.0600 
    218 H218       -1.2645  -19.6394  -50.2995 H         1 UNK         0.0600 
    219 H219       -2.6914  -19.6341  -49.2584 H         1 UNK         0.0600 
    220 H220       -5.1695  -21.6721  -50.9157 H         1 UNK         0.3000 
    221 H221       -7.2027  -19.5188  -51.2901 H         1 UNK         0.0600 
    222 H222       -7.5337  -22.3529  -50.1725 H         1 UNK         0.0600 
    223 H223       -7.4080  -20.8839  -49.2076 H         1 UNK         0.0600 
    224 H224       -8.7756  -21.1172  -50.2854 H         1 UNK         0.0600 
    225 H225       -6.2552  -22.8285  -52.3678 H         1 UNK         0.3000 
    226 H226       -8.1668  -23.0782  -54.4276 H         1 UNK         0.0600 
    227 H227       -6.7282  -25.0087  -55.1195 H         1 UNK         0.0600 
    228 H228       -5.4600  -24.4585  -54.0289 H         1 UNK         0.0600 
    229 H229       -7.0092  -24.9990  -53.3848 H         1 UNK         0.0600 
    230 H230       -4.8342  -21.7547  -54.5011 H         1 UNK         0.3000 
    231 H231       -5.2669  -20.8241  -57.3081 H         1 UNK         0.0600 
    232 H232       -2.8083  -21.1749  -57.6262 H         1 UNK         0.0600 
    233 H233       -3.6095  -22.6992  -57.2727 H         1 UNK         0.0600 
    234 H234       -2.6838  -21.8774  -56.0182 H         1 UNK         0.0600 
    235 H235       -4.4901  -18.7520  -57.7328 H         1 UNK         0.3000 
    236 H236       -4.1343  -16.9559  -55.4423 H         1 UNK         0.0600 
    237 H237       -4.1708  -16.4323  -58.4634 H         1 UNK         0.0600 
    238 H238       -5.5426  -16.2750  -57.3666 H         1 UNK         0.0600 
    239 H239       -4.1635  -15.1998  -57.2074 H         1 UNK         0.0600 
    240 H240       -2.1515  -18.4538  -57.9496 H         1 UNK         0.3000 
    241 H241       -0.0106  -18.5831  -58.4044 H         1 UNK         0.0600 
    242 H242        0.0658  -14.8021  -59.1202 H         1 UNK         0.3800 
    243 H243       -1.3290  -15.7980  -58.7974 H         1 UNK         0.3800 
    244 H244        0.5487  -17.7356  -55.5253 H         1 UNK         0.0800 
    245 H245        1.7111  -18.4512  -56.6027 H         1 UNK         0.0800 
    246 H246       -1.4141  -19.0076  -54.4321 H         1 UNK         0.0800 
    247 H247       -1.2907  -20.7147  -54.0936 H         1 UNK         0.0800 
@<TRIPOS>BOND
     1    1    2 1    
     2    1  127 1    
     3    1  128 1    
     4    1  129 1    
     5    2    3 2    
     6    2    4 am   BACKBONE|DICT|INTERRES
     7    4    5 1    
     8    4  130 1    
     9    5    6 1    
    10    5   65 1    
    11    5  131 1    
    12    6    7 1    
    13    6  132 1    
    14    6  133 1    
    15    7    8 1    
    16    8    9 1    
    17    8  134 1    
    18    8  135 1    
    19    9   10 ar   
    20    9   14 ar   
    21   10   11 ar   
    22   10  136 1    
    23   11   12 ar   
    24   11  126 1    
    25   12   13 ar   
    26   12  137 1    
    27   13   14 ar   
    28   13   15 1    
    29   14  138 1    
    30   15   16 1    
    31   15  139 1    
    32   15  140 1    
    33   16   17 1    
    34   17   18 1    
    35   17  141 1    
    36   17  142 1    
    37   18   19 1    
    38   18   67 1    
    39   18  143 1    
    40   19   20 am   BACKBONE|DICT|INTERRES
    41   19  144 1    
    42   20   21 2    
    43   20   22 1    
    44   22   23 1    
    45   22   24 1    
    46   22  145 1    
    47   23  146 1    
    48   23  147 1    
    49   23  148 1    
    50   24   25 am   BACKBONE|DICT|INTERRES
    51   24  149 1    
    52   25   26 2    
    53   25   27 1    
    54   27   28 1    
    55   27   29 1    
    56   27  150 1    
    57   28  151 1    
    58   28  152 1    
    59   28  153 1    
    60   29   30 am   BACKBONE|DICT|INTERRES
    61   29  154 1    
    62   30   31 2    
    63   30   32 1    
    64   32   33 1    
    65   32   34 1    
    66   32  155 1    
    67   33  156 1    
    68   33  157 1    
    69   33  158 1    
    70   34   35 am   BACKBONE|DICT|INTERRES
    71   34  159 1    
    72   35   36 2    
    73   35   37 1    
    74   37   38 1    
    75   37   39 1    
    76   37  160 1    
    77   38  161 1    
    78   38  162 1    
    79   38  163 1    
    80   39   40 am   BACKBONE|DICT|INTERRES
    81   39  164 1    
    82   40   41 2    
    83   40   42 1    
    84   42   43 1    
    85   42   44 1    
    86   42  165 1    
    87   43  166 1    
    88   43  167 1    
    89   43  168 1    
    90   44   45 am   BACKBONE|DICT|INTERRES
    91   44  169 1    
    92   45   46 2    
    93   45   47 1    
    94   47   48 1    
    95   47   49 1    
    96   47  170 1    
    97   48  171 1    
    98   48  172 1    
    99   48  173 1    
   100   49   50 am   BACKBONE|DICT|INTERRES
   101   49  174 1    
   102   50   51 2    
   103   50   52 1    
   104   52   53 1    
   105   52   54 1    
   106   52  175 1    
   107   53  176 1    
   108   53  177 1    
   109   53  178 1    
   110   54   55 am   BACKBONE|DICT|INTERRES
   111   54  179 1    
   112   55   56 2    
   113   55   57 1    
   114   57   58 1    
   115   57   59 1    
   116   57  180 1    
   117   58  181 1    
   118   58  182 1    
   119   58  183 1    
   120   59   60 am   BACKBONE|DICT|INTERRES
   121   59  184 1    
   122   60   61 2    
   123   60   62 1    
   124   62   63 1    
   125   62   64 1    
   126   62  185 1    
   127   63  186 1    
   128   63  187 1    
   129   63  188 1    
   130   64   65 am   BACKBONE|DICT|INTERRES
   131   64  189 1    
   132   65   66 2    
   133   67   68 2    
   134   67   69 am   BACKBONE|DICT|INTERRES
   135   69   70 1    
   136   69  190 1    
   137   70   71 1    
   138   70   72 1    
   139   70  191 1    
   140   71  192 1    
   141   71  193 1    
   142   71  194 1    
   143   72   73 2    
   144   72   74 am   BACKBONE|DICT|INTERRES
   145   74   75 1    
   146   74  195 1    
   147   75   76 1    
   148   75   77 1    
   149   75  196 1    
   150   76  197 1    
   151   76  198 1    
   152   76  199 1    
   153   77   78 2    
   154   77   79 am   BACKBONE|DICT|INTERRES
   155   79   80 1    
   156   79  200 1    
   157   80   81 1    
   158   80   82 1    
   159   80  201 1    
   160   81  202 1    
   161   81  203 1    
   162   81  204 1    
   163   82   83 2    
   164   82   84 am   BACKBONE|DICT|INTERRES
   165   84   85 1    
   166   84  205 1    
   167   85   86 1    
   168   85   87 1    
   169   85  206 1    
   170   86  207 1    
   171   86  208 1    
   172   86  209 1    
   173   87   88 2    
   174   87   89 am   BACKBONE|DICT|INTERRES
   175   89   90 1    
   176   89  210 1    
   177   90   91 1    
   178   90   92 1    
   179   90  211 1    
   180   91  212 1    
   181   91  213 1    
   182   91  214 1    
   183   92   93 2    
   184   92   94 am   BACKBONE|DICT|INTERRES
   185   94   95 1    
   186   94  215 1    
   187   95   96 1    
   188   95   97 1    
   189   95  216 1    
   190   96  217 1    
   191   96  218 1    
   192   96  219 1    
   193   97   98 2    
   194   97   99 am   BACKBONE|DICT|INTERRES
   195   99  100 1    
   196   99  220 1    
   197  100  101 1    
   198  100  102 1    
   199  100  221 1    
   200  101  222 1    
   201  101  223 1    
   202  101  224 1    
   203  102  103 2    
   204  102  104 am   BACKBONE|DICT|INTERRES
   205  104  105 1    
   206  104  225 1    
   207  105  106 1    
   208  105  107 1    
   209  105  226 1    
   210  106  227 1    
   211  106  228 1    
   212  106  229 1    
   213  107  108 2    
   214  107  109 am   BACKBONE|DICT|INTERRES
   215  109  110 1    
   216  109  230 1    
   217  110  111 1    
   218  110  112 1    
   219  110  231 1    
   220  111  232 1    
   221  111  233 1    
   222  111  234 1    
   223  112  113 2    
   224  112  114 am   BACKBONE|DICT|INTERRES
   225  114  115 1    
   226  114  235 1    
   227  115  116 1    
   228  115  117 1    
   229  115  236 1    
   230  116  237 1    
   231  116  238 1    
   232  116  239 1    
   233  117  118 2    
   234  117  119 am   BACKBONE|DICT|INTERRES
   235  119  120 1    
   236  119  240 1    
   237  120  121 1    
   238  120  124 1    
   239  120  241 1    
   240  121  122 am   BACKBONE|DICT|INTERRES
   241  121  123 2    
   242  122  242 1    
   243  122  243 1    
   244  124  125 1    
   245  124  244 1    
   246  124  245 1    
   247  125  126 1    
   248  126  246 1    
   249  126  247 1    
@<TRIPOS>SUBSTRUCTURE
     1 UNK         1 GROUP             0       ****    0 ROOT    
