@<TRIPOS>MOLECULE
3R540
247   249    1
SMALL
USER_CHARGES


@<TRIPOS>ATOM
      1 CA          2.2019  -16.6840  -52.7617 C.3       0 UNK        -0.1800 
      2 C           1.4805  -17.0993  -51.4888 C.2       0 UNK         0.5000 
      3 O           1.5958  -18.2505  -51.0682 O.2       0 UNK        -0.5000 
      4 N           0.7372  -16.1727  -50.8699 N.am      1 UNK        -0.5000 
      5 CA         -0.0465  -16.3775  -49.6449 C.3       1 UNK         0.1400 
      6 C6         -1.2498  -15.3976  -49.5860 C.3       23 UNK        -0.0398 
      7 S7         -2.5488  -15.9234  -48.4107 S.3       23 UNK        -0.2404 
      8 C8         -4.0788  -15.9488  -49.4162 C.3       23 UNK        -0.0205 
      9 C9         -4.6737  -17.3300  -49.7089 C.ar      23 UNK        -0.0193 
     10 C10        -5.8017  -17.4000  -50.5332 C.ar      23 UNK        -0.1150 
     11 C11        -6.4242  -18.6197  -50.8202 C.ar      23 UNK        -0.0193 
     12 C12        -5.8966  -19.7922  -50.2652 C.ar      23 UNK        -0.1150 
     13 C13        -4.7631  -19.7454  -49.4504 C.ar      23 UNK        -0.0193 
     14 C14        -4.1573  -18.5177  -49.1750 C.ar      23 UNK        -0.1150 
     15 C15        -4.1752  -21.0230  -48.8800 C.3       23 UNK        -0.0205 
     16 S16        -4.7012  -21.3160  -47.1671 S.3       23 UNK        -0.2404 
     17 C17        -3.5361  -22.6419  -46.7054 C.3       23 UNK        -0.0398 
     18 CA         -2.4237  -22.1207  -45.7547 C.3       11 UNK         0.1400 
     19 N          -2.9289  -21.6521  -44.4555 N.am      11 UNK        -0.5000 
     20 C          -3.5100  -22.3935  -43.4999 C.2       10 UNK         0.5000 
     21 O          -3.8186  -23.5772  -43.6412 O.2       10 UNK        -0.5000 
     22 CA         -3.7402  -21.7209  -42.1323 C.3       10 UNK         0.1400 
     23 CB         -2.6444  -22.1521  -41.1450 C.3       10 UNK        -0.1800 
     24 N          -3.7618  -20.2596  -42.1983 N.am      10 UNK        -0.5000 
     25 C          -4.7930  -19.5403  -42.6606 C.2       9 UNK         0.5000 
     26 O          -5.8580  -20.0322  -43.0355 O.2       9 UNK        -0.5000 
     27 CA         -4.5949  -18.0152  -42.7280 C.3       9 UNK         0.1400 
     28 CB         -4.8809  -17.3711  -41.3629 C.3       9 UNK        -0.1800 
     29 N          -3.2552  -17.6312  -43.1753 N.am      9 UNK        -0.5000 
     30 C          -2.7582  -17.8790  -44.3963 C.2       8 UNK         0.5000 
     31 O          -3.3760  -18.4600  -45.2863 O.2       8 UNK        -0.5000 
     32 CA         -1.3097  -17.4355  -44.6496 C.3       8 UNK         0.1400 
     33 CB         -1.2340  -15.9096  -44.8132 C.3       8 UNK        -0.1800 
     34 N          -0.4154  -17.8493  -43.5711 N.am      8 UNK        -0.5000 
     35 C          -0.1146  -19.1132  -43.2454 C.2       7 UNK         0.5000 
     36 O          -0.4982  -20.0996  -43.8726 O.2       7 UNK        -0.5000 
     37 CA          0.7418  -19.3142  -41.9848 C.3       7 UNK         0.1400 
     38 CB          2.2369  -19.2467  -42.3241 C.3       7 UNK        -0.1800 
     39 N           0.4304  -18.3418  -40.9385 N.am      7 UNK        -0.5000 
     40 C          -0.7217  -18.3116  -40.2538 C.2       6 UNK         0.5000 
     41 O          -1.6433  -19.1096  -40.4252 O.2       6 UNK        -0.5000 
     42 CA         -0.8816  -17.1650  -39.2407 C.3       6 UNK         0.1400 
     43 CB         -0.1318  -17.4788  -37.9374 C.3       6 UNK        -0.1800 
     44 N          -0.4148  -15.8858  -39.7781 N.am      6 UNK        -0.5000 
     45 C          -1.0159  -15.2324  -40.7817 C.2       5 UNK         0.5000 
     46 O          -2.0402  -15.6288  -41.3375 O.2       5 UNK        -0.5000 
     47 CA         -0.3377  -13.9397  -41.2714 C.3       5 UNK         0.1400 
     48 CB         -0.7656  -12.7453  -40.4055 C.3       5 UNK        -0.1800 
     49 N           1.1271  -14.0121  -41.3119 N.am      5 UNK        -0.5000 
     50 C           1.8266  -14.8677  -42.0678 C.2       4 UNK         0.5000 
     51 O           1.3175  -15.7645  -42.7430 O.2       4 UNK        -0.5000 
     52 CA          3.3509  -14.7184  -42.0609 C.3       4 UNK         0.1400 
     53 CB          3.9816  -15.5903  -40.9614 C.3       4 UNK        -0.1800 
     54 N           3.8427  -15.1301  -43.3716 N.am      4 UNK        -0.5000 
     55 C           4.9825  -14.7239  -43.9434 C.2       3 UNK         0.5000 
     56 O           5.7762  -13.9593  -43.3925 O.2       3 UNK        -0.5000 
     57 CA          5.2993  -15.2477  -45.3599 C.3       3 UNK         0.1400 
     58 CB          6.7198  -15.8356  -45.4392 C.3       3 UNK        -0.1800 
     59 N           4.3433  -16.2654  -45.8060 N.am      3 UNK        -0.5000 
     60 C           3.7376  -16.2933  -47.0004 C.2       2 UNK         0.5000 
     61 O           3.9333  -15.4556  -47.8845 O.2       2 UNK        -0.5000 
     62 CA          2.7983  -17.4929  -47.2638 C.3       2 UNK         0.1400 
     63 CB          2.0788  -17.9919  -45.9924 C.3       2 UNK        -0.1800 
     64 N           1.8233  -17.2608  -48.3343 N.am      2 UNK        -0.5000 
     65 C           0.8658  -16.3252  -48.3938 C.2       1 UNK         0.5000 
     66 O           0.7037  -15.4550  -47.5380 O.2       1 UNK        -0.5000 
     67 C          -1.2583  -23.1245  -45.5741 C.2       11 UNK         0.5000 
     68 O          -1.0911  -24.0402  -46.3802 O.2       11 UNK        -0.5000 
     69 N          -0.4767  -22.9340  -44.5020 N.am      12 UNK        -0.5000 
     70 CA          0.5625  -23.8535  -44.0417 C.3       12 UNK         0.1400 
     71 CB          0.8118  -23.6120  -42.5450 C.3       12 UNK        -0.1800 
     72 C           1.8745  -23.7221  -44.8302 C.2       12 UNK         0.5000 
     73 O           2.5699  -24.7216  -45.0139 O.2       12 UNK        -0.5000 
     74 N           2.1863  -22.4982  -45.2739 N.am      13 UNK        -0.5000 
     75 CA          3.3968  -22.1680  -46.0318 C.3       13 UNK         0.1400 
     76 CB          4.3491  -21.3541  -45.1377 C.3       13 UNK        -0.1800 
     77 C           3.0675  -21.4301  -47.3416 C.2       13 UNK         0.5000 
     78 O           3.9710  -20.8725  -47.9657 O.2       13 UNK        -0.5000 
     79 N           1.7866  -21.4259  -47.7369 N.am      14 UNK        -0.5000 
     80 CA          1.3195  -20.8651  -49.0029 C.3       14 UNK         0.1400 
     81 CB         -0.2041  -20.6802  -48.9381 C.3       14 UNK        -0.1800 
     82 C           1.7371  -21.7487  -50.1936 C.2       14 UNK         0.5000 
     83 O           1.9037  -22.9588  -50.0205 O.2       14 UNK        -0.5000 
     84 N           1.8973  -21.1263  -51.3675 N.am      15 UNK        -0.5000 
     85 CA          2.3647  -21.7140  -52.6276 C.3       15 UNK         0.1400 
     86 CB          2.4059  -20.6059  -53.6939 C.3       15 UNK        -0.1800 
     87 C           1.5234  -22.9222  -53.0927 C.2       15 UNK         0.5000 
     88 O           0.4952  -22.7455  -53.7457 O.2       15 UNK        -0.5000 
     89 N           1.9635  -24.1294  -52.7081 N.am      16 UNK        -0.5000 
     90 CA          1.2640  -25.4122  -52.8608 C.3       16 UNK         0.1400 
     91 CB          1.1368  -25.8042  -54.3484 C.3       16 UNK        -0.1800 
     92 C          -0.0837  -25.4482  -52.1032 C.2       16 UNK         0.5000 
     93 O          -1.0382  -26.0724  -52.5695 O.2       16 UNK        -0.5000 
     94 N          -0.1248  -24.7683  -50.9457 N.am      17 UNK        -0.5000 
     95 CA         -1.2786  -24.5719  -50.0626 C.3       17 UNK         0.1400 
     96 CB         -1.7226  -25.9051  -49.4258 C.3       17 UNK        -0.1800 
     97 C          -2.4343  -23.8058  -50.7430 C.2       17 UNK         0.5000 
     98 O          -3.6028  -24.1191  -50.5116 O.2       17 UNK        -0.5000 
     99 N          -2.0892  -22.8098  -51.5670 N.am      18 UNK        -0.5000 
    100 CA        -3.0098  -21.9709  -52.3270 C.3       18 UNK         0.1400 
    101 CB        -3.4190  -22.7047  -53.6158 C.3       18 UNK        -0.1800 
    102 C         -2.3313  -20.6314  -52.6488 C.2       18 UNK         0.5000 
    103 O         -1.1124  -20.5153  -52.5175 O.2       18 UNK        -0.5000 
    104 N         -3.1291  -19.6527  -53.0844 N.am      19 UNK        -0.5000 
    105 CA        -2.7039  -18.3517  -53.5898 C.3       19 UNK         0.1400 
    106 CB        -2.0754  -17.5028  -52.4719 C.3       19 UNK        -0.1800 
    107 C         -3.9313  -17.6363  -54.1680 C.2       19 UNK         0.5000 
    108 O         -5.0612  -17.9848  -53.8155 O.2       19 UNK        -0.5000 
    109 N         -3.6881  -16.6323  -55.0215 N.am      20 UNK        -0.5000 
    110 CA        -4.6816  -15.7292  -55.6139 C.3       20 UNK         0.1400 
    111 CB        -5.1484  -14.7089  -54.5497 C.3       20 UNK        -0.1800 
    112 C         -5.8352  -16.4930  -56.3035 C.2       20 UNK         0.5000 
    113 O         -5.5748  -17.2923  -57.2055 O.2       20 UNK        -0.5000 
    114 N         -7.0749  -16.2708  -55.8457 N.am      21 UNK        -0.5000 
    115 CA        -8.2987  -16.9164  -56.3271 C.3       21 UNK         0.1400 
    116 CB        -9.5048  -16.2582  -55.6390 C.3       21 UNK        -0.1800 
    117 C         -8.3377  -18.4457  -56.1273 C.2       21 UNK         0.5000 
    118 O         -9.0845  -19.1210  -56.8373 O.2       21 UNK        -0.5000 
    119 N         -7.5374  -18.9660  -55.1878 N.am      22 UNK        -0.5000 
    120 CA        -7.3498  -20.4066  -54.9615 C.3       22 UNK         0.1400 
    121 C         -6.3286  -21.0576  -55.9410 C.2       22 UNK         0.5000 
    122 N         -5.6028  -20.3057  -56.7624 N.am      22 UNK        -0.7600 
    123 O         -6.2020  -22.2782  -55.9671 O.2       22 UNK        -0.5000 
    124 C124       -6.9869  -20.7205  -53.4860 C.3       23 UNK        -0.0398 
    125 S125       -8.2854  -20.2180  -52.3048 S.3       23 UNK        -0.2404 
    126 C126       -7.6717  -18.6003  -51.7089 C.3       23 UNK        -0.0205 
    127 H127        2.0251  -15.6363  -53.0054 H         1 UNK         0.0600 
    128 H128        1.8586  -17.2919  -53.5989 H         1 UNK         0.0600 
    129 H129        3.2757  -16.8325  -52.6488 H         1 UNK         0.0600 
    130 H130        0.7206  -15.2341  -51.2425 H         1 UNK         0.3000 
    131 H131       -0.4611  -17.3877  -49.6856 H         1 UNK         0.0600 
    132 H132       -1.6938  -15.3094  -50.5769 H         1 UNK         0.0800 
    133 H133       -0.9241  -14.3894  -49.3245 H         1 UNK         0.0800 
    134 H134       -3.9225  -15.4181  -50.3557 H         1 UNK         0.0800 
    135 H135       -4.8305  -15.3744  -48.8734 H         1 UNK         0.0800 
    136 H136       -6.2075  -16.4895  -50.9520 H         1 UNK         0.1150 
    137 H137       -6.3607  -20.7482  -50.4567 H         1 UNK         0.1150 
    138 H138       -3.2913  -18.5049  -48.5300 H         1 UNK         0.1150 
    139 H139       -4.4816  -21.8788  -49.4800 H         1 UNK         0.0800 
    140 H140       -3.0878  -20.9729  -48.9328 H         1 UNK         0.0800 
    141 H141       -3.1086  -23.0616  -47.6172 H         1 UNK         0.0800 
    142 H142       -4.0968  -23.4556  -46.2447 H         1 UNK         0.0800 
    143 H143       -1.9719  -21.2468  -46.2269 H         1 UNK         0.0600 
    144 H144       -2.7075  -20.6901  -44.2350 H         1 UNK         0.3000 
    145 H145       -4.7015  -22.0697  -41.7493 H         1 UNK         0.0600 
    146 H146       -2.8305  -21.7489  -40.1494 H         1 UNK         0.0600 
    147 H147       -2.6018  -23.2382  -41.0530 H         1 UNK         0.0600 
    148 H148       -1.6598  -21.8091  -41.4650 H         1 UNK         0.0600 
    149 H149       -2.9463  -19.7743  -41.8375 H         1 UNK         0.3000 
    150 H150       -5.3134  -17.6194  -43.4488 H         1 UNK         0.0600 
    151 H151       -5.8774  -17.6343  -41.0062 H         1 UNK         0.0600 
    152 H152       -4.8336  -16.2837  -41.4234 H         1 UNK         0.0600 
    153 H153       -4.1636  -17.6947  -40.6076 H         1 UNK         0.0600 
    154 H154       -2.6885  -17.1118  -42.5117 H         1 UNK         0.3000 
    155 H155       -0.9683  -17.9004  -45.5767 H         1 UNK         0.0600 
    156 H156       -1.5623  -15.3872  -43.9165 H         1 UNK         0.0600 
    157 H157       -1.8675  -15.5706  -45.6314 H         1 UNK         0.0600 
    158 H158       -0.2184  -15.5825  -45.0317 H         1 UNK         0.0600 
    159 H159        0.0263  -17.0995  -43.0463 H         1 UNK         0.3000 
    160 H160        0.5262  -20.3103  -41.5932 H         1 UNK         0.0600 
    161 H161        2.5167  -18.2762  -42.7348 H         1 UNK         0.0600 
    162 H162        2.4979  -20.0071  -43.0597 H         1 UNK         0.0600 
    163 H163        2.8508  -19.4274  -41.4417 H         1 UNK         0.0600 
    164 H164        1.1122  -17.6175  -40.7717 H         1 UNK         0.3000 
    165 H165       -1.9448  -17.0714  -39.0085 H         1 UNK         0.0600 
    166 H166       -0.3044  -16.7059  -37.1883 H         1 UNK         0.0600 
    167 H167       -0.4705  -18.4242  -37.5113 H         1 UNK         0.0600 
    168 H168        0.9442  -17.5573  -38.0972 H         1 UNK         0.0600 
    169 H169        0.4240  -15.4932  -39.3772 H         1 UNK         0.3000 
    170 H170       -0.6841  -13.7571  -42.2906 H         1 UNK         0.0600 
    171 H171       -1.8524  -12.6562  -40.3729 H         1 UNK         0.0600 
    172 H172       -0.4133  -12.8447  -39.3781 H         1 UNK         0.0600 
    173 H173       -0.3768  -11.8086  -40.8053 H         1 UNK         0.0600 
    174 H174        1.6237  -13.3168  -40.7735 H         1 UNK         0.3000 
    175 H175        3.5994  -13.6688  -41.8893 H         1 UNK         0.0600 
    176 H176        3.7596  -16.6478  -41.1097 H         1 UNK         0.0600 
    177 H177        5.0656  -15.4772  -40.9413 H         1 UNK         0.0600 
    178 H178        3.6087  -15.3096  -39.9757 H         1 UNK         0.0600 
    179 H179        3.1810  -15.6847  -43.8985 H         1 UNK         0.3000 
    180 H180        5.2524  -14.3767  -46.0165 H         1 UNK         0.0600 
    181 H181        6.8362  -16.6933  -44.7755 H         1 UNK         0.0600 
    182 H182        7.4706  -15.0963  -45.1576 H         1 UNK         0.0600 
    183 H183        6.9544  -16.1617  -46.4527 H         1 UNK         0.0600 
    184 H184        4.1610  -17.0134  -45.1528 H         1 UNK         0.3000 
    185 H185        3.4411  -18.2968  -47.6211 H         1 UNK         0.0600 
    186 H186        2.7809  -18.3964  -45.2655 H         1 UNK         0.0600 
    187 H187        1.5313  -17.1857  -45.5053 H         1 UNK         0.0600 
    188 H188        1.3694  -18.7866  -46.2239 H         1 UNK         0.0600 
    189 H189        1.9223  -17.8483  -49.1554 H         1 UNK         0.3000 
    190 H190       -0.6335  -22.0964  -43.9514 H         1 UNK         0.3000 
    191 H191        0.2009  -24.8768  -44.1650 H         1 UNK         0.0600 
    192 H192       -0.0942  -23.7799  -41.9630 H         1 UNK         0.0600 
    193 H193        1.1537  -22.5948  -42.3516 H         1 UNK         0.0600 
    194 H194        1.5730  -24.2925  -42.1609 H         1 UNK         0.0600 
    195 H195        1.5553  -21.7359  -45.0693 H         1 UNK         0.3000 
    196 H196        3.9170  -23.0799  -46.3312 H         1 UNK         0.0600 
    197 H197        5.3023  -21.1778  -45.6375 H         1 UNK         0.0600 
    198 H198        4.5654  -21.8819  -44.2087 H         1 UNK         0.0600 
    199 H199        3.9310  -20.3823  -44.8821 H         1 UNK         0.0600 
    200 H200        1.1286  -21.9850  -47.2168 H         1 UNK         0.3000 
    201 H201        1.7840  -19.8879  -49.1244 H         1 UNK         0.0600 
    202 H202       -0.4848  -20.0131  -48.1225 H         1 UNK         0.0600 
    203 H203       -0.7190  -21.6285  -48.7895 H         1 UNK         0.0600 
    204 H204       -0.5830  -20.2367  -49.8595 H         1 UNK         0.0600 
    205 H205        1.6958  -20.1297  -51.4014 H         1 UNK         0.3000 
    206 H206        3.3889  -22.0568  -52.4690 H         1 UNK         0.0600 
    207 H207        3.0942  -19.8100  -53.4088 H         1 UNK         0.0600 
    208 H208        2.7400  -20.9981  -54.6552 H         1 UNK         0.0600 
    209 H209        1.4226  -20.1575  -53.8436 H         1 UNK         0.0600 
    210 H210        2.7940  -24.1611  -52.1323 H         1 UNK         0.3000 
    211 H211        1.8960  -26.1602  -52.3802 H         1 UNK         0.0600 
    212 H212        0.4509  -25.1485  -54.8852 H         1 UNK         0.0600 
    213 H213        0.7606  -26.8225  -54.4522 H         1 UNK         0.0600 
    214 H214        2.1031  -25.7638  -54.8510 H         1 UNK         0.0600 
    215 H215        0.7159  -24.2673  -50.6655 H         1 UNK         0.3000 
    216 H216       -0.9281  -23.9333  -49.2517 H         1 UNK         0.0600 
    217 H217       -2.4793  -25.7359  -48.6587 H         1 UNK         0.0600 
    218 H218       -0.8848  -26.4090  -48.9440 H         1 UNK         0.0600 
    219 H219       -2.1490  -26.5868  -50.1621 H         1 UNK         0.0600 
    220 H220       -1.1131  -22.5907  -51.7279 H         1 UNK         0.3000 
    221 H221       -3.9001  -21.7633  -51.7326 H         1 UNK         0.0600 
    222 H222       -4.0692  -22.0860  -54.2331 H         1 UNK         0.0600 
    223 H223       -2.5476  -22.9668  -54.2176 H         1 UNK         0.0600 
    224 H224       -3.9614  -23.6239  -53.3946 H         1 UNK         0.0600 
    225 H225       -4.1299  -19.7865  -53.1391 H         1 UNK         0.3000 
    226 H226       -1.9771  -18.5092  -54.3890 H         1 UNK         0.0600 
    227 H227       -1.1998  -17.9874  -52.0460 H         1 UNK         0.0600 
    228 H228       -1.7553  -16.5297  -52.8454 H         1 UNK         0.0600 
    229 H229       -2.7813  -17.3309  -51.6627 H         1 UNK         0.0600 
    230 H230       -2.7299  -16.4460  -55.2808 H         1 UNK         0.3000 
    231 H231       -4.1711  -15.1757  -56.4032 H         1 UNK         0.0600 
    232 H232       -5.6534  -15.1906  -53.7112 H         1 UNK         0.0600 
    233 H233       -5.8290  -13.9713  -54.9768 H         1 UNK         0.0600 
    234 H234       -4.2996  -14.1579  -54.1444 H         1 UNK         0.0600 
    235 H235       -7.1866  -15.6189  -55.0832 H         1 UNK         0.3000 
    236 H236       -8.3709  -16.7285  -57.4003 H         1 UNK         0.0600 
    237 H237      -10.4419  -16.6874  -55.9963 H         1 UNK         0.0600 
    238 H238       -9.4730  -16.3948  -54.5572 H         1 UNK         0.0600 
    239 H239       -9.5415  -15.1879  -55.8430 H         1 UNK         0.0600 
    240 H240       -6.9070  -18.3569  -54.6781 H         1 UNK         0.3000 
    241 H241       -8.2998  -20.9051  -55.1634 H         1 UNK         0.0600 
    242 H242       -4.9592  -20.7527  -57.3954 H         1 UNK         0.3800 
    243 H243       -5.7044  -19.2974  -56.7859 H         1 UNK         0.3800 
    244 H244       -6.8421  -21.7942  -53.3540 H         1 UNK         0.0800 
    245 H245       -6.0409  -20.2597  -53.2092 H         1 UNK         0.0800 
    246 H246       -7.4909  -17.9562  -52.5697 H         1 UNK         0.0800 
    247 H247       -8.4764  -18.1289  -51.1436 H         1 UNK         0.0800 
@<TRIPOS>BOND
     1    1    2 1    
     2    1  127 1    
     3    1  128 1    
     4    1  129 1    
     5    2    3 2    
     6    2    4 am   BACKBONE|DICT|INTERRES
     7    4    5 1    
     8    4  130 1    
     9    5    6 1    
    10    5   65 1    
    11    5  131 1    
    12    6    7 1    
    13    6  132 1    
    14    6  133 1    
    15    7    8 1    
    16    8    9 1    
    17    8  134 1    
    18    8  135 1    
    19    9   10 ar   
    20    9   14 ar   
    21   10   11 ar   
    22   10  136 1    
    23   11   12 ar   
    24   11  126 1    
    25   12   13 ar   
    26   12  137 1    
    27   13   14 ar   
    28   13   15 1    
    29   14  138 1    
    30   15   16 1    
    31   15  139 1    
    32   15  140 1    
    33   16   17 1    
    34   17   18 1    
    35   17  141 1    
    36   17  142 1    
    37   18   19 1    
    38   18   67 1    
    39   18  143 1    
    40   19   20 am   BACKBONE|DICT|INTERRES
    41   19  144 1    
    42   20   21 2    
    43   20   22 1    
    44   22   23 1    
    45   22   24 1    
    46   22  145 1    
    47   23  146 1    
    48   23  147 1    
    49   23  148 1    
    50   24   25 am   BACKBONE|DICT|INTERRES
    51   24  149 1    
    52   25   26 2    
    53   25   27 1    
    54   27   28 1    
    55   27   29 1    
    56   27  150 1    
    57   28  151 1    
    58   28  152 1    
    59   28  153 1    
    60   29   30 am   BACKBONE|DICT|INTERRES
    61   29  154 1    
    62   30   31 2    
    63   30   32 1    
    64   32   33 1    
    65   32   34 1    
    66   32  155 1    
    67   33  156 1    
    68   33  157 1    
    69   33  158 1    
    70   34   35 am   BACKBONE|DICT|INTERRES
    71   34  159 1    
    72   35   36 2    
    73   35   37 1    
    74   37   38 1    
    75   37   39 1    
    76   37  160 1    
    77   38  161 1    
    78   38  162 1    
    79   38  163 1    
    80   39   40 am   BACKBONE|DICT|INTERRES
    81   39  164 1    
    82   40   41 2    
    83   40   42 1    
    84   42   43 1    
    85   42   44 1    
    86   42  165 1    
    87   43  166 1    
    88   43  167 1    
    89   43  168 1    
    90   44   45 am   BACKBONE|DICT|INTERRES
    91   44  169 1    
    92   45   46 2    
    93   45   47 1    
    94   47   48 1    
    95   47   49 1    
    96   47  170 1    
    97   48  171 1    
    98   48  172 1    
    99   48  173 1    
   100   49   50 am   BACKBONE|DICT|INTERRES
   101   49  174 1    
   102   50   51 2    
   103   50   52 1    
   104   52   53 1    
   105   52   54 1    
   106   52  175 1    
   107   53  176 1    
   108   53  177 1    
   109   53  178 1    
   110   54   55 am   BACKBONE|DICT|INTERRES
   111   54  179 1    
   112   55   56 2    
   113   55   57 1    
   114   57   58 1    
   115   57   59 1    
   116   57  180 1    
   117   58  181 1    
   118   58  182 1    
   119   58  183 1    
   120   59   60 am   BACKBONE|DICT|INTERRES
   121   59  184 1    
   122   60   61 2    
   123   60   62 1    
   124   62   63 1    
   125   62   64 1    
   126   62  185 1    
   127   63  186 1    
   128   63  187 1    
   129   63  188 1    
   130   64   65 am   BACKBONE|DICT|INTERRES
   131   64  189 1    
   132   65   66 2    
   133   67   68 2    
   134   67   69 am   BACKBONE|DICT|INTERRES
   135   69   70 1    
   136   69  190 1    
   137   70   71 1    
   138   70   72 1    
   139   70  191 1    
   140   71  192 1    
   141   71  193 1    
   142   71  194 1    
   143   72   73 2    
   144   72   74 am   BACKBONE|DICT|INTERRES
   145   74   75 1    
   146   74  195 1    
   147   75   76 1    
   148   75   77 1    
   149   75  196 1    
   150   76  197 1    
   151   76  198 1    
   152   76  199 1    
   153   77   78 2    
   154   77   79 am   BACKBONE|DICT|INTERRES
   155   79   80 1    
   156   79  200 1    
   157   80   81 1    
   158   80   82 1    
   159   80  201 1    
   160   81  202 1    
   161   81  203 1    
   162   81  204 1    
   163   82   83 2    
   164   82   84 am   BACKBONE|DICT|INTERRES
   165   84   85 1    
   166   84  205 1    
   167   85   86 1    
   168   85   87 1    
   169   85  206 1    
   170   86  207 1    
   171   86  208 1    
   172   86  209 1    
   173   87   88 2    
   174   87   89 am   BACKBONE|DICT|INTERRES
   175   89   90 1    
   176   89  210 1    
   177   90   91 1    
   178   90   92 1    
   179   90  211 1    
   180   91  212 1    
   181   91  213 1    
   182   91  214 1    
   183   92   93 2    
   184   92   94 am   BACKBONE|DICT|INTERRES
   185   94   95 1    
   186   94  215 1    
   187   95   96 1    
   188   95   97 1    
   189   95  216 1    
   190   96  217 1    
   191   96  218 1    
   192   96  219 1    
   193   97   98 2    
   194   97   99 am   BACKBONE|DICT|INTERRES
   195   99  100 1    
   196   99  220 1    
   197  100  101 1    
   198  100  102 1    
   199  100  221 1    
   200  101  222 1    
   201  101  223 1    
   202  101  224 1    
   203  102  103 2    
   204  102  104 am   BACKBONE|DICT|INTERRES
   205  104  105 1    
   206  104  225 1    
   207  105  106 1    
   208  105  107 1    
   209  105  226 1    
   210  106  227 1    
   211  106  228 1    
   212  106  229 1    
   213  107  108 2    
   214  107  109 am   BACKBONE|DICT|INTERRES
   215  109  110 1    
   216  109  230 1    
   217  110  111 1    
   218  110  112 1    
   219  110  231 1    
   220  111  232 1    
   221  111  233 1    
   222  111  234 1    
   223  112  113 2    
   224  112  114 am   BACKBONE|DICT|INTERRES
   225  114  115 1    
   226  114  235 1    
   227  115  116 1    
   228  115  117 1    
   229  115  236 1    
   230  116  237 1    
   231  116  238 1    
   232  116  239 1    
   233  117  118 2    
   234  117  119 am   BACKBONE|DICT|INTERRES
   235  119  120 1    
   236  119  240 1    
   237  120  121 1    
   238  120  124 1    
   239  120  241 1    
   240  121  122 am   BACKBONE|DICT|INTERRES
   241  121  123 2    
   242  122  242 1    
   243  122  243 1    
   244  124  125 1    
   245  124  244 1    
   246  124  245 1    
   247  125  126 1    
   248  126  246 1    
   249  126  247 1    
@<TRIPOS>SUBSTRUCTURE
     1 UNK         1 GROUP             0       ****    0 ROOT    
