@<TRIPOS>MOLECULE
3R540
247   249    1
SMALL
USER_CHARGES


@<TRIPOS>ATOM
      1 CA          1.3617  -17.7253  -53.0601 C.3       0 UNK        -0.1800 
      2 C           1.7675  -17.7968  -51.5949 C.2       0 UNK         0.5000 
      3 O           2.9104  -18.1407  -51.2940 O.2       0 UNK        -0.5000 
      4 N           0.8355  -17.4706  -50.6947 N.am      1 UNK        -0.5000 
      5 CA          1.0400  -17.4311  -49.2441 C.3       1 UNK         0.1400 
      6 C6         -0.0744  -18.1673  -48.4556 C.3       23 UNK        -0.0398 
      7 S7         -0.3741  -19.8933  -48.9599 S.3       23 UNK        -0.2404 
      8 C8         -1.7321  -19.7065  -50.1587 C.3       23 UNK        -0.0205 
      9 C9         -3.0451  -19.3187  -49.4996 C.ar      23 UNK        -0.0193 
     10 C10        -3.4307  -17.9800  -49.4208 C.ar      23 UNK        -0.1150 
     11 C11        -4.6653  -17.6118  -48.8748 C.ar      23 UNK        -0.0193 
     12 C12        -5.4963  -18.6140  -48.3643 C.ar      23 UNK        -0.1150 
     13 C13        -5.1131  -19.9580  -48.4124 C.ar      23 UNK        -0.0193 
     14 C14        -3.8922  -20.3031  -48.9956 C.ar      23 UNK        -0.1150 
     15 C15        -6.0214  -21.0345  -47.8412 C.3       23 UNK        -0.0205 
     16 S16        -5.5609  -21.4582  -46.1330 S.3       23 UNK        -0.2404 
     17 C17        -4.1062  -22.5359  -46.3863 C.3       23 UNK        -0.0398 
     18 CA         -2.7559  -21.8971  -45.9445 C.3       11 UNK         0.1400 
     19 N          -2.7530  -21.4037  -44.5571 N.am      11 UNK        -0.5000 
     20 C          -3.1217  -22.0655  -43.4480 C.2       10 UNK         0.5000 
     21 O          -3.4626  -23.2485  -43.4475 O.2       10 UNK        -0.5000 
     22 CA         -3.0928  -21.3054  -42.1034 C.3       10 UNK         0.1400 
     23 CB         -2.2214  -22.0494  -41.0775 C.3       10 UNK        -0.1800 
     24 N          -2.6140  -19.9269  -42.2144 N.am      10 UNK        -0.5000 
     25 C          -3.3356  -18.8776  -42.6316 C.2       9 UNK         0.5000 
     26 O          -4.5359  -18.9349  -42.8972 O.2       9 UNK        -0.5000 
     27 CA         -2.5719  -17.5514  -42.8308 C.3       9 UNK         0.1400 
     28 CB         -2.5971  -16.7036  -41.5508 C.3       9 UNK        -0.1800 
     29 N          -1.1810  -17.7521  -43.2452 N.am      9 UNK        -0.5000 
     30 C          -0.8050  -18.3176  -44.3997 C.2       8 UNK         0.5000 
     31 O          -1.5916  -18.6763  -45.2738 O.2       8 UNK        -0.5000 
     32 CA          0.6970  -18.5777  -44.5860 C.3       8 UNK         0.1400 
     33 CB          1.4422  -17.3120  -45.0317 C.3       8 UNK        -0.1800 
     34 N           1.3175  -19.1108  -43.3774 N.am      8 UNK        -0.5000 
     35 C           1.1301  -20.3549  -42.9203 C.2       7 UNK         0.5000 
     36 O           0.4563  -21.2008  -43.5063 O.2       7 UNK        -0.5000 
     37 CA          1.7869  -20.6993  -41.5715 C.3       7 UNK         0.1400 
     38 CB          3.2187  -21.2083  -41.7919 C.3       7 UNK        -0.1800 
     39 N           1.8088  -19.5627  -40.6457 N.am      7 UNK        -0.5000 
     40 C           0.7147  -19.0242  -40.0870 C.2       6 UNK         0.5000 
     41 O          -0.4241  -19.4481  -40.2739 O.2       6 UNK        -0.5000 
     42 CA          0.9207  -17.7653  -39.2228 C.3       6 UNK         0.1400 
     43 CB          1.3254  -18.1506  -37.7922 C.3       6 UNK        -0.1800 
     44 N           1.9081  -16.8329  -39.7764 N.am      6 UNK        -0.5000 
     45 C           1.8081  -16.2448  -40.9753 C.2       5 UNK         0.5000 
     46 O           0.8694  -16.4388  -41.7533 O.2       5 UNK        -0.5000 
     47 CA          2.9660  -15.3281  -41.3940 C.3       5 UNK         0.1400 
     48 CB          4.2597  -16.1357  -41.6132 C.3       5 UNK        -0.1800 
     49 N           2.5952  -14.6557  -42.6333 N.am      5 UNK        -0.5000 
     50 C           3.1079  -13.5177  -43.1078 C.2       4 UNK         0.5000 
     51 O           3.9742  -12.8677  -42.5205 O.2       4 UNK        -0.5000 
     52 CA          2.5893  -13.0230  -44.4747 C.3       4 UNK         0.1400 
     53 CB          3.6930  -13.1315  -45.5393 C.3       4 UNK        -0.1800 
     54 N           1.4058  -13.7277  -44.9768 N.am      4 UNK        -0.5000 
     55 C           0.1529  -13.5586  -44.5293 C.2       3 UNK         0.5000 
     56 O          -0.1290  -12.8717  -43.5466 O.2       3 UNK        -0.5000 
     57 CA         -0.9628  -14.2667  -45.3357 C.3       3 UNK         0.1400 
     58 CB         -2.3606  -13.6617  -45.0975 C.3       3 UNK        -0.1800 
     59 N          -0.6720  -14.3475  -46.7750 N.am      3 UNK        -0.5000 
     60 C          -0.4076  -13.3332  -47.6159 C.2       2 UNK         0.5000 
     61 O          -0.4769  -12.1470  -47.2913 O.2       2 UNK        -0.5000 
     62 CA          0.0172  -13.6900  -49.0603 C.3       2 UNK         0.1400 
     63 CB          1.2619  -12.8923  -49.4999 C.3       2 UNK        -0.1800 
     64 N           0.2129  -15.1221  -49.3275 N.am      2 UNK        -0.5000 
     65 C           1.1043  -15.9639  -48.7767 C.2       1 UNK         0.5000 
     66 O           1.9150  -15.6327  -47.9117 O.2       1 UNK        -0.5000 
     67 C          -1.5793  -22.8482  -46.2683 C.2       11 UNK         0.5000 
     68 O          -1.4367  -23.2604  -47.4213 O.2       11 UNK        -0.5000 
     69 N          -0.7585  -23.1951  -45.2690 N.am      12 UNK        -0.5000 
     70 CA          0.2677  -24.2328  -45.3430 C.3       12 UNK         0.1400 
     71 CB          0.7088  -24.6070  -43.9197 C.3       12 UNK        -0.1800 
     72 C           1.4826  -23.8469  -46.2010 C.2       12 UNK         0.5000 
     73 O           2.1164  -24.7383  -46.7663 O.2       12 UNK        -0.5000 
     74 N           1.7718  -22.5414  -46.3084 N.am      13 UNK        -0.5000 
     75 CA          2.9306  -21.9881  -47.0221 C.3       13 UNK         0.1400 
     76 CB          2.9754  -20.4659  -46.8262 C.3       13 UNK        -0.1800 
     77 C           3.0054  -22.3474  -48.5217 C.2       13 UNK         0.5000 
     78 O           4.1086  -22.4145  -49.0653 O.2       13 UNK        -0.5000 
     79 N           1.8497  -22.6039  -49.1469 N.am      14 UNK        -0.5000 
     80 CA          1.7302  -23.1057  -50.5171 C.3       14 UNK         0.1400 
     81 CB          1.2684  -21.9700  -51.4470 C.3       14 UNK        -0.1800 
     82 C           0.7929  -24.3267  -50.5780 C.2       14 UNK         0.5000 
     83 O           0.2105  -24.5883  -51.6313 O.2       14 UNK        -0.5000 
     84 N           0.6404  -25.0401  -49.4488 N.am      15 UNK        -0.5000 
     85 CA         -0.1559  -26.2636  -49.2629 C.3       15 UNK         0.1400 
     86 CB          0.5786  -27.4594  -49.9021 C.3       15 UNK        -0.1800 
     87 C          -1.6231  -26.1488  -49.7407 C.2       15 UNK         0.5000 
     88 O          -2.1829  -27.1163  -50.2591 O.2       15 UNK        -0.5000 
     89 N          -2.1989  -24.9474  -49.5906 N.am      16 UNK        -0.5000 
     90 CA         -3.5188  -24.5079  -50.0540 C.3       16 UNK         0.1400 
     91 CB         -4.6375  -25.2535  -49.2993 C.3       16 UNK        -0.1800 
     92 C          -3.7261  -24.5372  -51.5866 C.2       16 UNK         0.5000 
     93 O          -4.8551  -24.3429  -52.0376 O.2       16 UNK        -0.5000 
     94 N          -2.6602  -24.7437  -52.3744 N.am      17 UNK        -0.5000 
     95 CA         -2.7284  -24.8324  -53.8352 C.3       17 UNK         0.1400 
     96 CB         -1.4788  -25.5533  -54.3628 C.3       17 UNK        -0.1800 
     97 C          -2.8788  -23.4540  -54.5015 C.2       17 UNK         0.5000 
     98 O          -3.5590  -23.3397  -55.5213 O.2       17 UNK        -0.5000 
     99 N          -2.2558  -22.4304  -53.9026 N.am      18 UNK        -0.5000 
    100 CA        -2.2678  -21.0478  -54.3866 C.3       18 UNK         0.1400 
    101 CB        -0.9353  -20.3795  -54.0130 C.3       18 UNK        -0.1800 
    102 C         -3.4574  -20.2250  -53.8542 C.2       18 UNK         0.5000 
    103 O         -3.5499  -19.0401  -54.1731 O.2       18 UNK        -0.5000 
    104 N         -4.3417  -20.8420  -53.0559 N.am      19 UNK        -0.5000 
    105 CA        -5.4558  -20.2107  -52.3362 C.3       19 UNK         0.1400 
    106 CB        -6.2047  -21.2924  -51.5445 C.3       19 UNK        -0.1800 
    107 C         -6.4482  -19.4147  -53.2071 C.2       19 UNK         0.5000 
    108 O         -7.0714  -18.4789  -52.7058 O.2       19 UNK        -0.5000 
    109 N         -6.5669  -19.7832  -54.4902 N.am      20 UNK        -0.5000 
    110 CA        -7.3909  -19.0916  -55.4836 C.3       20 UNK         0.1400 
    111 CB        -7.4767  -19.9557  -56.7509 C.3       20 UNK        -0.1800 
    112 C         -6.8773  -17.6783  -55.8279 C.2       20 UNK         0.5000 
    113 O         -7.6871  -16.8010  -56.1307 O.2       20 UNK        -0.5000 
    114 N         -5.5531  -17.4846  -55.7716 N.am      21 UNK        -0.5000 
    115 CA        -4.8864  -16.1991  -55.9885 C.3       21 UNK         0.1400 
    116 CB        -3.6411  -16.4294  -56.8590 C.3       21 UNK        -0.1800 
    117 C         -4.4834  -15.5411  -54.6574 C.2       21 UNK         0.5000 
    118 O         -4.4401  -14.3132  -54.5722 O.2       21 UNK        -0.5000 
    119 N         -4.1690  -16.3708  -53.6560 N.am      22 UNK        -0.5000 
    120 CA        -3.6576  -16.0497  -52.3177 C.3       22 UNK         0.1400 
    121 C         -2.2112  -15.4773  -52.3115 C.2       22 UNK         0.5000 
    122 N         -1.8761  -14.5284  -53.1734 N.am      22 UNK        -0.7600 
    123 O         -1.3769  -15.9252  -51.5291 O.2       22 UNK        -0.5000 
    124 C124       -4.6582  -15.2243  -51.4595 C.3       23 UNK        -0.0398 
    125 S125       -4.1477  -14.9301  -49.7234 S.3       23 UNK        -0.2404 
    126 C126       -5.1344  -16.1568  -48.7897 C.3       23 UNK        -0.0205 
    127 H127        0.3046  -17.4850  -53.1770 H         1 UNK         0.0600 
    128 H128        1.5488  -18.6821  -53.5472 H         1 UNK         0.0600 
    129 H129        1.9432  -16.9598  -53.5736 H         1 UNK         0.0600 
    130 H130       -0.0570  -17.1154  -51.0282 H         1 UNK         0.3000 
    131 H131        1.9918  -17.9002  -48.9859 H         1 UNK         0.0600 
    132 H132        0.1995  -18.2130  -47.4058 H         1 UNK         0.0800 
    133 H133       -1.0086  -17.6124  -48.4761 H         1 UNK         0.0800 
    134 H134       -1.8642  -20.6525  -50.6846 H         1 UNK         0.0800 
    135 H135       -1.4606  -18.9750  -50.9200 H         1 UNK         0.0800 
    136 H136       -2.7575  -17.2276  -49.7954 H         1 UNK         0.1150 
    137 H137       -6.4447  -18.3458  -47.9199 H         1 UNK         0.1150 
    138 H138       -3.5898  -21.3358  -49.0539 H         1 UNK         0.1150 
    139 H139       -7.0556  -20.6870  -47.8468 H         1 UNK         0.0800 
    140 H140       -6.0024  -21.9277  -48.4668 H         1 UNK         0.0800 
    141 H141       -4.0644  -22.8291  -47.4340 H         1 UNK         0.0800 
    142 H142       -4.2873  -23.4666  -45.8480 H         1 UNK         0.0800 
    143 H143       -2.5905  -21.0129  -46.5612 H         1 UNK         0.0600 
    144 H144       -2.4659  -20.4371  -44.4614 H         1 UNK         0.3000 
    145 H145       -4.1167  -21.2879  -41.7250 H         1 UNK         0.0600 
    146 H146       -2.2314  -21.5445  -40.1114 H         1 UNK         0.0600 
    147 H147       -2.5835  -23.0648  -40.9124 H         1 UNK         0.0600 
    148 H148       -1.1854  -22.1208  -41.4086 H         1 UNK         0.0600 
    149 H149       -1.6530  -19.7657  -41.9351 H         1 UNK         0.3000 
    150 H150       -3.0787  -16.9930  -43.6209 H         1 UNK         0.0600 
    151 H151       -3.6215  -16.5006  -41.2365 H         1 UNK         0.0600 
    152 H152       -2.1059  -15.7424  -41.7052 H         1 UNK         0.0600 
    153 H153       -2.0931  -17.2079  -40.7259 H         1 UNK         0.0600 
    154 H154       -0.4629  -17.4437  -42.5941 H         1 UNK         0.3000 
    155 H155        0.7871  -19.3234  -45.3765 H         1 UNK         0.0600 
    156 H156        1.5865  -16.6163  -44.2108 H         1 UNK         0.0600 
    157 H157        0.8918  -16.7783  -45.8030 H         1 UNK         0.0600 
    158 H158        2.4245  -17.5550  -45.4370 H         1 UNK         0.0600 
    159 H159        1.8444  -18.4640  -42.8107 H         1 UNK         0.3000 
    160 H160        1.2055  -21.5024  -41.1142 H         1 UNK         0.0600 
    161 H161        3.8583  -20.4399  -42.2281 H         1 UNK         0.0600 
    162 H162        3.2283  -22.0654  -42.4669 H         1 UNK         0.0600 
    163 H163        3.6713  -21.5299  -40.8538 H         1 UNK         0.0600 
    164 H164        2.7086  -19.1548  -40.4393 H         1 UNK         0.3000 
    165 H165       -0.0363  -17.2416  -39.1751 H         1 UNK         0.0600 
    166 H166        1.3790  -17.2731  -37.1476 H         1 UNK         0.0600 
    167 H167        0.5967  -18.8319  -37.3507 H         1 UNK         0.0600 
    168 H168        2.2964  -18.6467  -37.7666 H         1 UNK         0.0600 
    169 H169        2.7087  -16.6294  -39.1955 H         1 UNK         0.3000 
    170 H170        3.1161  -14.5860  -40.6073 H         1 UNK         0.0600 
    171 H171        4.5716  -16.6449  -40.7009 H         1 UNK         0.0600 
    172 H172        4.1332  -16.8932  -42.3879 H         1 UNK         0.0600 
    173 H173        5.0837  -15.4885  -41.9139 H         1 UNK         0.0600 
    174 H174        1.8224  -15.0869  -43.1217 H         1 UNK         0.3000 
    175 H175        2.3331  -11.9679  -44.3576 H         1 UNK         0.0600 
    176 H176        3.9788  -14.1694  -45.7158 H         1 UNK         0.0600 
    177 H177        3.3668  -12.7083  -46.4898 H         1 UNK         0.0600 
    178 H178        4.5897  -12.5898  -45.2352 H         1 UNK         0.0600 
    179 H179        1.5480  -14.3002  -45.7987 H         1 UNK         0.3000 
    180 H180       -0.9902  -15.2930  -44.9697 H         1 UNK         0.0600 
    181 H181       -3.1223  -14.1957  -45.6660 H         1 UNK         0.0600 
    182 H182       -2.4012  -12.6111  -45.3864 H         1 UNK         0.0600 
    183 H183       -2.6400  -13.7240  -44.0450 H         1 UNK         0.0600 
    184 H184       -0.5975  -15.2779  -47.1557 H         1 UNK         0.3000 
    185 H185       -0.8134  -13.3834  -49.6980 H         1 UNK         0.0600 
    186 H186        1.5367  -13.1270  -50.5282 H         1 UNK         0.0600 
    187 H187        1.0784  -11.8183  -49.4528 H         1 UNK         0.0600 
    188 H188        2.1231  -13.1035  -48.8654 H         1 UNK         0.0600 
    189 H189       -0.4004  -15.4869  -50.0536 H         1 UNK         0.3000 
    190 H190       -0.8608  -22.7254  -44.3783 H         1 UNK         0.3000 
    191 H191       -0.1854  -25.1160  -45.7984 H         1 UNK         0.0600 
    192 H192        1.4235  -25.4308  -43.9370 H         1 UNK         0.0600 
    193 H193       -0.1400  -24.9261  -43.3145 H         1 UNK         0.0600 
    194 H194        1.1877  -23.7703  -43.4107 H         1 UNK         0.0600 
    195 H195        1.1904  -21.8918  -45.7968 H         1 UNK         0.3000 
    196 H196        3.8218  -22.4100  -46.5531 H         1 UNK         0.0600 
    197 H197        2.0939  -19.9826  -47.2446 H         1 UNK         0.0600 
    198 H198        3.0423  -20.2059  -45.7698 H         1 UNK         0.0600 
    199 H199        3.8470  -20.0337  -47.3195 H         1 UNK         0.0600 
    200 H200        0.9865  -22.5008  -48.6297 H         1 UNK         0.3000 
    201 H201        2.6999  -23.4587  -50.8726 H         1 UNK         0.0600 
    202 H202        0.2406  -21.6808  -51.2367 H         1 UNK         0.0600 
    203 H203        1.3146  -22.2758  -52.4927 H         1 UNK         0.0600 
    204 H204        1.8965  -21.0855  -51.3385 H         1 UNK         0.0600 
    205 H205        1.1807  -24.7562  -48.6392 H         1 UNK         0.3000 
    206 H206       -0.2020  -26.4376  -48.1871 H         1 UNK         0.0600 
    207 H207        1.5989  -27.5406  -49.5271 H         1 UNK         0.0600 
    208 H208        0.0759  -28.3999  -49.6734 H         1 UNK         0.0600 
    209 H209        0.6266  -27.3669  -50.9878 H         1 UNK         0.0600 
    210 H210       -1.6747  -24.2476  -49.0721 H         1 UNK         0.3000 
    211 H211       -3.5861  -23.4575  -49.7773 H         1 UNK         0.0600 
    212 H212       -5.6127  -24.8104  -49.5048 H         1 UNK         0.0600 
    213 H213       -4.4844  -25.2102  -48.2211 H         1 UNK         0.0600 
    214 H214       -4.6887  -26.3035  -49.5883 H         1 UNK         0.0600 
    215 H215       -1.7435  -24.8655  -51.9540 H         1 UNK         0.3000 
    216 H216       -3.6002  -25.4321  -54.1059 H         1 UNK         0.0600 
    217 H217       -0.5699  -24.9831  -54.1679 H         1 UNK         0.0600 
    218 H218       -1.5437  -25.7058  -55.4408 H         1 UNK         0.0600 
    219 H219       -1.3643  -26.5341  -53.9008 H         1 UNK         0.0600 
    220 H220       -1.7152  -22.6216  -53.0716 H         1 UNK         0.3000 
    221 H221       -2.3438  -21.0479  -55.4759 H         1 UNK         0.0600 
    222 H222       -0.0872  -20.9433  -54.4017 H         1 UNK         0.0600 
    223 H223       -0.8130  -20.2905  -52.9345 H         1 UNK         0.0600 
    224 H224       -0.8725  -19.3749  -54.4330 H         1 UNK         0.0600 
    225 H225       -4.2104  -21.8289  -52.8890 H         1 UNK         0.3000 
    226 H226       -5.0212  -19.5038  -51.6276 H         1 UNK         0.0600 
    227 H227       -6.6714  -22.0231  -52.2063 H         1 UNK         0.0600 
    228 H228       -5.5332  -21.8316  -50.8778 H         1 UNK         0.0600 
    229 H229       -6.9912  -20.8538  -50.9290 H         1 UNK         0.0600 
    230 H230       -6.0227  -20.5691  -54.8146 H         1 UNK         0.3000 
    231 H231       -8.3975  -18.9863  -55.0733 H         1 UNK         0.0600 
    232 H232       -6.4938  -20.1175  -57.1954 H         1 UNK         0.0600 
    233 H233       -8.1044  -19.4804  -57.5059 H         1 UNK         0.0600 
    234 H234       -7.9129  -20.9312  -56.5349 H         1 UNK         0.0600 
    235 H235       -4.9634  -18.2515  -55.4709 H         1 UNK         0.3000 
    236 H236       -5.5472  -15.5085  -56.5165 H         1 UNK         0.0600 
    237 H237       -3.9109  -16.8529  -57.8266 H         1 UNK         0.0600 
    238 H238       -3.1178  -15.4914  -57.0491 H         1 UNK         0.0600 
    239 H239       -2.9345  -17.1095  -56.3809 H         1 UNK         0.0600 
    240 H240       -4.1345  -17.3630  -53.8752 H         1 UNK         0.3000 
    241 H241       -3.5841  -17.0342  -51.8629 H         1 UNK         0.0600 
    242 H242       -0.9387  -14.1616  -53.1849 H         1 UNK         0.3800 
    243 H243       -2.5784  -14.1662  -53.8078 H         1 UNK         0.3800 
    244 H244       -5.6313  -15.7171  -51.4631 H         1 UNK         0.0800 
    245 H245       -4.8204  -14.2475  -51.9166 H         1 UNK         0.0800 
    246 H246       -5.1200  -15.8637  -47.7392 H         1 UNK         0.0800 
    247 H247       -6.1748  -16.0895  -49.1111 H         1 UNK         0.0800 
@<TRIPOS>BOND
     1    1    2 1    
     2    1  127 1    
     3    1  128 1    
     4    1  129 1    
     5    2    3 2    
     6    2    4 am   BACKBONE|DICT|INTERRES
     7    4    5 1    
     8    4  130 1    
     9    5    6 1    
    10    5   65 1    
    11    5  131 1    
    12    6    7 1    
    13    6  132 1    
    14    6  133 1    
    15    7    8 1    
    16    8    9 1    
    17    8  134 1    
    18    8  135 1    
    19    9   10 ar   
    20    9   14 ar   
    21   10   11 ar   
    22   10  136 1    
    23   11   12 ar   
    24   11  126 1    
    25   12   13 ar   
    26   12  137 1    
    27   13   14 ar   
    28   13   15 1    
    29   14  138 1    
    30   15   16 1    
    31   15  139 1    
    32   15  140 1    
    33   16   17 1    
    34   17   18 1    
    35   17  141 1    
    36   17  142 1    
    37   18   19 1    
    38   18   67 1    
    39   18  143 1    
    40   19   20 am   BACKBONE|DICT|INTERRES
    41   19  144 1    
    42   20   21 2    
    43   20   22 1    
    44   22   23 1    
    45   22   24 1    
    46   22  145 1    
    47   23  146 1    
    48   23  147 1    
    49   23  148 1    
    50   24   25 am   BACKBONE|DICT|INTERRES
    51   24  149 1    
    52   25   26 2    
    53   25   27 1    
    54   27   28 1    
    55   27   29 1    
    56   27  150 1    
    57   28  151 1    
    58   28  152 1    
    59   28  153 1    
    60   29   30 am   BACKBONE|DICT|INTERRES
    61   29  154 1    
    62   30   31 2    
    63   30   32 1    
    64   32   33 1    
    65   32   34 1    
    66   32  155 1    
    67   33  156 1    
    68   33  157 1    
    69   33  158 1    
    70   34   35 am   BACKBONE|DICT|INTERRES
    71   34  159 1    
    72   35   36 2    
    73   35   37 1    
    74   37   38 1    
    75   37   39 1    
    76   37  160 1    
    77   38  161 1    
    78   38  162 1    
    79   38  163 1    
    80   39   40 am   BACKBONE|DICT|INTERRES
    81   39  164 1    
    82   40   41 2    
    83   40   42 1    
    84   42   43 1    
    85   42   44 1    
    86   42  165 1    
    87   43  166 1    
    88   43  167 1    
    89   43  168 1    
    90   44   45 am   BACKBONE|DICT|INTERRES
    91   44  169 1    
    92   45   46 2    
    93   45   47 1    
    94   47   48 1    
    95   47   49 1    
    96   47  170 1    
    97   48  171 1    
    98   48  172 1    
    99   48  173 1    
   100   49   50 am   BACKBONE|DICT|INTERRES
   101   49  174 1    
   102   50   51 2    
   103   50   52 1    
   104   52   53 1    
   105   52   54 1    
   106   52  175 1    
   107   53  176 1    
   108   53  177 1    
   109   53  178 1    
   110   54   55 am   BACKBONE|DICT|INTERRES
   111   54  179 1    
   112   55   56 2    
   113   55   57 1    
   114   57   58 1    
   115   57   59 1    
   116   57  180 1    
   117   58  181 1    
   118   58  182 1    
   119   58  183 1    
   120   59   60 am   BACKBONE|DICT|INTERRES
   121   59  184 1    
   122   60   61 2    
   123   60   62 1    
   124   62   63 1    
   125   62   64 1    
   126   62  185 1    
   127   63  186 1    
   128   63  187 1    
   129   63  188 1    
   130   64   65 am   BACKBONE|DICT|INTERRES
   131   64  189 1    
   132   65   66 2    
   133   67   68 2    
   134   67   69 am   BACKBONE|DICT|INTERRES
   135   69   70 1    
   136   69  190 1    
   137   70   71 1    
   138   70   72 1    
   139   70  191 1    
   140   71  192 1    
   141   71  193 1    
   142   71  194 1    
   143   72   73 2    
   144   72   74 am   BACKBONE|DICT|INTERRES
   145   74   75 1    
   146   74  195 1    
   147   75   76 1    
   148   75   77 1    
   149   75  196 1    
   150   76  197 1    
   151   76  198 1    
   152   76  199 1    
   153   77   78 2    
   154   77   79 am   BACKBONE|DICT|INTERRES
   155   79   80 1    
   156   79  200 1    
   157   80   81 1    
   158   80   82 1    
   159   80  201 1    
   160   81  202 1    
   161   81  203 1    
   162   81  204 1    
   163   82   83 2    
   164   82   84 am   BACKBONE|DICT|INTERRES
   165   84   85 1    
   166   84  205 1    
   167   85   86 1    
   168   85   87 1    
   169   85  206 1    
   170   86  207 1    
   171   86  208 1    
   172   86  209 1    
   173   87   88 2    
   174   87   89 am   BACKBONE|DICT|INTERRES
   175   89   90 1    
   176   89  210 1    
   177   90   91 1    
   178   90   92 1    
   179   90  211 1    
   180   91  212 1    
   181   91  213 1    
   182   91  214 1    
   183   92   93 2    
   184   92   94 am   BACKBONE|DICT|INTERRES
   185   94   95 1    
   186   94  215 1    
   187   95   96 1    
   188   95   97 1    
   189   95  216 1    
   190   96  217 1    
   191   96  218 1    
   192   96  219 1    
   193   97   98 2    
   194   97   99 am   BACKBONE|DICT|INTERRES
   195   99  100 1    
   196   99  220 1    
   197  100  101 1    
   198  100  102 1    
   199  100  221 1    
   200  101  222 1    
   201  101  223 1    
   202  101  224 1    
   203  102  103 2    
   204  102  104 am   BACKBONE|DICT|INTERRES
   205  104  105 1    
   206  104  225 1    
   207  105  106 1    
   208  105  107 1    
   209  105  226 1    
   210  106  227 1    
   211  106  228 1    
   212  106  229 1    
   213  107  108 2    
   214  107  109 am   BACKBONE|DICT|INTERRES
   215  109  110 1    
   216  109  230 1    
   217  110  111 1    
   218  110  112 1    
   219  110  231 1    
   220  111  232 1    
   221  111  233 1    
   222  111  234 1    
   223  112  113 2    
   224  112  114 am   BACKBONE|DICT|INTERRES
   225  114  115 1    
   226  114  235 1    
   227  115  116 1    
   228  115  117 1    
   229  115  236 1    
   230  116  237 1    
   231  116  238 1    
   232  116  239 1    
   233  117  118 2    
   234  117  119 am   BACKBONE|DICT|INTERRES
   235  119  120 1    
   236  119  240 1    
   237  120  121 1    
   238  120  124 1    
   239  120  241 1    
   240  121  122 am   BACKBONE|DICT|INTERRES
   241  121  123 2    
   242  122  242 1    
   243  122  243 1    
   244  124  125 1    
   245  124  244 1    
   246  124  245 1    
   247  125  126 1    
   248  126  246 1    
   249  126  247 1    
@<TRIPOS>SUBSTRUCTURE
     1 UNK         1 GROUP             0       ****    0 ROOT    
