@<TRIPOS>MOLECULE
3R540
247   249    1
SMALL
USER_CHARGES


@<TRIPOS>ATOM
      1 CA         -1.8652  -10.1589  -47.4290 C.3       0 UNK        -0.1800 
      2 C          -0.9574  -11.2460  -46.8731 C.2       0 UNK         0.5000 
      3 O          -0.9337  -11.4605  -45.6606 O.2       0 UNK        -0.5000 
      4 N          -0.2252  -11.9415  -47.7564 N.am      1 UNK        -0.5000 
      5 CA          0.7172  -13.0256  -47.4396 C.3       1 UNK         0.1400 
      6 C6          1.4486  -13.5816  -48.6922 C.3       23 UNK        -0.0398 
      7 S7          0.3451  -13.9690  -50.0975 S.3       23 UNK        -0.2404 
      8 C8          0.1630  -15.7772  -49.9732 C.3       23 UNK        -0.0205 
      9 C9          1.2578  -16.5445  -50.7031 C.ar      23 UNK        -0.0193 
     10 C10         1.3740  -16.4369  -52.0929 C.ar      23 UNK        -0.1150 
     11 C11         2.3178  -17.1960  -52.7897 C.ar      23 UNK        -0.0193 
     12 C12         3.1521  -18.0662  -52.0857 C.ar      23 UNK        -0.1150 
     13 C13         3.0467  -18.1889  -50.6983 C.ar      23 UNK        -0.0193 
     14 C14         2.1051  -17.4155  -50.0080 C.ar      23 UNK        -0.1150 
     15 C15         3.9550  -19.1664  -49.9668 C.3       23 UNK        -0.0205 
     16 S16         3.2308  -20.8387  -49.8955 S.3       23 UNK        -0.2404 
     17 C17         2.3235  -20.7148  -48.3256 C.3       23 UNK        -0.0398 
     18 CA          1.2631  -21.8193  -48.0932 C.3       11 UNK         0.1400 
     19 N           1.0170  -21.9931  -46.6623 N.am      11 UNK        -0.5000 
     20 C           0.4778  -23.0720  -46.0839 C.2       10 UNK         0.5000 
     21 O           0.1648  -24.0912  -46.6983 O.2       10 UNK        -0.5000 
     22 CA          0.2441  -22.9961  -44.5585 C.3       10 UNK         0.1400 
     23 CB          1.3942  -23.6688  -43.7947 C.3       10 UNK        -0.1800 
     24 N           0.0659  -21.6268  -44.0646 N.am      10 UNK        -0.5000 
     25 C          -0.9691  -20.8380  -44.3870 C.2       9 UNK         0.5000 
     26 O          -1.9156  -21.2169  -45.0731 O.2       9 UNK        -0.5000 
     27 CA         -0.8976  -19.3642  -43.9446 C.3       9 UNK         0.1400 
     28 CB         -1.3708  -19.1969  -42.4942 C.3       9 UNK        -0.1800 
     29 N           0.4499  -18.8141  -44.0997 N.am      9 UNK        -0.5000 
     30 C           1.0682  -18.6485  -45.2769 C.2       8 UNK         0.5000 
     31 O           0.5087  -18.8307  -46.3577 O.2       8 UNK        -0.5000 
     32 CA          2.5742  -18.3197  -45.2478 C.3       8 UNK         0.1400 
     33 CB          2.8409  -16.8128  -45.2511 C.3       8 UNK        -0.1800 
     34 N           3.2403  -18.9195  -44.0941 N.am      8 UNK        -0.5000 
     35 C           3.6339  -20.1978  -44.0321 C.2       7 UNK         0.5000 
     36 O           3.5013  -20.9954  -44.9586 O.2       7 UNK        -0.5000 
     37 CA          4.2551  -20.6692  -42.7039 C.3       7 UNK         0.1400 
     38 CB          5.7724  -20.4321  -42.7058 C.3       7 UNK        -0.1800 
     39 N           3.6654  -20.0078  -41.5384 N.am      7 UNK        -0.5000 
     40 C           2.4046  -20.1918  -41.1227 C.2       6 UNK         0.5000 
     41 O           1.6189  -20.9730  -41.6580 O.2       6 UNK        -0.5000 
     42 CA          1.9289  -19.3118  -39.9503 C.3       6 UNK         0.1400 
     43 CB          2.2805  -19.9663  -38.6063 C.3       6 UNK        -0.1800 
     44 N           2.4794  -17.9522  -39.9908 N.am      6 UNK        -0.5000 
     45 C           2.2416  -17.0698  -40.9697 C.2       5 UNK         0.5000 
     46 O           1.5296  -17.3098  -41.9470 O.2       5 UNK        -0.5000 
     47 CA          2.9656  -15.7230  -40.8781 C.3       5 UNK         0.1400 
     48 CB          4.4263  -15.8716  -41.3474 C.3       5 UNK        -0.1800 
     49 N           2.2644  -14.7576  -41.7189 N.am      5 UNK        -0.5000 
     50 C           2.4120  -13.4297  -41.6688 C.2       4 UNK         0.5000 
     51 O           3.1595  -12.8558  -40.8753 O.2       4 UNK        -0.5000 
     52 CA          1.5973  -12.5941  -42.6722 C.3       4 UNK         0.1400 
     53 CB          2.4227  -12.3262  -43.9393 C.3       4 UNK        -0.1800 
     54 N           0.3155  -13.2005  -43.0439 N.am      4 UNK        -0.5000 
     55 C          -0.7712  -13.1894  -42.2564 C.2       3 UNK         0.5000 
     56 O          -0.7572  -12.7548  -41.1035 O.2       3 UNK        -0.5000 
     57 CA         -2.1014  -13.7156  -42.8347 C.3       3 UNK         0.1400 
     58 CB         -3.2075  -12.6521  -42.7215 C.3       3 UNK        -0.1800 
     59 N          -1.9836  -14.0999  -44.2404 N.am      3 UNK        -0.5000 
     60 C          -2.1831  -15.3333  -44.7239 C.2       2 UNK         0.5000 
     61 O          -2.5461  -16.2856  -44.0344 O.2       2 UNK        -0.5000 
     62 CA         -1.9420  -15.5580  -46.2331 C.3       2 UNK         0.1400 
     63 CB         -3.2773  -15.7252  -46.9743 C.3       2 UNK        -0.1800 
     64 N          -1.1718  -14.5079  -46.9042 N.am      2 UNK        -0.5000 
     65 C           0.0858  -14.1575  -46.6055 C.2       1 UNK         0.5000 
     66 O           0.7159  -14.6386  -45.6678 O.2       1 UNK        -0.5000 
     67 C          -0.0424  -21.5219  -48.8636 C.2       11 UNK         0.5000 
     68 O          -0.2477  -22.0825  -49.9409 O.2       11 UNK        -0.5000 
     69 N          -0.8856  -20.6393  -48.3089 N.am      12 UNK        -0.5000 
     70 CA         -2.0555  -20.0802  -48.9844 C.3       12 UNK         0.1400 
     71 CB         -1.9279  -18.5505  -48.9954 C.3       12 UNK        -0.1800 
     72 C          -3.3750  -20.5318  -48.3412 C.2       12 UNK         0.5000 
     73 O          -4.1078  -21.3065  -48.9536 O.2       12 UNK        -0.5000 
     74 N          -3.6717  -20.0273  -47.1348 N.am      13 UNK        -0.5000 
     75 CA         -4.9459  -20.1992  -46.4236 C.3       13 UNK         0.1400 
     76 CB         -4.9100  -19.3893  -45.1176 C.3       13 UNK        -0.1800 
     77 C          -5.3346  -21.6623  -46.1337 C.2       13 UNK         0.5000 
     78 O          -6.5220  -21.9896  -46.1298 O.2       13 UNK        -0.5000 
     79 N          -4.3327  -22.5246  -45.9213 N.am      14 UNK        -0.5000 
     80 CA         -4.5006  -23.9695  -45.7495 C.3       14 UNK         0.1400 
     81 CB         -3.1949  -24.5685  -45.2151 C.3       14 UNK        -0.1800 
     82 C          -4.9489  -24.6978  -47.0340 C.2       14 UNK         0.5000 
     83 O          -5.4839  -25.8026  -46.9397 O.2       14 UNK        -0.5000 
     84 N          -4.7624  -24.0639  -48.1996 N.am      15 UNK        -0.5000 
     85 CA         -5.2496  -24.5131  -49.5025 C.3       15 UNK         0.1400 
     86 CB         -4.1204  -24.3718  -50.5394 C.3       15 UNK        -0.1800 
     87 C          -6.5148  -23.7265  -49.9006 C.2       15 UNK         0.5000 
     88 O          -6.6915  -23.4035  -51.0767 O.2       15 UNK        -0.5000 
     89 N          -7.3653  -23.4189  -48.9090 N.am      16 UNK        -0.5000 
     90 CA         -8.6112  -22.6560  -49.0052 C.3       16 UNK         0.1400 
     91 CB         -9.6818  -23.4654  -49.7724 C.3       16 UNK        -0.1800 
     92 C          -8.3546  -21.2441  -49.5682 C.2       16 UNK         0.5000 
     93 O          -7.6088  -20.4771  -48.9584 O.2       16 UNK        -0.5000 
     94 N          -8.9288  -20.9301  -50.7349 N.am      17 UNK        -0.5000 
     95 CA         -8.7359  -19.6789  -51.4696 C.3       17 UNK         0.1400 
     96 CB         -9.9786  -19.4307  -52.3443 C.3       17 UNK        -0.1800 
     97 C          -7.4216  -19.6705  -52.2847 C.2       17 UNK         0.5000 
     98 O          -7.4219  -19.2318  -53.4363 O.2       17 UNK        -0.5000 
     99 N          -6.3300  -20.1611  -51.6763 N.am      18 UNK        -0.5000 
    100 CA        -4.9757  -20.2769  -52.2270 C.3       18 UNK         0.1400 
    101 CB        -4.3601  -18.8737  -52.4000 C.3       18 UNK        -0.1800 
    102 C         -4.9233  -21.1347  -53.5100 C.2       18 UNK         0.5000 
    103 O         -4.2905  -20.7476  -54.4932 O.2       18 UNK        -0.5000 
    104 N         -5.6187  -22.2811  -53.4822 N.am      19 UNK        -0.5000 
    105 CA        -5.8261  -23.1660  -54.6311 C.3       19 UNK         0.1400 
    106 CB        -6.9331  -24.1746  -54.2892 C.3       19 UNK        -0.1800 
    107 C         -4.5573  -23.9020  -55.1005 C.2       19 UNK         0.5000 
    108 O         -4.4750  -24.2802  -56.2704 O.2       19 UNK        -0.5000 
    109 N         -3.5836  -24.0843  -54.1990 N.am      20 UNK        -0.5000 
    110 CA        -2.2867  -24.7118  -54.4598 C.3       20 UNK         0.1400 
    111 CB        -1.7199  -25.2382  -53.1288 C.3       20 UNK        -0.1800 
    112 C         -1.3294  -23.7284  -55.1639 C.2       20 UNK         0.5000 
    113 O         -0.3159  -23.3318  -54.5828 O.2       20 UNK        -0.5000 
    114 N         -1.7097  -23.3042  -56.3782 N.am      21 UNK        -0.5000 
    115 CA        -1.1205  -22.2587  -57.2282 C.3       21 UNK         0.1400 
    116 CB         0.3312  -22.5912  -57.6261 C.3       21 UNK        -0.1800 
    117 C         -1.2430  -20.8515  -56.6106 C.2       21 UNK         0.5000 
    118 O         -1.8809  -19.9766  -57.1974 O.2       21 UNK        -0.5000 
    119 N         -0.6620  -20.6856  -55.4228 N.am      22 UNK        -0.5000 
    120 CA        -0.8176  -19.5426  -54.5197 C.3       22 UNK         0.1400 
    121 C         -0.6186  -19.9132  -53.0193 C.2       22 UNK         0.5000 
    122 N         -0.4001  -21.1734  -52.6530 N.am      22 UNK        -0.7600 
    123 O         -0.7194  -19.0463  -52.1595 O.2       22 UNK        -0.5000 
    124 C124       -0.0311  -18.2841  -54.9772 C.3       23 UNK        -0.0398 
    125 S125        1.7690  -18.5433  -55.1583 S.3       23 UNK        -0.2404 
    126 C126        2.4436  -17.0836  -54.3015 C.3       23 UNK        -0.0205 
    127 H127       -1.5935   -9.1920  -47.0057 H         1 UNK         0.0600 
    128 H128       -2.9025  -10.3676  -47.1675 H         1 UNK         0.0600 
    129 H129       -1.7951  -10.0876  -48.5147 H         1 UNK         0.0600 
    130 H130       -0.3104  -11.7272  -48.7403 H         1 UNK         0.3000 
    131 H131        1.4835  -12.5792  -46.8040 H         1 UNK         0.0600 
    132 H132        2.0572  -14.4537  -48.4443 H         1 UNK         0.0800 
    133 H133        2.1573  -12.8316  -49.0455 H         1 UNK         0.0800 
    134 H134       -0.7952  -16.0481  -50.4185 H         1 UNK         0.0800 
    135 H135        0.1058  -16.0793  -48.9269 H         1 UNK         0.0800 
    136 H136        0.7127  -15.7733  -52.6318 H         1 UNK         0.1150 
    137 H137        3.8745  -18.6635  -52.6243 H         1 UNK         0.1150 
    138 H138        2.0125  -17.5100  -48.9355 H         1 UNK         0.1150 
    139 H139        4.9157  -19.2262  -50.4807 H         1 UNK         0.0800 
    140 H140        4.1766  -18.8042  -48.9617 H         1 UNK         0.0800 
    141 H141        1.8769  -19.7247  -48.2564 H         1 UNK         0.0800 
    142 H142        3.0812  -20.7596  -47.5432 H         1 UNK         0.0800 
    143 H143        1.6647  -22.7623  -48.4705 H         1 UNK         0.0600 
    144 H144        1.2705  -21.2188  -46.0660 H         1 UNK         0.3000 
    145 H145       -0.6673  -23.5501  -44.3363 H         1 UNK         0.0600 
    146 H146        1.2090  -23.6663  -42.7204 H         1 UNK         0.0600 
    147 H147        2.3451  -23.1675  -43.9712 H         1 UNK         0.0600 
    148 H148        1.5105  -24.7086  -44.1025 H         1 UNK         0.0600 
    149 H149        0.7719  -21.2733  -43.4262 H         1 UNK         0.3000 
    150 H150       -1.5685  -18.7910  -44.5872 H         1 UNK         0.0600 
    151 H151       -2.4050  -19.5249  -42.3843 H         1 UNK         0.0600 
    152 H152       -1.3263  -18.1524  -42.1845 H         1 UNK         0.0600 
    153 H153       -0.7670  -19.7792  -41.7995 H         1 UNK         0.0600 
    154 H154        0.9374  -18.5472  -43.2496 H         1 UNK         0.3000 
    155 H155        3.0202  -18.7270  -46.1568 H         1 UNK         0.0600 
    156 H156        2.4914  -16.3708  -46.1838 H         1 UNK         0.0600 
    157 H157        3.9068  -16.5974  -45.1766 H         1 UNK         0.0600 
    158 H158        2.3391  -16.3100  -44.4241 H         1 UNK         0.0600 
    159 H159        3.3380  -18.3398  -43.2743 H         1 UNK         0.3000 
    160 H160        4.0758  -21.7429  -42.6153 H         1 UNK         0.0600 
    161 H161        6.0153  -19.3708  -42.7714 H         1 UNK         0.0600 
    162 H162        6.2438  -20.9301  -43.5542 H         1 UNK         0.0600 
    163 H163        6.2344  -20.8276  -41.8010 H         1 UNK         0.0600 
    164 H164        4.2483  -19.3522  -41.0395 H         1 UNK         0.3000 
    165 H165        0.8419  -19.2338  -40.0161 H         1 UNK         0.0600 
    166 H166        1.8736  -19.3956  -37.7714 H         1 UNK         0.0600 
    167 H167        1.8656  -20.9732  -38.5425 H         1 UNK         0.0600 
    168 H168        3.3591  -20.0460  -38.4654 H         1 UNK         0.0600 
    169 H169        3.0812  -17.6869  -39.2242 H         1 UNK         0.3000 
    170 H170        2.9385  -15.3834  -39.8407 H         1 UNK         0.0600 
    171 H171        4.4823  -16.1833  -42.3913 H         1 UNK         0.0600 
    172 H172        4.9735  -14.9339  -41.2516 H         1 UNK         0.0600 
    173 H173        4.9601  -16.6136  -40.7526 H         1 UNK         0.0600 
    174 H174        1.6024  -15.1672  -42.3664 H         1 UNK         0.3000 
    175 H175        1.3939  -11.6292  -42.2025 H         1 UNK         0.0600 
    176 H176        2.6669  -13.2496  -44.4654 H         1 UNK         0.0600 
    177 H177        1.8838  -11.6734  -44.6258 H         1 UNK         0.0600 
    178 H178        3.3636  -11.8317  -43.6946 H         1 UNK         0.0600 
    179 H179        0.2622  -13.6232  -43.9641 H         1 UNK         0.3000 
    180 H180       -2.3879  -14.5725  -42.2220 H         1 UNK         0.0600 
    181 H181       -4.1575  -13.0317  -43.0981 H         1 UNK         0.0600 
    182 H182       -2.9575  -11.7537  -43.2876 H         1 UNK         0.0600 
    183 H183       -3.3673  -12.3553  -41.6843 H         1 UNK         0.0600 
    184 H184       -1.6833  -13.3673  -44.8738 H         1 UNK         0.3000 
    185 H185       -1.3743  -16.4859  -46.3258 H         1 UNK         0.0600 
    186 H186       -3.8941  -14.8293  -46.8936 H         1 UNK         0.0600 
    187 H187       -3.1215  -15.9291  -48.0336 H         1 UNK         0.0600 
    188 H188       -3.8517  -16.5567  -46.5668 H         1 UNK         0.0600 
    189 H189       -1.6299  -14.0265  -47.6645 H         1 UNK         0.3000 
    190 H190       -0.6256  -20.2153  -47.4258 H         1 UNK         0.3000 
    191 H191       -2.0874  -20.4037  -50.0271 H         1 UNK         0.0600 
    192 H192       -1.0595  -18.2568  -49.5820 H         1 UNK         0.0600 
    193 H193       -1.8016  -18.1413  -47.9940 H         1 UNK         0.0600 
    194 H194       -2.8021  -18.0811  -49.4476 H         1 UNK         0.0600 
    195 H195       -2.9820  -19.4575  -46.6709 H         1 UNK         0.3000 
    196 H196       -5.7270  -19.7802  -47.0606 H         1 UNK         0.0600 
    197 H197       -4.7303  -18.3319  -45.3071 H         1 UNK         0.0600 
    198 H198       -4.1314  -19.7456  -44.4429 H         1 UNK         0.0600 
    199 H199       -5.8600  -19.4639  -44.5871 H         1 UNK         0.0600 
    200 H200       -3.3881  -22.1520  -45.8610 H         1 UNK         0.3000 
    201 H201       -5.2770  -24.1311  -44.9988 H         1 UNK         0.0600 
    202 H202       -2.9232  -24.1191  -44.2602 H         1 UNK         0.0600 
    203 H203       -2.3744  -24.4142  -45.9151 H         1 UNK         0.0600 
    204 H204       -3.2916  -25.6427  -45.0526 H         1 UNK         0.0600 
    205 H205       -4.3773  -23.1239  -48.1898 H         1 UNK         0.3000 
    206 H206       -5.5308  -25.5669  -49.4599 H         1 UNK         0.0600 
    207 H207       -3.8448  -23.3295  -50.7020 H         1 UNK         0.0600 
    208 H208       -3.2256  -24.9078  -50.2228 H         1 UNK         0.0600 
    209 H209       -4.4245  -24.7893  -51.4994 H         1 UNK         0.0600 
    210 H210       -7.0842  -23.6562  -47.9681 H         1 UNK         0.3000 
    211 H211       -8.9684  -22.5156  -47.9841 H         1 UNK         0.0600 
    212 H212       -9.3898  -23.6692  -50.8032 H         1 UNK         0.0600 
    213 H213      -10.6360  -22.9375  -49.7921 H         1 UNK         0.0600 
    214 H214       -9.8601  -24.4256  -49.2882 H         1 UNK         0.0600 
    215 H215       -9.4807  -21.6377  -51.1976 H         1 UNK         0.3000 
    216 H216       -8.6681  -18.8570  -50.7539 H         1 UNK         0.0600 
    217 H217       -9.9152  -18.4688  -52.8545 H         1 UNK         0.0600 
    218 H218      -10.8876  -19.4151  -51.7427 H         1 UNK         0.0600 
    219 H219      -10.0936  -20.2020  -53.1069 H         1 UNK         0.0600 
    220 H220       -6.4451  -20.4951  -50.7259 H         1 UNK         0.3000 
    221 H221       -4.3798  -20.8103  -51.4873 H         1 UNK         0.0600 
    222 H222       -4.8783  -18.2926  -53.1632 H         1 UNK         0.0600 
    223 H223       -4.3944  -18.3109  -51.4674 H         1 UNK         0.0600 
    224 H224       -3.3165  -18.9384  -52.6963 H         1 UNK         0.0600 
    225 H225       -6.0928  -22.5481  -52.6211 H         1 UNK         0.3000 
    226 H226       -6.1726  -22.5518  -55.4648 H         1 UNK         0.0600 
    227 H227       -7.8558  -23.6676  -54.0061 H         1 UNK         0.0600 
    228 H228       -7.1608  -24.8116  -55.1449 H         1 UNK         0.0600 
    229 H229       -6.6420  -24.8251  -53.4635 H         1 UNK         0.0600 
    230 H230       -3.7222  -23.7019  -53.2760 H         1 UNK         0.3000 
    231 H231       -2.4281  -25.5669  -55.1241 H         1 UNK         0.0600 
    232 H232       -0.7546  -25.7232  -53.2796 H         1 UNK         0.0600 
    233 H233       -2.3854  -25.9769  -52.6820 H         1 UNK         0.0600 
    234 H234       -1.5747  -24.4353  -52.4044 H         1 UNK         0.0600 
    235 H235       -2.6031  -23.6594  -56.7051 H         1 UNK         0.3000 
    236 H236       -1.7139  -22.2531  -58.1438 H         1 UNK         0.0600 
    237 H237        1.0029  -22.6128  -56.7678 H         1 UNK         0.0600 
    238 H238        0.3902  -23.5608  -58.1205 H         1 UNK         0.0600 
    239 H239        0.7204  -21.8471  -58.3219 H         1 UNK         0.0600 
    240 H240       -0.1793  -21.4879  -55.0345 H         1 UNK         0.3000 
    241 H241       -1.8735  -19.2726  -54.5701 H         1 UNK         0.0600 
    242 H242       -0.3020  -21.3865  -51.6637 H         1 UNK         0.3800 
    243 H243       -0.3364  -21.9354  -53.3174 H         1 UNK         0.3800 
    244 H244       -0.2236  -17.4561  -54.2944 H         1 UNK         0.0800 
    245 H245       -0.4113  -17.9509  -55.9433 H         1 UNK         0.0800 
    246 H246        1.9501  -16.1825  -54.6690 H         1 UNK         0.0800 
    247 H247        3.4975  -16.9802  -54.5635 H         1 UNK         0.0800 
@<TRIPOS>BOND
     1    1    2 1    
     2    1  127 1    
     3    1  128 1    
     4    1  129 1    
     5    2    3 2    
     6    2    4 am   BACKBONE|DICT|INTERRES
     7    4    5 1    
     8    4  130 1    
     9    5    6 1    
    10    5   65 1    
    11    5  131 1    
    12    6    7 1    
    13    6  132 1    
    14    6  133 1    
    15    7    8 1    
    16    8    9 1    
    17    8  134 1    
    18    8  135 1    
    19    9   10 ar   
    20    9   14 ar   
    21   10   11 ar   
    22   10  136 1    
    23   11   12 ar   
    24   11  126 1    
    25   12   13 ar   
    26   12  137 1    
    27   13   14 ar   
    28   13   15 1    
    29   14  138 1    
    30   15   16 1    
    31   15  139 1    
    32   15  140 1    
    33   16   17 1    
    34   17   18 1    
    35   17  141 1    
    36   17  142 1    
    37   18   19 1    
    38   18   67 1    
    39   18  143 1    
    40   19   20 am   BACKBONE|DICT|INTERRES
    41   19  144 1    
    42   20   21 2    
    43   20   22 1    
    44   22   23 1    
    45   22   24 1    
    46   22  145 1    
    47   23  146 1    
    48   23  147 1    
    49   23  148 1    
    50   24   25 am   BACKBONE|DICT|INTERRES
    51   24  149 1    
    52   25   26 2    
    53   25   27 1    
    54   27   28 1    
    55   27   29 1    
    56   27  150 1    
    57   28  151 1    
    58   28  152 1    
    59   28  153 1    
    60   29   30 am   BACKBONE|DICT|INTERRES
    61   29  154 1    
    62   30   31 2    
    63   30   32 1    
    64   32   33 1    
    65   32   34 1    
    66   32  155 1    
    67   33  156 1    
    68   33  157 1    
    69   33  158 1    
    70   34   35 am   BACKBONE|DICT|INTERRES
    71   34  159 1    
    72   35   36 2    
    73   35   37 1    
    74   37   38 1    
    75   37   39 1    
    76   37  160 1    
    77   38  161 1    
    78   38  162 1    
    79   38  163 1    
    80   39   40 am   BACKBONE|DICT|INTERRES
    81   39  164 1    
    82   40   41 2    
    83   40   42 1    
    84   42   43 1    
    85   42   44 1    
    86   42  165 1    
    87   43  166 1    
    88   43  167 1    
    89   43  168 1    
    90   44   45 am   BACKBONE|DICT|INTERRES
    91   44  169 1    
    92   45   46 2    
    93   45   47 1    
    94   47   48 1    
    95   47   49 1    
    96   47  170 1    
    97   48  171 1    
    98   48  172 1    
    99   48  173 1    
   100   49   50 am   BACKBONE|DICT|INTERRES
   101   49  174 1    
   102   50   51 2    
   103   50   52 1    
   104   52   53 1    
   105   52   54 1    
   106   52  175 1    
   107   53  176 1    
   108   53  177 1    
   109   53  178 1    
   110   54   55 am   BACKBONE|DICT|INTERRES
   111   54  179 1    
   112   55   56 2    
   113   55   57 1    
   114   57   58 1    
   115   57   59 1    
   116   57  180 1    
   117   58  181 1    
   118   58  182 1    
   119   58  183 1    
   120   59   60 am   BACKBONE|DICT|INTERRES
   121   59  184 1    
   122   60   61 2    
   123   60   62 1    
   124   62   63 1    
   125   62   64 1    
   126   62  185 1    
   127   63  186 1    
   128   63  187 1    
   129   63  188 1    
   130   64   65 am   BACKBONE|DICT|INTERRES
   131   64  189 1    
   132   65   66 2    
   133   67   68 2    
   134   67   69 am   BACKBONE|DICT|INTERRES
   135   69   70 1    
   136   69  190 1    
   137   70   71 1    
   138   70   72 1    
   139   70  191 1    
   140   71  192 1    
   141   71  193 1    
   142   71  194 1    
   143   72   73 2    
   144   72   74 am   BACKBONE|DICT|INTERRES
   145   74   75 1    
   146   74  195 1    
   147   75   76 1    
   148   75   77 1    
   149   75  196 1    
   150   76  197 1    
   151   76  198 1    
   152   76  199 1    
   153   77   78 2    
   154   77   79 am   BACKBONE|DICT|INTERRES
   155   79   80 1    
   156   79  200 1    
   157   80   81 1    
   158   80   82 1    
   159   80  201 1    
   160   81  202 1    
   161   81  203 1    
   162   81  204 1    
   163   82   83 2    
   164   82   84 am   BACKBONE|DICT|INTERRES
   165   84   85 1    
   166   84  205 1    
   167   85   86 1    
   168   85   87 1    
   169   85  206 1    
   170   86  207 1    
   171   86  208 1    
   172   86  209 1    
   173   87   88 2    
   174   87   89 am   BACKBONE|DICT|INTERRES
   175   89   90 1    
   176   89  210 1    
   177   90   91 1    
   178   90   92 1    
   179   90  211 1    
   180   91  212 1    
   181   91  213 1    
   182   91  214 1    
   183   92   93 2    
   184   92   94 am   BACKBONE|DICT|INTERRES
   185   94   95 1    
   186   94  215 1    
   187   95   96 1    
   188   95   97 1    
   189   95  216 1    
   190   96  217 1    
   191   96  218 1    
   192   96  219 1    
   193   97   98 2    
   194   97   99 am   BACKBONE|DICT|INTERRES
   195   99  100 1    
   196   99  220 1    
   197  100  101 1    
   198  100  102 1    
   199  100  221 1    
   200  101  222 1    
   201  101  223 1    
   202  101  224 1    
   203  102  103 2    
   204  102  104 am   BACKBONE|DICT|INTERRES
   205  104  105 1    
   206  104  225 1    
   207  105  106 1    
   208  105  107 1    
   209  105  226 1    
   210  106  227 1    
   211  106  228 1    
   212  106  229 1    
   213  107  108 2    
   214  107  109 am   BACKBONE|DICT|INTERRES
   215  109  110 1    
   216  109  230 1    
   217  110  111 1    
   218  110  112 1    
   219  110  231 1    
   220  111  232 1    
   221  111  233 1    
   222  111  234 1    
   223  112  113 2    
   224  112  114 am   BACKBONE|DICT|INTERRES
   225  114  115 1    
   226  114  235 1    
   227  115  116 1    
   228  115  117 1    
   229  115  236 1    
   230  116  237 1    
   231  116  238 1    
   232  116  239 1    
   233  117  118 2    
   234  117  119 am   BACKBONE|DICT|INTERRES
   235  119  120 1    
   236  119  240 1    
   237  120  121 1    
   238  120  124 1    
   239  120  241 1    
   240  121  122 am   BACKBONE|DICT|INTERRES
   241  121  123 2    
   242  122  242 1    
   243  122  243 1    
   244  124  125 1    
   245  124  244 1    
   246  124  245 1    
   247  125  126 1    
   248  126  246 1    
   249  126  247 1    
@<TRIPOS>SUBSTRUCTURE
     1 UNK         1 GROUP             0       ****    0 ROOT    
