@<TRIPOS>MOLECULE
3R540
247   249    1
SMALL
USER_CHARGES


@<TRIPOS>ATOM
      1 CA          2.6603  -10.9480  -50.5911 C.3       0 UNK        -0.1800 
      2 C           2.1205  -11.9646  -49.5956 C.2       0 UNK         0.5000 
      3 O           0.9093  -12.1707  -49.5316 O.2       0 UNK        -0.5000 
      4 N           3.0163  -12.5890  -48.8163 N.am      1 UNK        -0.5000 
      5 CA          2.7393  -13.6381  -47.8165 C.3       1 UNK         0.1400 
      6 C6          2.0732  -14.9052  -48.4173 C.3       23 UNK        -0.0398 
      7 S7          3.1113  -15.6635  -49.7114 S.3       23 UNK        -0.2404 
      8 C8          2.0007  -15.5874  -51.1498 C.3       23 UNK        -0.0205 
      9 C9          0.8973  -16.6285  -51.0522 C.ar      23 UNK        -0.0193 
     10 C10        -0.4259  -16.2489  -50.8076 C.ar      23 UNK        -0.1150 
     11 C11        -1.4344  -17.2143  -50.7372 C.ar      23 UNK        -0.0193 
     12 C12        -1.1068  -18.5622  -50.9014 C.ar      23 UNK        -0.1150 
     13 C13         0.2145  -18.9587  -51.1343 C.ar      23 UNK        -0.0193 
     14 C14         1.2074  -17.9808  -51.2170 C.ar      23 UNK        -0.1150 
     15 C15         0.6037  -20.4227  -51.3274 C.3       23 UNK        -0.0205 
     16 S16        -0.4997  -21.6223  -50.5103 S.3       23 UNK        -0.2404 
     17 C17        -0.3525  -21.1283  -48.7633 C.3       23 UNK        -0.0398 
     18 CA         -0.5124  -22.3160  -47.7874 C.3       11 UNK         0.1400 
     19 N           0.0826  -22.0060  -46.4859 N.am      11 UNK        -0.5000 
     20 C           0.2908  -22.8949  -45.5062 C.2       10 UNK         0.5000 
     21 O           0.0419  -24.0958  -45.6098 O.2       10 UNK        -0.5000 
     22 CA          0.8119  -22.3349  -44.1694 C.3       10 UNK         0.1400 
     23 CB          2.3305  -22.1129  -44.2224 C.3       10 UNK        -0.1800 
     24 N           0.1425  -21.0888  -43.7884 N.am      10 UNK        -0.5000 
     25 C          -1.1668  -20.9919  -43.5161 C.2       9 UNK         0.5000 
     26 O          -1.9282  -21.9572  -43.4927 O.2       9 UNK        -0.5000 
     27 CA         -1.7374  -19.5833  -43.2809 C.3       9 UNK         0.1400 
     28 CB         -1.5060  -19.1380  -41.8295 C.3       9 UNK        -0.1800 
     29 N          -1.1893  -18.5877  -44.2022 N.am      9 UNK        -0.5000 
     30 C          -1.3527  -18.6000  -45.5332 C.2       8 UNK         0.5000 
     31 O          -2.0193  -19.4439  -46.1303 O.2       8 UNK        -0.5000 
     32 CA         -0.5971  -17.5264  -46.3377 C.3       8 UNK         0.1400 
     33 CB         -1.3304  -16.1775  -46.3010 C.3       8 UNK        -0.1800 
     34 N           0.7742  -17.3543  -45.8600 N.am      8 UNK        -0.5000 
     35 C           1.7325  -18.2842  -45.9811 C.2       7 UNK         0.5000 
     36 O           1.5673  -19.3657  -46.5457 O.2       7 UNK        -0.5000 
     37 CA          3.0823  -17.9803  -45.3059 C.3       7 UNK         0.1400 
     38 CB          4.0130  -17.1734  -46.2219 C.3       7 UNK        -0.1800 
     39 N           2.9219  -17.2773  -44.0336 N.am      7 UNK        -0.5000 
     40 C           2.4103  -17.8427  -42.9336 C.2       6 UNK         0.5000 
     41 O           2.0308  -19.0127  -42.8778 O.2       6 UNK        -0.5000 
     42 CA          2.2705  -16.9378  -41.7016 C.3       6 UNK         0.1400 
     43 CB          3.6205  -16.7695  -40.9889 C.3       6 UNK        -0.1800 
     44 N           1.7109  -15.6192  -42.0030 N.am      6 UNK        -0.5000 
     45 C           0.4521  -15.4048  -42.4167 C.2       5 UNK         0.5000 
     46 O          -0.2832  -16.3095  -42.8084 O.2       5 UNK        -0.5000 
     47 CA         -0.0952  -13.9577  -42.3743 C.3       5 UNK         0.1400 
     48 CB         -1.5868  -13.9118  -41.9881 C.3       5 UNK        -0.1800 
     49 N           0.6791  -13.0449  -41.5258 N.am      5 UNK        -0.5000 
     50 C           0.9993  -13.1710  -40.2273 C.2       4 UNK         0.5000 
     51 O           0.5081  -14.0174  -39.4794 O.2       4 UNK        -0.5000 
     52 CA          2.1021  -12.2211  -39.6967 C.3       4 UNK         0.1400 
     53 CB          3.0132  -12.9096  -38.6596 C.3       4 UNK        -0.1800 
     54 N           2.9135  -11.6057  -40.7605 N.am      4 UNK        -0.5000 
     55 C           3.6351  -12.2299  -41.7057 C.2       3 UNK         0.5000 
     56 O           3.7928  -13.4513  -41.7600 O.2       3 UNK        -0.5000 
     57 CA          4.1629  -11.3393  -42.8483 C.3       3 UNK         0.1400 
     58 CB          5.5634  -11.7809  -43.3049 C.3       3 UNK        -0.1800 
     59 N           3.2650  -11.3451  -44.0101 N.am      3 UNK        -0.5000 
     60 C           1.9715  -10.9866  -44.0254 C.2       2 UNK         0.5000 
     61 O           1.3633  -10.5891  -43.0323 O.2       2 UNK        -0.5000 
     62 CA          1.2100  -11.0788  -45.3604 C.3       2 UNK         0.1400 
     63 CB          0.8610   -9.6740  -45.8769 C.3       2 UNK        -0.1800 
     64 N           1.9382  -11.7882  -46.4098 N.am      2 UNK        -0.5000 
     65 C           1.9890  -13.1178  -46.5660 C.2       1 UNK         0.5000 
     66 O           1.4998  -13.9156  -45.7629 O.2       1 UNK        -0.5000 
     67 C          -1.9847  -22.7752  -47.6607 C.2       11 UNK         0.5000 
     68 O          -2.4045  -23.6896  -48.3729 O.2       11 UNK        -0.5000 
     69 N          -2.7405  -22.1592  -46.7411 N.am      12 UNK        -0.5000 
     70 CA         -4.1113  -22.5402  -46.4010 C.3       12 UNK         0.1400 
     71 CB         -4.7774  -21.4229  -45.5860 C.3       12 UNK        -0.1800 
     72 C          -4.1878  -23.8898  -45.6689 C.2       12 UNK         0.5000 
     73 O          -5.0553  -24.6982  -45.9966 O.2       12 UNK        -0.5000 
     74 N          -3.2576  -24.1404  -44.7370 N.am      13 UNK        -0.5000 
     75 CA         -3.1113  -25.4139  -44.0244 C.3       13 UNK         0.1400 
     76 CB         -2.0712  -25.2619  -42.9045 C.3       13 UNK        -0.1800 
     77 C          -2.7434  -26.5832  -44.9587 C.2       13 UNK         0.5000 
     78 O          -3.2174  -27.7009  -44.7536 O.2       13 UNK        -0.5000 
     79 N          -1.9470  -26.2910  -45.9957 N.am      14 UNK        -0.5000 
     80 CA         -1.6135  -27.2054  -47.0896 C.3       14 UNK         0.1400 
     81 CB         -0.3567  -26.6768  -47.8004 C.3       14 UNK        -0.1800 
     82 C          -2.7618  -27.4017  -48.1048 C.2       14 UNK         0.5000 
     83 O          -2.6450  -28.2651  -48.9749 O.2       14 UNK        -0.5000 
     84 N          -3.8263  -26.5896  -47.9989 N.am      15 UNK        -0.5000 
     85 CA         -4.9990  -26.5048  -48.8794 C.3       15 UNK         0.1400 
     86 CB         -5.7913  -27.8279  -48.8879 C.3       15 UNK        -0.1800 
     87 C          -4.6775  -25.9957  -50.3007 C.2       15 UNK         0.5000 
     88 O          -5.5039  -26.1345  -51.2030 O.2       15 UNK        -0.5000 
     89 N          -3.5007  -25.3836  -50.4762 N.am      16 UNK        -0.5000 
     90 CA         -3.0395  -24.8145  -51.7374 C.3       16 UNK         0.1400 
     91 CB         -1.5053  -24.8053  -51.7566 C.3       16 UNK        -0.1800 
     92 C          -3.6331  -23.4173  -51.9788 C.2       16 UNK         0.5000 
     93 O          -3.9588  -23.0907  -53.1198 O.2       16 UNK        -0.5000 
     94 N          -3.8411  -22.6334  -50.9093 N.am      17 UNK        -0.5000 
     95 CA         -4.5134  -21.3296  -50.9858 C.3       17 UNK         0.1400 
     96 CB         -4.4077  -20.5945  -49.6426 C.3       17 UNK        -0.1800 
     97 C          -5.9873  -21.4660  -51.4171 C.2       17 UNK         0.5000 
     98 O          -6.4800  -20.6417  -52.1862 O.2       17 UNK        -0.5000 
     99 N          -6.6373  -22.5532  -50.9748 N.am      18 UNK        -0.5000 
    100 CA        -7.9867  -22.9549  -51.3814 C.3       18 UNK         0.1400 
    101 CB        -8.4825  -24.0653  -50.4424 C.3       18 UNK        -0.1800 
    102 C         -8.0675  -23.4090  -52.8544 C.2       18 UNK         0.5000 
    103 O         -9.1345  -23.3093  -53.4599 O.2       18 UNK        -0.5000 
    104 N         -6.9358  -23.8600  -53.4132 N.am      19 UNK        -0.5000 
    105 CA        -6.7550  -24.1944  -54.8275 C.3       19 UNK         0.1400 
    106 CB        -5.7602  -25.3627  -54.9398 C.3       19 UNK        -0.1800 
    107 C         -6.3003  -22.9786  -55.6674 C.2       19 UNK         0.5000 
    108 O         -5.9631  -23.1507  -56.8394 O.2       19 UNK        -0.5000 
    109 N         -6.3093  -21.7791  -55.0650 N.am      20 UNK        -0.5000 
    110 CA        -5.9830  -20.4757  -55.6467 C.3       20 UNK         0.1400 
    111 CB        -6.9255  -20.1292  -56.8192 C.3       20 UNK        -0.1800 
    112 C         -4.4903  -20.2991  -55.9903 C.2       20 UNK         0.5000 
    113 O         -4.1608  -19.5730  -56.9308 O.2       20 UNK        -0.5000 
    114 N         -3.5989  -20.9037  -55.1881 N.am      21 UNK        -0.5000 
    115 CA        -2.1426  -20.7261  -55.2857 C.3       21 UNK         0.1400 
    116 CB        -1.4362  -21.7608  -54.3985 C.3       21 UNK        -0.1800 
    117 C         -1.6500  -19.3011  -54.9452 C.2       21 UNK         0.5000 
    118 O         -0.4883  -18.9907  -55.2117 O.2       21 UNK        -0.5000 
    119 N         -2.5319  -18.4612  -54.3849 N.am      22 UNK        -0.5000 
    120 CA        -2.2977  -17.0365  -54.0978 C.3       22 UNK         0.1400 
    121 C         -2.0430  -16.1502  -55.3542 C.2       22 UNK         0.5000 
    122 N         -2.4155  -16.5770  -56.5561 N.am      22 UNK        -0.7600 
    123 O         -1.5038  -15.0538  -55.2338 O.2       22 UNK        -0.5000 
    124 C124       -3.4379  -16.4079  -53.2475 C.3       23 UNK        -0.0398 
    125 S125       -3.9849  -17.4086  -51.8205 S.3       23 UNK        -0.2404 
    126 C126       -2.8817  -16.8108  -50.4980 C.3       23 UNK        -0.0205 
    127 H127        3.7456  -10.8608  -50.5348 H         1 UNK         0.0600 
    128 H128        2.2292   -9.9661  -50.3959 H         1 UNK         0.0600 
    129 H129        2.3954  -11.2423  -51.6066 H         1 UNK         0.0600 
    130 H130        3.9951  -12.3657  -48.9334 H         1 UNK         0.3000 
    131 H131        3.7183  -13.9386  -47.4406 H         1 UNK         0.0600 
    132 H132        1.9095  -15.6641  -47.6555 H         1 UNK         0.0800 
    133 H133        1.0826  -14.6741  -48.8091 H         1 UNK         0.0800 
    134 H134        2.5825  -15.7676  -52.0548 H         1 UNK         0.0800 
    135 H135        1.5877  -14.5822  -51.2469 H         1 UNK         0.0800 
    136 H136       -0.6704  -15.2032  -50.6830 H         1 UNK         0.1150 
    137 H137       -1.8960  -19.2979  -50.8615 H         1 UNK         0.1150 
    138 H138        2.2316  -18.2706  -51.4063 H         1 UNK         0.1150 
    139 H139        1.6192  -20.5897  -50.9649 H         1 UNK         0.0800 
    140 H140        0.6182  -20.6350  -52.3967 H         1 UNK         0.0800 
    141 H141       -1.0646  -20.3314  -48.5443 H         1 UNK         0.0800 
    142 H142        0.6361  -20.6853  -48.6376 H         1 UNK         0.0800 
    143 H143        0.0514  -23.1604  -48.1900 H         1 UNK         0.0600 
    144 H144        0.3512  -21.0401  -46.3303 H         1 UNK         0.3000 
    145 H145        0.6047  -23.0761  -43.3949 H         1 UNK         0.0600 
    146 H146        2.8509  -23.0355  -44.4825 H         1 UNK         0.0600 
    147 H147        2.7140  -21.7841  -43.2564 H         1 UNK         0.0600 
    148 H148        2.6037  -21.3613  -44.9632 H         1 UNK         0.0600 
    149 H149        0.7215  -20.2573  -43.7216 H         1 UNK         0.3000 
    150 H150       -2.8147  -19.6305  -43.4504 H         1 UNK         0.0600 
    151 H151       -0.4447  -19.0264  -41.6064 H         1 UNK         0.0600 
    152 H152       -1.9159  -19.8647  -41.1271 H         1 UNK         0.0600 
    153 H153       -1.9917  -18.1829  -41.6290 H         1 UNK         0.0600 
    154 H154       -0.6711  -17.8217  -43.7770 H         1 UNK         0.3000 
    155 H155       -0.5545  -17.8577  -47.3780 H         1 UNK         0.0600 
    156 H156       -0.8290  -15.4405  -46.9288 H         1 UNK         0.0600 
    157 H157       -1.3856  -15.7728  -45.2900 H         1 UNK         0.0600 
    158 H158       -2.3510  -16.2796  -46.6718 H         1 UNK         0.0600 
    159 H159        0.9777  -16.5045  -45.3527 H         1 UNK         0.3000 
    160 H160        3.5638  -18.9406  -45.1084 H         1 UNK         0.0600 
    161 H161        3.7035  -16.1324  -46.2950 H         1 UNK         0.0600 
    162 H162        4.0362  -17.5888  -47.2305 H         1 UNK         0.0600 
    163 H163        5.0351  -17.1847  -45.8433 H         1 UNK         0.0600 
    164 H164        3.1906  -16.3046  -43.9992 H         1 UNK         0.3000 
    165 H165        1.5868  -17.4335  -41.0092 H         1 UNK         0.0600 
    166 H166        4.0505  -17.7380  -40.7305 H         1 UNK         0.0600 
    167 H167        4.3438  -16.2434  -41.6133 H         1 UNK         0.0600 
    168 H168        3.5079  -16.2059  -40.0626 H         1 UNK         0.0600 
    169 H169        2.2898  -14.8206  -41.7642 H         1 UNK         0.3000 
    170 H170       -0.0051  -13.5762  -43.3919 H         1 UNK         0.0600 
    171 H171       -1.9608  -12.8880  -41.9815 H         1 UNK         0.0600 
    172 H172       -1.7607  -14.3398  -41.0005 H         1 UNK         0.0600 
    173 H173       -2.1947  -14.4725  -42.6992 H         1 UNK         0.0600 
    174 H174        1.0985  -12.2610  -42.0154 H         1 UNK         0.3000 
    175 H175        1.5821  -11.4042  -39.1947 H         1 UNK         0.0600 
    176 H176        3.5152  -13.7826  -39.0775 H         1 UNK         0.0600 
    177 H177        2.4403  -13.2457  -37.7946 H         1 UNK         0.0600 
    178 H178        3.7791  -12.2264  -38.2927 H         1 UNK         0.0600 
    179 H179        2.7894  -10.6068  -40.8594 H         1 UNK         0.3000 
    180 H180        4.2363  -10.3131  -42.4828 H         1 UNK         0.0600 
    181 H181        5.5503  -12.7802  -43.7423 H         1 UNK         0.0600 
    182 H182        6.2594  -11.7995  -42.4653 H         1 UNK         0.0600 
    183 H183        5.9705  -11.0953  -44.0482 H         1 UNK         0.0600 
    184 H184        3.6646  -11.6735  -44.8760 H         1 UNK         0.3000 
    185 H185        0.2757  -11.6092  -45.1641 H         1 UNK         0.0600 
    186 H186        0.2737   -9.1201  -45.1432 H         1 UNK         0.0600 
    187 H187        1.7565   -9.0889  -46.0900 H         1 UNK         0.0600 
    188 H188        0.2685   -9.7263  -46.7907 H         1 UNK         0.0600 
    189 H189        2.3763  -11.2170  -47.1177 H         1 UNK         0.3000 
    190 H190       -2.3563  -21.3553  -46.2532 H         1 UNK         0.3000 
    191 H191       -4.6697  -22.6576  -47.3301 H         1 UNK         0.0600 
    192 H192       -4.7700  -20.4796  -46.1327 H         1 UNK         0.0600 
    193 H193       -5.8181  -21.6663  -45.3689 H         1 UNK         0.0600 
    194 H194       -4.2733  -21.2612  -44.6338 H         1 UNK         0.0600 
    195 H195       -2.6188  -23.3945  -44.4712 H         1 UNK         0.3000 
    196 H196       -4.0732  -25.6492  -43.5644 H         1 UNK         0.0600 
    197 H197       -1.9695  -26.1880  -42.3376 H         1 UNK         0.0600 
    198 H198       -2.3602  -24.4802  -42.2017 H         1 UNK         0.0600 
    199 H199       -1.0874  -25.0090  -43.2996 H         1 UNK         0.0600 
    200 H200       -1.5356  -25.3645  -46.0396 H         1 UNK         0.3000 
    201 H201       -1.3808  -28.1842  -46.6656 H         1 UNK         0.0600 
    202 H202       -0.0379  -27.3550  -48.5928 H         1 UNK         0.0600 
    203 H203        0.4769  -26.5764  -47.1050 H         1 UNK         0.0600 
    204 H204       -0.5315  -25.7013  -48.2549 H         1 UNK         0.0600 
    205 H205       -3.8279  -25.9216  -47.2379 H         1 UNK         0.3000 
    206 H206       -5.6457  -25.7456  -48.4385 H         1 UNK         0.0600 
    207 H207       -6.0095  -28.1626  -47.8738 H         1 UNK         0.0600 
    208 H208       -6.7462  -27.7079  -49.4009 H         1 UNK         0.0600 
    209 H209       -5.2481  -28.6246  -49.3964 H         1 UNK         0.0600 
    210 H210       -2.9185  -25.2173  -49.6630 H         1 UNK         0.3000 
    211 H211       -3.3734  -25.4514  -52.5592 H         1 UNK         0.0600 
    212 H212       -1.1140  -25.8191  -51.8419 H         1 UNK         0.0600 
    213 H213       -1.1190  -24.2348  -52.6020 H         1 UNK         0.0600 
    214 H214       -1.0937  -24.3751  -50.8447 H         1 UNK         0.0600 
    215 H215       -3.5170  -22.9504  -50.0031 H         1 UNK         0.3000 
    216 H216       -3.9955  -20.7317  -51.7392 H         1 UNK         0.0600 
    217 H217       -5.0020  -21.0780  -48.8698 H         1 UNK         0.0600 
    218 H218       -4.7753  -19.5720  -49.7341 H         1 UNK         0.0600 
    219 H219       -3.3771  -20.5361  -49.2959 H         1 UNK         0.0600 
    220 H220       -6.1445  -23.1862  -50.3637 H         1 UNK         0.3000 
    221 H221       -8.6451  -22.0911  -51.2672 H         1 UNK         0.0600 
    222 H222       -7.8634  -24.9600  -50.5120 H         1 UNK         0.0600 
    223 H223       -8.4813  -23.7350  -49.4035 H         1 UNK         0.0600 
    224 H224       -9.5046  -24.3557  -50.6887 H         1 UNK         0.0600 
    225 H225       -6.0976  -23.8908  -52.8493 H         1 UNK         0.3000 
    226 H226       -7.7082  -24.5298  -55.2409 H         1 UNK         0.0600 
    227 H227       -6.0618  -26.2011  -54.3114 H         1 UNK         0.0600 
    228 H228       -5.7040  -25.7302  -55.9650 H         1 UNK         0.0600 
    229 H229       -4.7533  -25.0689  -54.6453 H         1 UNK         0.0600 
    230 H230       -6.5691  -21.7495  -54.0872 H         1 UNK         0.3000 
    231 H231       -6.1830  -19.7500  -54.8572 H         1 UNK         0.0600 
    232 H232       -6.7356  -20.7529  -57.6929 H         1 UNK         0.0600 
    233 H233       -6.7984  -19.0911  -57.1284 H         1 UNK         0.0600 
    234 H234       -7.9705  -20.2552  -56.5362 H         1 UNK         0.0600 
    235 H235       -3.9281  -21.5311  -54.4610 H         1 UNK         0.3000 
    236 H236       -1.8556  -20.9227  -56.3206 H         1 UNK         0.0600 
    237 H237       -1.6644  -21.6011  -53.3448 H         1 UNK         0.0600 
    238 H238       -1.7313  -22.7761  -54.6629 H         1 UNK         0.0600 
    239 H239       -0.3531  -21.7010  -54.5107 H         1 UNK         0.0600 
    240 H240       -3.4542  -18.8075  -54.1720 H         1 UNK         0.3000 
    241 H241       -1.3787  -16.9900  -53.5126 H         1 UNK         0.0600 
    242 H242       -2.8650  -17.4746  -56.6688 H         1 UNK         0.3800 
    243 H243       -2.2463  -15.9973  -57.3630 H         1 UNK         0.3800 
    244 H244       -3.1414  -15.4201  -52.8905 H         1 UNK         0.0800 
    245 H245       -4.3196  -16.2463  -53.8703 H         1 UNK         0.0800 
    246 H246       -2.9802  -15.7283  -50.4045 H         1 UNK         0.0800 
    247 H247       -3.2094  -17.2347  -49.5478 H         1 UNK         0.0800 
@<TRIPOS>BOND
     1    1    2 1    
     2    1  127 1    
     3    1  128 1    
     4    1  129 1    
     5    2    3 2    
     6    2    4 am   BACKBONE|DICT|INTERRES
     7    4    5 1    
     8    4  130 1    
     9    5    6 1    
    10    5   65 1    
    11    5  131 1    
    12    6    7 1    
    13    6  132 1    
    14    6  133 1    
    15    7    8 1    
    16    8    9 1    
    17    8  134 1    
    18    8  135 1    
    19    9   10 ar   
    20    9   14 ar   
    21   10   11 ar   
    22   10  136 1    
    23   11   12 ar   
    24   11  126 1    
    25   12   13 ar   
    26   12  137 1    
    27   13   14 ar   
    28   13   15 1    
    29   14  138 1    
    30   15   16 1    
    31   15  139 1    
    32   15  140 1    
    33   16   17 1    
    34   17   18 1    
    35   17  141 1    
    36   17  142 1    
    37   18   19 1    
    38   18   67 1    
    39   18  143 1    
    40   19   20 am   BACKBONE|DICT|INTERRES
    41   19  144 1    
    42   20   21 2    
    43   20   22 1    
    44   22   23 1    
    45   22   24 1    
    46   22  145 1    
    47   23  146 1    
    48   23  147 1    
    49   23  148 1    
    50   24   25 am   BACKBONE|DICT|INTERRES
    51   24  149 1    
    52   25   26 2    
    53   25   27 1    
    54   27   28 1    
    55   27   29 1    
    56   27  150 1    
    57   28  151 1    
    58   28  152 1    
    59   28  153 1    
    60   29   30 am   BACKBONE|DICT|INTERRES
    61   29  154 1    
    62   30   31 2    
    63   30   32 1    
    64   32   33 1    
    65   32   34 1    
    66   32  155 1    
    67   33  156 1    
    68   33  157 1    
    69   33  158 1    
    70   34   35 am   BACKBONE|DICT|INTERRES
    71   34  159 1    
    72   35   36 2    
    73   35   37 1    
    74   37   38 1    
    75   37   39 1    
    76   37  160 1    
    77   38  161 1    
    78   38  162 1    
    79   38  163 1    
    80   39   40 am   BACKBONE|DICT|INTERRES
    81   39  164 1    
    82   40   41 2    
    83   40   42 1    
    84   42   43 1    
    85   42   44 1    
    86   42  165 1    
    87   43  166 1    
    88   43  167 1    
    89   43  168 1    
    90   44   45 am   BACKBONE|DICT|INTERRES
    91   44  169 1    
    92   45   46 2    
    93   45   47 1    
    94   47   48 1    
    95   47   49 1    
    96   47  170 1    
    97   48  171 1    
    98   48  172 1    
    99   48  173 1    
   100   49   50 am   BACKBONE|DICT|INTERRES
   101   49  174 1    
   102   50   51 2    
   103   50   52 1    
   104   52   53 1    
   105   52   54 1    
   106   52  175 1    
   107   53  176 1    
   108   53  177 1    
   109   53  178 1    
   110   54   55 am   BACKBONE|DICT|INTERRES
   111   54  179 1    
   112   55   56 2    
   113   55   57 1    
   114   57   58 1    
   115   57   59 1    
   116   57  180 1    
   117   58  181 1    
   118   58  182 1    
   119   58  183 1    
   120   59   60 am   BACKBONE|DICT|INTERRES
   121   59  184 1    
   122   60   61 2    
   123   60   62 1    
   124   62   63 1    
   125   62   64 1    
   126   62  185 1    
   127   63  186 1    
   128   63  187 1    
   129   63  188 1    
   130   64   65 am   BACKBONE|DICT|INTERRES
   131   64  189 1    
   132   65   66 2    
   133   67   68 2    
   134   67   69 am   BACKBONE|DICT|INTERRES
   135   69   70 1    
   136   69  190 1    
   137   70   71 1    
   138   70   72 1    
   139   70  191 1    
   140   71  192 1    
   141   71  193 1    
   142   71  194 1    
   143   72   73 2    
   144   72   74 am   BACKBONE|DICT|INTERRES
   145   74   75 1    
   146   74  195 1    
   147   75   76 1    
   148   75   77 1    
   149   75  196 1    
   150   76  197 1    
   151   76  198 1    
   152   76  199 1    
   153   77   78 2    
   154   77   79 am   BACKBONE|DICT|INTERRES
   155   79   80 1    
   156   79  200 1    
   157   80   81 1    
   158   80   82 1    
   159   80  201 1    
   160   81  202 1    
   161   81  203 1    
   162   81  204 1    
   163   82   83 2    
   164   82   84 am   BACKBONE|DICT|INTERRES
   165   84   85 1    
   166   84  205 1    
   167   85   86 1    
   168   85   87 1    
   169   85  206 1    
   170   86  207 1    
   171   86  208 1    
   172   86  209 1    
   173   87   88 2    
   174   87   89 am   BACKBONE|DICT|INTERRES
   175   89   90 1    
   176   89  210 1    
   177   90   91 1    
   178   90   92 1    
   179   90  211 1    
   180   91  212 1    
   181   91  213 1    
   182   91  214 1    
   183   92   93 2    
   184   92   94 am   BACKBONE|DICT|INTERRES
   185   94   95 1    
   186   94  215 1    
   187   95   96 1    
   188   95   97 1    
   189   95  216 1    
   190   96  217 1    
   191   96  218 1    
   192   96  219 1    
   193   97   98 2    
   194   97   99 am   BACKBONE|DICT|INTERRES
   195   99  100 1    
   196   99  220 1    
   197  100  101 1    
   198  100  102 1    
   199  100  221 1    
   200  101  222 1    
   201  101  223 1    
   202  101  224 1    
   203  102  103 2    
   204  102  104 am   BACKBONE|DICT|INTERRES
   205  104  105 1    
   206  104  225 1    
   207  105  106 1    
   208  105  107 1    
   209  105  226 1    
   210  106  227 1    
   211  106  228 1    
   212  106  229 1    
   213  107  108 2    
   214  107  109 am   BACKBONE|DICT|INTERRES
   215  109  110 1    
   216  109  230 1    
   217  110  111 1    
   218  110  112 1    
   219  110  231 1    
   220  111  232 1    
   221  111  233 1    
   222  111  234 1    
   223  112  113 2    
   224  112  114 am   BACKBONE|DICT|INTERRES
   225  114  115 1    
   226  114  235 1    
   227  115  116 1    
   228  115  117 1    
   229  115  236 1    
   230  116  237 1    
   231  116  238 1    
   232  116  239 1    
   233  117  118 2    
   234  117  119 am   BACKBONE|DICT|INTERRES
   235  119  120 1    
   236  119  240 1    
   237  120  121 1    
   238  120  124 1    
   239  120  241 1    
   240  121  122 am   BACKBONE|DICT|INTERRES
   241  121  123 2    
   242  122  242 1    
   243  122  243 1    
   244  124  125 1    
   245  124  244 1    
   246  124  245 1    
   247  125  126 1    
   248  126  246 1    
   249  126  247 1    
@<TRIPOS>SUBSTRUCTURE
     1 UNK         1 GROUP             0       ****    0 ROOT    
