@<TRIPOS>MOLECULE
3R540
247   249    1
SMALL
USER_CHARGES


@<TRIPOS>ATOM
      1 CA          1.1719  -16.1941  -50.7028 C.3       0 UNK        -0.1800 
      2 C           0.9517  -15.7543  -49.2619 C.2       0 UNK         0.5000 
      3 O           1.7728  -16.0457  -48.3917 O.2       0 UNK        -0.5000 
      4 N          -0.1402  -15.0215  -49.0095 N.am      1 UNK        -0.5000 
      5 CA         -0.4880  -14.4216  -47.7145 C.3       1 UNK         0.1400 
      6 C6         -2.0128  -14.1581  -47.5931 C.3       23 UNK        -0.0398 
      7 S7         -2.9545  -15.7033  -47.3787 S.3       23 UNK        -0.2404 
      8 C8         -3.5332  -16.0706  -49.0609 C.3       23 UNK        -0.0205 
      9 C9         -3.4914  -17.5700  -49.3015 C.ar      23 UNK        -0.0193 
     10 C10        -4.5737  -18.3772  -48.9376 C.ar      23 UNK        -0.1150 
     11 C11        -4.5118  -19.7646  -49.1036 C.ar      23 UNK        -0.0193 
     12 C12        -3.3474  -20.3402  -49.6156 C.ar      23 UNK        -0.1150 
     13 C13        -2.2702  -19.5437  -50.0058 C.ar      23 UNK        -0.0193 
     14 C14        -2.3512  -18.1572  -49.8554 C.ar      23 UNK        -0.1150 
     15 C15        -1.0309  -20.2010  -50.5922 C.3       23 UNK        -0.0205 
     16 S16         0.5323  -19.6940  -49.8045 S.3       23 UNK        -0.2404 
     17 C17         0.1956  -19.8967  -48.0228 C.3       23 UNK        -0.0398 
     18 CA          0.4768  -21.3293  -47.5085 C.3       11 UNK         0.1400 
     19 N           0.9402  -21.3294  -46.1213 N.am      11 UNK        -0.5000 
     20 C           1.4081  -22.4006  -45.4665 C.2       10 UNK         0.5000 
     21 O           1.5493  -23.5119  -45.9774 O.2       10 UNK        -0.5000 
     22 CA          1.7157  -22.2044  -43.9721 C.3       10 UNK         0.1400 
     23 CB          3.0784  -21.5245  -43.7700 C.3       10 UNK        -0.1800 
     24 N           0.6735  -21.4278  -43.3003 N.am      10 UNK        -0.5000 
     25 C          -0.5819  -21.8578  -43.1109 C.2       9 UNK         0.5000 
     26 O          -0.9819  -22.9721  -43.4469 O.2       9 UNK        -0.5000 
     27 CA         -1.5661  -20.8619  -42.4753 C.3       9 UNK         0.1400 
     28 CB         -1.4514  -20.8917  -40.9444 C.3       9 UNK        -0.1800 
     29 N          -1.3796  -19.4933  -42.9613 N.am      9 UNK        -0.5000 
     30 C          -1.6272  -19.1088  -44.2221 C.2       8 UNK         0.5000 
     31 O          -2.0158  -19.8733  -45.1038 O.2       8 UNK        -0.5000 
     32 CA         -1.3617  -17.6353  -44.5739 C.3       8 UNK         0.1400 
     33 CB         -2.4884  -16.7393  -44.0400 C.3       8 UNK        -0.1800 
     34 N          -0.0766  -17.1293  -44.0941 N.am      8 UNK        -0.5000 
     35 C           1.1233  -17.6534  -44.3835 C.2       7 UNK         0.5000 
     36 O           1.2882  -18.6894  -45.0257 O.2       7 UNK        -0.5000 
     37 CA          2.3445  -16.8914  -43.8512 C.3       7 UNK         0.1400 
     38 CB          2.7284  -15.7619  -44.8179 C.3       7 UNK        -0.1800 
     39 N           2.0731  -16.3460  -42.5196 N.am      7 UNK        -0.5000 
     40 C           2.2755  -17.0451  -41.3941 C.2       6 UNK         0.5000 
     41 O           2.7813  -18.1681  -41.3670 O.2       6 UNK        -0.5000 
     42 CA          1.8157  -16.3980  -40.0764 C.3       6 UNK         0.1400 
     43 CB          2.7530  -15.2507  -39.6694 C.3       6 UNK        -0.1800 
     44 N           0.4372  -15.9091  -40.0959 N.am      6 UNK        -0.5000 
     45 C          -0.6618  -16.6273  -40.3586 C.2       5 UNK         0.5000 
     46 O          -0.6431  -17.7949  -40.7439 O.2       5 UNK        -0.5000 
     47 CA         -2.0205  -15.9220  -40.1758 C.3       5 UNK         0.1400 
     48 CB         -2.3655  -15.7367  -38.6856 C.3       5 UNK        -0.1800 
     49 N          -2.1366  -14.6664  -40.9277 N.am      5 UNK        -0.5000 
     50 C          -1.4567  -13.5261  -40.7544 C.2       4 UNK         0.5000 
     51 O          -0.6592  -13.3198  -39.8360 O.2       4 UNK        -0.5000 
     52 CA         -1.6739  -12.4439  -41.8243 C.3       4 UNK         0.1400 
     53 CB         -2.4841  -11.2690  -41.2562 C.3       4 UNK        -0.1800 
     54 N          -0.4009  -11.9478  -42.3463 N.am      4 UNK        -0.5000 
     55 C           0.5168  -12.6933  -42.9744 C.2       3 UNK         0.5000 
     56 O           0.3961  -13.9021  -43.2071 O.2       3 UNK        -0.5000 
     57 CA          1.7884  -11.9672  -43.4240 C.3       3 UNK         0.1400 
     58 CB          2.9812  -12.3188  -42.5208 C.3       3 UNK        -0.1800 
     59 N           2.0611  -12.3863  -44.7888 N.am      3 UNK        -0.5000 
     60 C           2.5977  -11.6359  -45.7553 C.2       2 UNK         0.5000 
     61 O           3.0152  -10.4901  -45.5829 O.2       2 UNK        -0.5000 
     62 CA          2.6717  -12.2711  -47.1582 C.3       2 UNK         0.1400 
     63 CB          4.0709  -12.8537  -47.4091 C.3       2 UNK        -0.1800 
     64 N           1.6783  -13.3265  -47.3778 N.am      2 UNK        -0.5000 
     65 C           0.3543  -13.1469  -47.4761 C.2       1 UNK         0.5000 
     66 O          -0.1872  -12.0425  -47.4080 O.2       1 UNK        -0.5000 
     67 C          -0.7425  -22.2550  -47.6951 C.2       11 UNK         0.5000 
     68 O          -0.7426  -23.0743  -48.6110 O.2       11 UNK        -0.5000 
     69 N          -1.7335  -22.1502  -46.7974 N.am      12 UNK        -0.5000 
     70 CA         -2.9336  -22.9866  -46.7848 C.3       12 UNK         0.1400 
     71 CB         -3.9213  -22.4603  -45.7338 C.3       12 UNK        -0.1800 
     72 C          -2.6329  -24.4786  -46.5570 C.2       12 UNK         0.5000 
     73 O          -3.2368  -25.3187  -47.2234 O.2       12 UNK        -0.5000 
     74 N          -1.6834  -24.7835  -45.6602 N.am      13 UNK        -0.5000 
     75 CA         -1.1982  -26.1408  -45.3962 C.3       13 UNK         0.1400 
     76 CB         -0.2891  -26.1321  -44.1582 C.3       13 UNK        -0.1800 
     77 C          -0.4697  -26.7636  -46.6030 C.2       13 UNK         0.5000 
     78 O          -0.6272  -27.9581  -46.8575 O.2       13 UNK        -0.5000 
     79 N           0.2886  -25.9403  -47.3390 N.am      14 UNK        -0.5000 
     80 CA          0.9645  -26.3166  -48.5825 C.3       14 UNK         0.1400 
     81 CB          2.0984  -25.3128  -48.8470 C.3       14 UNK        -0.1800 
     82 C           0.0186  -26.3832  -49.8002 C.2       14 UNK         0.5000 
     83 O           0.4124  -26.9260  -50.8339 O.2       14 UNK        -0.5000 
     84 N          -1.1850  -25.8052  -49.6718 N.am      15 UNK        -0.5000 
     85 CA         -2.1979  -25.5273  -50.6951 C.3       15 UNK         0.1400 
     86 CB         -2.6813  -26.8075  -51.4058 C.3       15 UNK        -0.1800 
     87 C          -1.7206  -24.4453  -51.6797 C.2       15 UNK         0.5000 
     88 O          -2.2739  -23.3452  -51.6829 O.2       15 UNK        -0.5000 
     89 N          -0.6806  -24.7796  -52.4575 N.am      16 UNK        -0.5000 
     90 CA          0.1622  -23.9674  -53.3461 C.3       16 UNK         0.1400 
     91 CB          1.0196  -22.9963  -52.5147 C.3       16 UNK        -0.1800 
     92 C          -0.5332  -23.2162  -54.5011 C.2       16 UNK         0.5000 
     93 O           0.0355  -23.1491  -55.5912 O.2       16 UNK        -0.5000 
     94 N          -1.7141  -22.6406  -54.2430 N.am      17 UNK        -0.5000 
     95 CA         -2.5018  -21.7604  -55.1141 C.3       17 UNK         0.1400 
     96 CB         -3.0320  -22.5277  -56.3426 C.3       17 UNK        -0.1800 
     97 C          -1.7576  -20.4565  -55.4893 C.2       17 UNK         0.5000 
     98 O          -1.9577  -19.9171  -56.5787 O.2       17 UNK        -0.5000 
     99 N          -0.8870  -19.9876  -54.5831 N.am      18 UNK        -0.5000 
    100 CA         0.0425  -18.8747  -54.7969 C.3       18 UNK         0.1400 
    101 CB         1.1542  -18.9493  -53.7377 C.3       18 UNK        -0.1800 
    102 C         -0.6116  -17.4794  -54.7838 C.2       18 UNK         0.5000 
    103 O          0.0125  -16.5242  -55.2482 O.2       18 UNK        -0.5000 
    104 N         -1.8332  -17.3742  -54.2500 N.am      19 UNK        -0.5000 
    105 CA        -2.6018  -16.1368  -54.1725 C.3       19 UNK         0.1400 
    106 CB        -2.3005  -15.4089  -52.8489 C.3       19 UNK        -0.1800 
    107 C         -4.0821  -16.4829  -54.3570 C.2       19 UNK         0.5000 
    108 O         -4.6103  -16.3263  -55.4588 O.2       19 UNK        -0.5000 
    109 N         -4.7127  -16.9921  -53.2918 N.am      20 UNK        -0.5000 
    110 CA        -6.0461  -17.5881  -53.3410 C.3       20 UNK         0.1400 
    111 CB        -6.6126  -17.6554  -51.9166 C.3       20 UNK        -0.1800 
    112 C         -5.9739  -18.9951  -53.9587 C.2       20 UNK         0.5000 
    113 O         -4.9375  -19.6562  -53.8539 O.2       20 UNK        -0.5000 
    114 N         -7.0796  -19.4479  -54.5605 N.am      21 UNK        -0.5000 
    115 CA        -7.2168  -20.7485  -55.2253 C.3       21 UNK         0.1400 
    116 CB        -8.3633  -20.6584  -56.2487 C.3       21 UNK        -0.1800 
    117 C         -7.3960  -21.9185  -54.2300 C.2       21 UNK         0.5000 
    118 O         -8.3250  -22.7166  -54.3662 O.2       21 UNK        -0.5000 
    119 N         -6.5048  -21.9908  -53.2374 N.am      22 UNK        -0.5000 
    120 CA        -6.4822  -23.0060  -52.1724 C.3       22 UNK         0.1400 
    121 C         -5.8493  -24.3657  -52.5919 C.2       22 UNK         0.5000 
    122 N         -5.2804  -24.5024  -53.7836 N.am      22 UNK        -0.7600 
    123 O         -5.8910  -25.3222  -51.8240 O.2       22 UNK        -0.5000 
    124 C124       -5.8067  -22.4532  -50.8939 C.3       23 UNK        -0.0398 
    125 S125       -6.7277  -21.0527  -50.1671 S.3       23 UNK        -0.2404 
    126 C126       -5.6959  -20.6410  -48.7234 C.3       23 UNK        -0.0205 
    127 H127        0.2289  -16.3255  -51.2325 H         1 UNK         0.0600 
    128 H128        1.7644  -15.4498  -51.2342 H         1 UNK         0.0600 
    129 H129        1.7122  -17.1395  -50.7352 H         1 UNK         0.0600 
    130 H130       -0.7475  -14.7741  -49.7760 H         1 UNK         0.3000 
    131 H131       -0.2127  -15.1212  -46.9212 H         1 UNK         0.0600 
    132 H132       -2.2265  -13.5506  -46.7116 H         1 UNK         0.0800 
    133 H133       -2.3909  -13.5937  -48.4469 H         1 UNK         0.0800 
    134 H134       -4.5475  -15.6900  -49.1898 H         1 UNK         0.0800 
    135 H135       -2.9133  -15.5550  -49.7929 H         1 UNK         0.0800 
    136 H136       -5.4611  -17.9247  -48.5179 H         1 UNK         0.1150 
    137 H137       -3.2768  -21.4131  -49.7190 H         1 UNK         0.1150 
    138 H138       -1.5114  -17.5405  -50.1376 H         1 UNK         0.1150 
    139 H139       -1.1100  -21.2851  -50.5259 H         1 UNK         0.0800 
    140 H140       -0.9868  -19.9648  -51.6538 H         1 UNK         0.0800 
    141 H141       -0.8063  -19.5527  -47.7612 H         1 UNK         0.0800 
    142 H142        0.8688  -19.1924  -47.5338 H         1 UNK         0.0800 
    143 H143        1.2952  -21.7501  -48.0970 H         1 UNK         0.0600 
    144 H144        0.8964  -20.4401  -45.6298 H         1 UNK         0.3000 
    145 H145        1.7563  -23.1917  -43.5071 H         1 UNK         0.0600 
    146 H146        3.3211  -21.4356  -42.7109 H         1 UNK         0.0600 
    147 H147        3.8749  -22.1033  -44.2392 H         1 UNK         0.0600 
    148 H148        3.1022  -20.5239  -44.2024 H         1 UNK         0.0600 
    149 H149        0.9071  -20.4828  -43.0318 H         1 UNK         0.3000 
    150 H150       -2.5764  -21.1779  -42.7434 H         1 UNK         0.0600 
    151 H151       -1.6209  -21.8981  -40.5594 H         1 UNK         0.0600 
    152 H152       -2.1900  -20.2373  -40.4812 H         1 UNK         0.0600 
    153 H153       -0.4640  -20.5727  -40.6084 H         1 UNK         0.0600 
    154 H154       -1.0491  -18.8121  -42.2819 H         1 UNK         0.3000 
    155 H155       -1.3474  -17.5581  -45.6628 H         1 UNK         0.0600 
    156 H156       -2.5754  -16.8073  -42.9571 H         1 UNK         0.0600 
    157 H157       -2.3228  -15.6939  -44.3016 H         1 UNK         0.0600 
    158 H158       -3.4496  -17.0327  -44.4641 H         1 UNK         0.0600 
    159 H159       -0.1013  -16.2717  -43.5608 H         1 UNK         0.3000 
    160 H160        3.1864  -17.5855  -43.8029 H         1 UNK         0.0600 
    161 H161        1.8783  -15.1191  -45.0379 H         1 UNK         0.0600 
    162 H162        3.0747  -16.1706  -45.7682 H         1 UNK         0.0600 
    163 H163        3.5319  -15.1451  -44.4156 H         1 UNK         0.0600 
    164 H164        1.6158  -15.4427  -42.4745 H         1 UNK         0.3000 
    165 H165        1.8713  -17.1665  -39.3028 H         1 UNK         0.0600 
    166 H166        2.6750  -14.4058  -40.3533 H         1 UNK         0.0600 
    167 H167        2.5195  -14.8898  -38.6676 H         1 UNK         0.0600 
    168 H168        3.7941  -15.5762  -39.6628 H         1 UNK         0.0600 
    169 H169        0.2927  -14.9370  -39.8352 H         1 UNK         0.3000 
    170 H170       -2.7771  -16.5882  -40.5929 H         1 UNK         0.0600 
    171 H171       -2.3816  -16.6981  -38.1709 H         1 UNK         0.0600 
    172 H172       -1.6428  -15.1060  -38.1678 H         1 UNK         0.0600 
    173 H173       -3.3507  -15.2866  -38.5632 H         1 UNK         0.0600 
    174 H174       -2.7559  -14.7153  -41.7242 H         1 UNK         0.3000 
    175 H175       -2.2296  -12.8734  -42.6607 H         1 UNK         0.0600 
    176 H176       -2.6830  -10.5190  -42.0219 H         1 UNK         0.0600 
    177 H177       -3.4487  -11.6080  -40.8761 H         1 UNK         0.0600 
    178 H178       -1.9610  -10.7795  -40.4336 H         1 UNK         0.0600 
    179 H179       -0.2021  -10.9734  -42.1733 H         1 UNK         0.3000 
    180 H180        1.6149  -10.8893  -43.3938 H         1 UNK         0.0600 
    181 H181        3.2053  -13.3857  -42.5468 H         1 UNK         0.0600 
    182 H182        2.7797  -12.0471  -41.4839 H         1 UNK         0.0600 
    183 H183        3.8787  -11.7830  -42.8298 H         1 UNK         0.0600 
    184 H184        1.7033  -13.3007  -45.0249 H         1 UNK         0.3000 
    185 H185        2.4922  -11.4792  -47.8883 H         1 UNK         0.0600 
    186 H186        4.1602  -13.2430  -48.4235 H         1 UNK         0.0600 
    187 H187        4.8407  -12.0908  -47.2854 H         1 UNK         0.0600 
    188 H188        4.2982  -13.6655  -46.7169 H         1 UNK         0.0600 
    189 H189        2.0318  -14.2683  -47.5183 H         1 UNK         0.3000 
    190 H190       -1.6880  -21.4175  -46.0925 H         1 UNK         0.3000 
    191 H191       -3.4028  -22.8983  -47.7661 H         1 UNK         0.0600 
    192 H192       -4.1989  -21.4258  -45.9372 H         1 UNK         0.0600 
    193 H193       -4.8392  -23.0493  -45.7294 H         1 UNK         0.0600 
    194 H194       -3.4981  -22.5010  -44.7298 H         1 UNK         0.0600 
    195 H195       -1.2737  -24.0385  -45.1046 H         1 UNK         0.3000 
    196 H196       -2.0646  -26.7675  -45.1748 H         1 UNK         0.0600 
    197 H197        0.0780  -27.1346  -43.9350 H         1 UNK         0.0600 
    198 H198       -0.8265  -25.7796  -43.2777 H         1 UNK         0.0600 
    199 H199        0.5789  -25.4877  -44.3001 H         1 UNK         0.0600 
    200 H200        0.4078  -24.9809  -47.0319 H         1 UNK         0.3000 
    201 H201        1.4078  -27.3063  -48.4557 H         1 UNK         0.0600 
    202 H202        2.8059  -25.2892  -48.0180 H         1 UNK         0.0600 
    203 H203        1.7147  -24.3016  -48.9875 H         1 UNK         0.0600 
    204 H204        2.6576  -25.5790  -49.7448 H         1 UNK         0.0600 
    205 H205       -1.3561  -25.3376  -48.7910 H         1 UNK         0.3000 
    206 H206       -3.0534  -25.1105  -50.1609 H         1 UNK         0.0600 
    207 H207       -3.0828  -27.5231  -50.6885 H         1 UNK         0.0600 
    208 H208       -3.4773  -26.5777  -52.1139 H         1 UNK         0.0600 
    209 H209       -1.8898  -27.3048  -51.9657 H         1 UNK         0.0600 
    210 H210       -0.3236  -25.7166  -52.3013 H         1 UNK         0.3000 
    211 H211        0.8444  -24.6777  -53.8157 H         1 UNK         0.0600 
    212 H212        0.4080  -22.2604  -51.9961 H         1 UNK         0.0600 
    213 H213        1.7216  -22.4516  -53.1471 H         1 UNK         0.0600 
    214 H214        1.6040  -23.5297  -51.7647 H         1 UNK         0.0600 
    215 H215       -2.0797  -22.7775  -53.2998 H         1 UNK         0.3000 
    216 H216       -3.3639  -21.4665  -54.5198 H         1 UNK         0.0600 
    217 H217       -3.5307  -23.4506  -56.0485 H         1 UNK         0.0600 
    218 H218       -2.2302  -22.7871  -57.0343 H         1 UNK         0.0600 
    219 H219       -3.7572  -21.9275  -56.8933 H         1 UNK         0.0600 
    220 H220       -0.7820  -20.5047  -53.7243 H         1 UNK         0.3000 
    221 H221        0.5029  -19.0067  -55.7784 H         1 UNK         0.0600 
    222 H222        0.7689  -18.7689  -52.7345 H         1 UNK         0.0600 
    223 H223        1.6453  -19.9224  -53.7423 H         1 UNK         0.0600 
    224 H224        1.9230  -18.1991  -53.9269 H         1 UNK         0.0600 
    225 H225       -2.3049  -18.2156  -53.9477 H         1 UNK         0.3000 
    226 H226       -2.3296  -15.4745  -54.9973 H         1 UNK         0.0600 
    227 H227       -1.2822  -15.0201  -52.8438 H         1 UNK         0.0600 
    228 H228       -2.9721  -14.5623  -52.7009 H         1 UNK         0.0600 
    229 H229       -2.4031  -16.0739  -51.9934 H         1 UNK         0.0600 
    230 H230       -4.1955  -17.1314  -52.4370 H         1 UNK         0.3000 
    231 H231       -6.6990  -16.9608  -53.9517 H         1 UNK         0.0600 
    232 H232       -6.6416  -16.6697  -51.4519 H         1 UNK         0.0600 
    233 H233       -6.0123  -18.3080  -51.2844 H         1 UNK         0.0600 
    234 H234       -7.6301  -18.0480  -51.9158 H         1 UNK         0.0600 
    235 H235       -7.9035  -18.8640  -54.5632 H         1 UNK         0.3000 
    236 H236       -6.2984  -20.9488  -55.7814 H         1 UNK         0.0600 
    237 H237       -8.4607  -21.5870  -56.8127 H         1 UNK         0.0600 
    238 H238       -9.3210  -20.4648  -55.7640 H         1 UNK         0.0600 
    239 H239       -8.1854  -19.8616  -56.9711 H         1 UNK         0.0600 
    240 H240       -5.7823  -21.2786  -53.2018 H         1 UNK         0.3000 
    241 H241       -7.5171  -23.2402  -51.9160 H         1 UNK         0.0600 
    242 H242       -5.2634  -23.7331  -54.4307 H         1 UNK         0.3800 
    243 H243       -4.8955  -25.3943  -54.0492 H         1 UNK         0.3800 
    244 H244       -5.7206  -23.2274  -50.1292 H         1 UNK         0.0800 
    245 H245       -4.7927  -22.1380  -51.1356 H         1 UNK         0.0800 
    246 H246       -6.3159  -20.1264  -47.9880 H         1 UNK         0.0800 
    247 H247       -5.3538  -21.5563  -48.2409 H         1 UNK         0.0800 
@<TRIPOS>BOND
     1    1    2 1    
     2    1  127 1    
     3    1  128 1    
     4    1  129 1    
     5    2    3 2    
     6    2    4 am   BACKBONE|DICT|INTERRES
     7    4    5 1    
     8    4  130 1    
     9    5    6 1    
    10    5   65 1    
    11    5  131 1    
    12    6    7 1    
    13    6  132 1    
    14    6  133 1    
    15    7    8 1    
    16    8    9 1    
    17    8  134 1    
    18    8  135 1    
    19    9   10 ar   
    20    9   14 ar   
    21   10   11 ar   
    22   10  136 1    
    23   11   12 ar   
    24   11  126 1    
    25   12   13 ar   
    26   12  137 1    
    27   13   14 ar   
    28   13   15 1    
    29   14  138 1    
    30   15   16 1    
    31   15  139 1    
    32   15  140 1    
    33   16   17 1    
    34   17   18 1    
    35   17  141 1    
    36   17  142 1    
    37   18   19 1    
    38   18   67 1    
    39   18  143 1    
    40   19   20 am   BACKBONE|DICT|INTERRES
    41   19  144 1    
    42   20   21 2    
    43   20   22 1    
    44   22   23 1    
    45   22   24 1    
    46   22  145 1    
    47   23  146 1    
    48   23  147 1    
    49   23  148 1    
    50   24   25 am   BACKBONE|DICT|INTERRES
    51   24  149 1    
    52   25   26 2    
    53   25   27 1    
    54   27   28 1    
    55   27   29 1    
    56   27  150 1    
    57   28  151 1    
    58   28  152 1    
    59   28  153 1    
    60   29   30 am   BACKBONE|DICT|INTERRES
    61   29  154 1    
    62   30   31 2    
    63   30   32 1    
    64   32   33 1    
    65   32   34 1    
    66   32  155 1    
    67   33  156 1    
    68   33  157 1    
    69   33  158 1    
    70   34   35 am   BACKBONE|DICT|INTERRES
    71   34  159 1    
    72   35   36 2    
    73   35   37 1    
    74   37   38 1    
    75   37   39 1    
    76   37  160 1    
    77   38  161 1    
    78   38  162 1    
    79   38  163 1    
    80   39   40 am   BACKBONE|DICT|INTERRES
    81   39  164 1    
    82   40   41 2    
    83   40   42 1    
    84   42   43 1    
    85   42   44 1    
    86   42  165 1    
    87   43  166 1    
    88   43  167 1    
    89   43  168 1    
    90   44   45 am   BACKBONE|DICT|INTERRES
    91   44  169 1    
    92   45   46 2    
    93   45   47 1    
    94   47   48 1    
    95   47   49 1    
    96   47  170 1    
    97   48  171 1    
    98   48  172 1    
    99   48  173 1    
   100   49   50 am   BACKBONE|DICT|INTERRES
   101   49  174 1    
   102   50   51 2    
   103   50   52 1    
   104   52   53 1    
   105   52   54 1    
   106   52  175 1    
   107   53  176 1    
   108   53  177 1    
   109   53  178 1    
   110   54   55 am   BACKBONE|DICT|INTERRES
   111   54  179 1    
   112   55   56 2    
   113   55   57 1    
   114   57   58 1    
   115   57   59 1    
   116   57  180 1    
   117   58  181 1    
   118   58  182 1    
   119   58  183 1    
   120   59   60 am   BACKBONE|DICT|INTERRES
   121   59  184 1    
   122   60   61 2    
   123   60   62 1    
   124   62   63 1    
   125   62   64 1    
   126   62  185 1    
   127   63  186 1    
   128   63  187 1    
   129   63  188 1    
   130   64   65 am   BACKBONE|DICT|INTERRES
   131   64  189 1    
   132   65   66 2    
   133   67   68 2    
   134   67   69 am   BACKBONE|DICT|INTERRES
   135   69   70 1    
   136   69  190 1    
   137   70   71 1    
   138   70   72 1    
   139   70  191 1    
   140   71  192 1    
   141   71  193 1    
   142   71  194 1    
   143   72   73 2    
   144   72   74 am   BACKBONE|DICT|INTERRES
   145   74   75 1    
   146   74  195 1    
   147   75   76 1    
   148   75   77 1    
   149   75  196 1    
   150   76  197 1    
   151   76  198 1    
   152   76  199 1    
   153   77   78 2    
   154   77   79 am   BACKBONE|DICT|INTERRES
   155   79   80 1    
   156   79  200 1    
   157   80   81 1    
   158   80   82 1    
   159   80  201 1    
   160   81  202 1    
   161   81  203 1    
   162   81  204 1    
   163   82   83 2    
   164   82   84 am   BACKBONE|DICT|INTERRES
   165   84   85 1    
   166   84  205 1    
   167   85   86 1    
   168   85   87 1    
   169   85  206 1    
   170   86  207 1    
   171   86  208 1    
   172   86  209 1    
   173   87   88 2    
   174   87   89 am   BACKBONE|DICT|INTERRES
   175   89   90 1    
   176   89  210 1    
   177   90   91 1    
   178   90   92 1    
   179   90  211 1    
   180   91  212 1    
   181   91  213 1    
   182   91  214 1    
   183   92   93 2    
   184   92   94 am   BACKBONE|DICT|INTERRES
   185   94   95 1    
   186   94  215 1    
   187   95   96 1    
   188   95   97 1    
   189   95  216 1    
   190   96  217 1    
   191   96  218 1    
   192   96  219 1    
   193   97   98 2    
   194   97   99 am   BACKBONE|DICT|INTERRES
   195   99  100 1    
   196   99  220 1    
   197  100  101 1    
   198  100  102 1    
   199  100  221 1    
   200  101  222 1    
   201  101  223 1    
   202  101  224 1    
   203  102  103 2    
   204  102  104 am   BACKBONE|DICT|INTERRES
   205  104  105 1    
   206  104  225 1    
   207  105  106 1    
   208  105  107 1    
   209  105  226 1    
   210  106  227 1    
   211  106  228 1    
   212  106  229 1    
   213  107  108 2    
   214  107  109 am   BACKBONE|DICT|INTERRES
   215  109  110 1    
   216  109  230 1    
   217  110  111 1    
   218  110  112 1    
   219  110  231 1    
   220  111  232 1    
   221  111  233 1    
   222  111  234 1    
   223  112  113 2    
   224  112  114 am   BACKBONE|DICT|INTERRES
   225  114  115 1    
   226  114  235 1    
   227  115  116 1    
   228  115  117 1    
   229  115  236 1    
   230  116  237 1    
   231  116  238 1    
   232  116  239 1    
   233  117  118 2    
   234  117  119 am   BACKBONE|DICT|INTERRES
   235  119  120 1    
   236  119  240 1    
   237  120  121 1    
   238  120  124 1    
   239  120  241 1    
   240  121  122 am   BACKBONE|DICT|INTERRES
   241  121  123 2    
   242  122  242 1    
   243  122  243 1    
   244  124  125 1    
   245  124  244 1    
   246  124  245 1    
   247  125  126 1    
   248  126  246 1    
   249  126  247 1    
@<TRIPOS>SUBSTRUCTURE
     1 UNK         1 GROUP             0       ****    0 ROOT    
