@<TRIPOS>MOLECULE
3R540
247   249    1
SMALL
USER_CHARGES


@<TRIPOS>ATOM
      1 CA          2.0703  -11.1924  -51.6973 C.3       0 UNK        -0.1800 
      2 C           2.6643  -12.2556  -52.6202 C.2       0 UNK         0.5000 
      3 O           2.7747  -12.0110  -53.8199 O.2       0 UNK        -0.5000 
      4 N           3.0749  -13.4340  -52.1287 N.am      1 UNK        -0.5000 
      5 CA          2.9358  -13.9440  -50.7599 C.3       1 UNK         0.1400 
      6 C6          3.8142  -15.2071  -50.5573 C.3       23 UNK        -0.0398 
      7 S7          4.4458  -15.4063  -48.8554 S.3       23 UNK        -0.2404 
      8 C8          3.1764  -16.4311  -48.0489 C.3       23 UNK        -0.0205 
      9 C9          3.0308  -17.8134  -48.6623 C.ar      23 UNK        -0.0193 
     10 C10         2.0434  -18.0474  -49.6220 C.ar      23 UNK        -0.1150 
     11 C11         1.8771  -19.3144  -50.1798 C.ar      23 UNK        -0.0193 
     12 C12         2.6970  -20.3634  -49.7551 C.ar      23 UNK        -0.1150 
     13 C13         3.6784  -20.1483  -48.7806 C.ar      23 UNK        -0.0193 
     14 C14         3.8470  -18.8680  -48.2439 C.ar      23 UNK        -0.1150 
     15 C15         4.5473  -21.3038  -48.3012 C.3       23 UNK        -0.0205 
     16 S16         4.0553  -21.9026  -46.6505 S.3       23 UNK        -0.2404 
     17 C17         2.2797  -22.2232  -46.9061 C.3       23 UNK        -0.0398 
     18 CA          1.6701  -23.2312  -45.9061 C.3       11 UNK         0.1400 
     19 N           1.8539  -22.8184  -44.5130 N.am      11 UNK        -0.5000 
     20 C           1.7402  -23.6085  -43.4388 C.2       10 UNK         0.5000 
     21 O           1.5288  -24.8200  -43.5116 O.2       10 UNK        -0.5000 
     22 CA          1.8176  -22.9168  -42.0590 C.3       10 UNK         0.1400 
     23 CB          2.4179  -23.8228  -40.9644 C.3       10 UNK        -0.1800 
     24 N           2.4732  -21.6031  -42.0951 N.am      10 UNK        -0.5000 
     25 C           3.7637  -21.3276  -42.3389 C.2       9 UNK         0.5000 
     26 O           4.6297  -22.1871  -42.5043 O.2       9 UNK        -0.5000 
     27 CA          4.1591  -19.8385  -42.4390 C.3       9 UNK         0.1400 
     28 CB          4.5051  -19.4741  -43.8918 C.3       9 UNK        -0.1800 
     29 N           3.1232  -18.9173  -41.9664 N.am      9 UNK        -0.5000 
     30 C           2.8200  -18.6804  -40.6834 C.2       8 UNK         0.5000 
     31 O           3.4126  -19.1939  -39.7341 O.2       8 UNK        -0.5000 
     32 CA          1.6302  -17.7354  -40.4207 C.3       8 UNK         0.1400 
     33 CB          2.0754  -16.2655  -40.4587 C.3       8 UNK        -0.1800 
     34 N           0.5284  -17.9372  -41.3656 N.am      8 UNK        -0.5000 
     35 C          -0.2261  -19.0440  -41.4210 C.2       7 UNK         0.5000 
     36 O          -0.0942  -20.0010  -40.6581 O.2       7 UNK        -0.5000 
     37 CA         -1.2689  -19.1208  -42.5489 C.3       7 UNK         0.1400 
     38 CB         -2.5520  -18.3648  -42.1759 C.3       7 UNK        -0.1800 
     39 N          -0.7558  -18.6227  -43.8244 N.am      7 UNK        -0.5000 
     40 C           0.2303  -19.2002  -44.5240 C.2       6 UNK         0.5000 
     41 O           0.7603  -20.2614  -44.2026 O.2       6 UNK        -0.5000 
     42 CA          0.7276  -18.4579  -45.7752 C.3       6 UNK         0.1400 
     43 CB         -0.1728  -18.7894  -46.9749 C.3       6 UNK        -0.1800 
     44 N           0.7873  -17.0085  -45.5721 N.am      6 UNK        -0.5000 
     45 C           1.5528  -16.3941  -44.6575 C.2       5 UNK         0.5000 
     46 O           2.3452  -16.9854  -43.9272 O.2       5 UNK        -0.5000 
     47 CA          1.3606  -14.8779  -44.4833 C.3       5 UNK         0.1400 
     48 CB          2.2635  -14.0757  -45.4328 C.3       5 UNK        -0.1800 
     49 N          -0.0352  -14.4894  -44.6764 N.am      5 UNK        -0.5000 
     50 C          -1.0058  -14.7115  -43.7793 C.2       4 UNK         0.5000 
     51 O          -0.8057  -15.1987  -42.6660 O.2       4 UNK        -0.5000 
     52 CA         -2.4430  -14.3713  -44.2200 C.3       4 UNK         0.1400 
     53 CB         -2.7364  -12.8790  -44.0056 C.3       4 UNK        -0.1800 
     54 N          -2.6977  -14.7184  -45.6205 N.am      4 UNK        -0.5000 
     55 C          -2.7357  -15.9728  -46.0923 C.2       3 UNK         0.5000 
     56 O          -2.6336  -16.9673  -45.3753 O.2       3 UNK        -0.5000 
     57 CA         -2.8568  -16.1481  -47.6212 C.3       3 UNK         0.1400 
     58 CB         -4.3277  -16.3048  -48.0345 C.3       3 UNK        -0.1800 
     59 N          -2.2472  -15.0641  -48.3979 N.am      3 UNK        -0.5000 
     60 C          -0.9607  -14.7015  -48.3467 C.2       2 UNK         0.5000 
     61 O          -0.1368  -15.2371  -47.6065 O.2       2 UNK        -0.5000 
     62 CA         -0.5556  -13.4838  -49.1930 C.3       2 UNK         0.1400 
     63 CB         -0.9020  -12.1879  -48.4438 C.3       2 UNK        -0.1800 
     64 N           0.8740  -13.4688  -49.5064 N.am      2 UNK        -0.5000 
     65 C           1.4441  -14.2129  -50.4616 C.2       1 UNK         0.5000 
     66 O           0.8315  -15.0377  -51.1409 O.2       1 UNK        -0.5000 
     67 C           0.1767  -23.4208  -46.2381 C.2       11 UNK         0.5000 
     68 O          -0.1468  -24.1872  -47.1449 O.2       11 UNK        -0.5000 
     69 N          -0.7103  -22.7351  -45.4987 N.am      12 UNK        -0.5000 
     70 CA         -2.1661  -22.7424  -45.6816 C.3       12 UNK         0.1400 
     71 CB         -2.8084  -21.7747  -44.6791 C.3       12 UNK        -0.1800 
     72 C          -2.8261  -24.1341  -45.5856 C.2       12 UNK         0.5000 
     73 O          -3.9025  -24.3295  -46.1482 O.2       12 UNK        -0.5000 
     74 N          -2.1648  -25.0774  -44.9009 N.am      13 UNK        -0.5000 
     75 CA         -2.5639  -26.4826  -44.8205 C.3       13 UNK         0.1400 
     76 CB         -1.7836  -27.1524  -43.6789 C.3       13 UNK        -0.1800 
     77 C          -2.3516  -27.2516  -46.1416 C.2       13 UNK         0.5000 
     78 O          -3.0746  -28.2153  -46.3974 O.2       13 UNK        -0.5000 
     79 N          -1.3689  -26.8249  -46.9470 N.am      14 UNK        -0.5000 
     80 CA         -1.0389  -27.4089  -48.2482 C.3       14 UNK         0.1400 
     81 CB          0.4898  -27.4316  -48.4067 C.3       14 UNK        -0.1800 
     82 C          -1.6851  -26.6337  -49.4112 C.2       14 UNK         0.5000 
     83 O          -1.9158  -27.2196  -50.4701 O.2       14 UNK        -0.5000 
     84 N          -1.9507  -25.3363  -49.2041 N.am      15 UNK        -0.5000 
     85 CA         -2.5828  -24.4267  -50.1596 C.3       15 UNK         0.1400 
     86 CB         -2.6113  -23.0173  -49.5500 C.3       15 UNK        -0.1800 
     87 C          -4.0138  -24.8465  -50.5461 C.2       15 UNK         0.5000 
     88 O          -4.7300  -25.4380  -49.7347 O.2       15 UNK        -0.5000 
     89 N          -4.4176  -24.4832  -51.7697 N.am      16 UNK        -0.5000 
     90 CA         -5.7709  -24.6977  -52.2862 C.3       16 UNK         0.1400 
     91 CB         -5.7486  -24.5502  -53.8161 C.3       16 UNK        -0.1800 
     92 C          -6.8066  -23.7325  -51.6777 C.2       16 UNK         0.5000 
     93 O          -7.9867  -24.0790  -51.6166 O.2       16 UNK        -0.5000 
     94 N          -6.3453  -22.5381  -51.2714 N.am      17 UNK        -0.5000 
     95 CA         -7.1339  -21.3832  -50.8229 C.3       17 UNK         0.1400 
     96 CB         -7.8534  -21.6816  -49.4914 C.3       17 UNK        -0.1800 
     97 C          -8.0779  -20.8674  -51.9312 C.2       17 UNK         0.5000 
     98 O          -9.2144  -20.4761  -51.6593 O.2       17 UNK        -0.5000 
     99 N          -7.5807  -20.9017  -53.1742 N.am      18 UNK        -0.5000 
    100 CA        -8.3096  -20.5361  -54.3878 C.3       18 UNK         0.1400 
    101 CB        -7.6573  -21.2548  -55.5791 C.3       18 UNK        -0.1800 
    102 C         -8.3504  -19.0163  -54.6307 C.2       18 UNK         0.5000 
    103 O         -9.1944  -18.5490  -55.3968 O.2       18 UNK        -0.5000 
    104 N         -7.4427  -18.2757  -53.9875 N.am      19 UNK        -0.5000 
    105 CA        -7.3026  -16.8285  -54.0692 C.3       19 UNK         0.1400 
    106 CB        -6.4947  -16.4566  -55.3284 C.3       19 UNK        -0.1800 
    107 C         -6.6209  -16.3207  -52.7900 C.2       19 UNK         0.5000 
    108 O         -6.2031  -17.1204  -51.9471 O.2       19 UNK        -0.5000 
    109 N         -6.4871  -14.9922  -52.6883 N.am      20 UNK        -0.5000 
    110 CA        -5.8499  -14.2752  -51.5778 C.3       20 UNK         0.1400 
    111 CB        -6.1855  -12.7805  -51.7024 C.3       20 UNK        -0.1800 
    112 C         -4.3231  -14.4790  -51.4673 C.2       20 UNK         0.5000 
    113 O         -3.7302  -14.0204  -50.4916 O.2       20 UNK        -0.5000 
    114 N         -3.7180  -15.1597  -52.4464 N.am      21 UNK        -0.5000 
    115 CA        -2.3187  -15.5744  -52.4768 C.3       21 UNK         0.1400 
    116 CB        -1.5514  -14.6930  -53.4793 C.3       21 UNK        -0.1800 
    117 C         -2.2692  -17.0741  -52.8176 C.2       21 UNK         0.5000 
    118 O         -1.7058  -17.4661  -53.8402 O.2       21 UNK        -0.5000 
    119 N         -2.9415  -17.8785  -51.9841 N.am      22 UNK        -0.5000 
    120 CA        -3.1212  -19.3431  -52.0693 C.3       22 UNK         0.1400 
    121 C         -4.0038  -19.8461  -53.2478 C.2       22 UNK         0.5000 
    122 N         -4.0654  -19.1553  -54.3761 N.am      22 UNK        -0.7600 
    123 O         -4.6591  -20.8774  -53.1226 O.2       22 UNK        -0.5000 
    124 C124       -1.7934  -20.1460  -52.0277 C.3       23 UNK        -0.0398 
    125 S125       -0.8158  -19.8477  -50.5160 S.3       23 UNK        -0.2404 
    126 C126        0.8191  -19.5367  -51.2473 C.3       23 UNK        -0.0205 
    127 H127        2.1359  -10.2099  -52.1651 H         1 UNK         0.0600 
    128 H128        2.5983  -11.1318  -50.7468 H         1 UNK         0.0600 
    129 H129        1.0172  -11.3980  -51.5064 H         1 UNK         0.0600 
    130 H130        3.4418  -14.1054  -52.7875 H         1 UNK         0.3000 
    131 H131        3.3038  -13.1707  -50.0836 H         1 UNK         0.0600 
    132 H132        3.3245  -16.1128  -50.9125 H         1 UNK         0.0800 
    133 H133        4.7102  -15.1241  -51.1743 H         1 UNK         0.0800 
    134 H134        2.2236  -15.9088  -48.0834 H         1 UNK         0.0800 
    135 H135        3.4316  -16.5308  -46.9935 H         1 UNK         0.0800 
    136 H136        1.3926  -17.2432  -49.9326 H         1 UNK         0.1150 
    137 H137        2.5643  -21.3491  -50.1782 H         1 UNK         0.1150 
    138 H138        4.6012  -18.6978  -47.4882 H         1 UNK         0.1150 
    139 H139        4.5071  -22.1337  -49.0084 H         1 UNK         0.0800 
    140 H140        5.5896  -20.9839  -48.2659 H         1 UNK         0.0800 
    141 H141        2.1422  -22.5884  -47.9257 H         1 UNK         0.0800 
    142 H142        1.7630  -21.2648  -46.8489 H         1 UNK         0.0800 
    143 H143        2.1638  -24.1951  -46.0469 H         1 UNK         0.0600 
    144 H144        1.9371  -21.8197  -44.3542 H         1 UNK         0.3000 
    145 H145        0.7836  -22.7140  -41.7768 H         1 UNK         0.0600 
    146 H146        2.4631  -23.3059  -40.0058 H         1 UNK         0.0600 
    147 H147        1.8096  -24.7166  -40.8212 H         1 UNK         0.0600 
    148 H148        3.4252  -24.1544  -41.2166 H         1 UNK         0.0600 
    149 H149        1.8491  -20.8127  -42.0018 H         1 UNK         0.3000 
    150 H150        5.0533  -19.6964  -41.8289 H         1 UNK         0.0600 
    151 H151        5.3001  -20.1119  -44.2800 H         1 UNK         0.0600 
    152 H152        4.8494  -18.4428  -43.9698 H         1 UNK         0.0600 
    153 H153        3.6423  -19.5881  -44.5489 H         1 UNK         0.0600 
    154 H154        2.6375  -18.3835  -42.6830 H         1 UNK         0.3000 
    155 H155        1.2537  -17.9474  -39.4178 H         1 UNK         0.0600 
    156 H156        2.8529  -16.0757  -39.7179 H         1 UNK         0.0600 
    157 H157        1.2442  -15.5954  -40.2381 H         1 UNK         0.0600 
    158 H158        2.4781  -15.9887  -41.4329 H         1 UNK         0.0600 
    159 H159        0.3475  -17.1919  -42.0253 H         1 UNK         0.3000 
    160 H160       -1.5238  -20.1732  -42.6753 H         1 UNK         0.0600 
    161 H161       -2.3710  -17.2976  -42.0492 H         1 UNK         0.0600 
    162 H162       -2.9693  -18.7411  -41.2411 H         1 UNK         0.0600 
    163 H163       -3.3154  -18.4847  -42.9451 H         1 UNK         0.0600 
    164 H164       -1.2035  -17.7969  -44.2080 H         1 UNK         0.3000 
    165 H165        1.7405  -18.7979  -45.9989 H         1 UNK         0.0600 
    166 H166       -0.0042  -18.1077  -47.8070 H         1 UNK         0.0600 
    167 H167        0.0178  -19.7987  -47.3387 H         1 UNK         0.0600 
    168 H168       -1.2300  -18.7431  -46.7175 H         1 UNK         0.0600 
    169 H169        0.2233  -16.4324  -46.1905 H         1 UNK         0.3000 
    170 H170        1.6528  -14.6276  -43.4612 H         1 UNK         0.0600 
    171 H171        3.3050  -14.3858  -45.3379 H         1 UNK         0.0600 
    172 H172        1.9773  -14.2003  -46.4757 H         1 UNK         0.0600 
    173 H173        2.2203  -13.0109  -45.2044 H         1 UNK         0.0600 
    174 H174       -0.2871  -14.1630  -45.5984 H         1 UNK         0.3000 
    175 H175       -3.1280  -14.9484  -43.5949 H         1 UNK         0.0600 
    176 H176       -2.5695  -12.5945  -42.9658 H         1 UNK         0.0600 
    177 H177       -2.0979  -12.2482  -44.6254 H         1 UNK         0.0600 
    178 H178       -3.7739  -12.6434  -44.2432 H         1 UNK         0.0600 
    179 H179       -2.8005  -13.9559  -46.2731 H         1 UNK         0.3000 
    180 H180       -2.3361  -17.0678  -47.8894 H         1 UNK         0.0600 
    181 H181       -4.8932  -15.3882  -47.8623 H         1 UNK         0.0600 
    182 H182       -4.8111  -17.1023  -47.4685 H         1 UNK         0.0600 
    183 H183       -4.4164  -16.5603  -49.0904 H         1 UNK         0.0600 
    184 H184       -2.8594  -14.5796  -49.0539 H         1 UNK         0.3000 
    185 H185       -1.1166  -13.5040  -50.1293 H         1 UNK         0.0600 
    186 H186       -1.9706  -12.1303  -48.2322 H         1 UNK         0.0600 
    187 H187       -0.3731  -12.1171  -47.4922 H         1 UNK         0.0600 
    188 H188       -0.6450  -11.3098  -49.0367 H         1 UNK         0.0600 
    189 H189        1.4420  -12.8383  -48.9607 H         1 UNK         0.3000 
    190 H190       -0.3457  -22.1081  -44.7928 H         1 UNK         0.3000 
    191 H191       -2.3619  -22.3580  -46.6823 H         1 UNK         0.0600 
    192 H192       -2.5858  -22.0585  -43.6502 H         1 UNK         0.0600 
    193 H193       -3.8938  -21.7604  -44.7874 H         1 UNK         0.0600 
    194 H194       -2.4602  -20.7551  -44.8409 H         1 UNK         0.0600 
    195 H195       -1.2884  -24.8295  -44.4650 H         1 UNK         0.3000 
    196 H196       -3.6281  -26.5256  -44.5790 H         1 UNK         0.0600 
    197 H197       -2.0660  -28.2008  -43.5743 H         1 UNK         0.0600 
    198 H198       -1.9853  -26.6657  -42.7245 H         1 UNK         0.0600 
    199 H199       -0.7070  -27.1173  -43.8525 H         1 UNK         0.0600 
    200 H200       -0.8494  -25.9927  -46.6913 H         1 UNK         0.3000 
    201 H201       -1.3967  -28.4395  -48.2975 H         1 UNK         0.0600 
    202 H202        0.9592  -28.0130  -47.6130 H         1 UNK         0.0600 
    203 H203        0.9140  -26.4270  -48.3820 H         1 UNK         0.0600 
    204 H204        0.7771  -27.8858  -49.3558 H         1 UNK         0.0600 
    205 H205       -1.6655  -24.9320  -48.3215 H         1 UNK         0.3000 
    206 H206       -1.9639  -24.4105  -51.0590 H         1 UNK         0.0600 
    207 H207       -1.6143  -22.6847  -49.2592 H         1 UNK         0.0600 
    208 H208       -3.0069  -22.2898  -50.2579 H         1 UNK         0.0600 
    209 H209       -3.2539  -22.9840  -48.6705 H         1 UNK         0.0600 
    210 H210       -3.7751  -24.0014  -52.3820 H         1 UNK         0.3000 
    211 H211       -6.0809  -25.7168  -52.0445 H         1 UNK         0.0600 
    212 H212       -6.7387  -24.7236  -54.2399 H         1 UNK         0.0600 
    213 H213       -5.0702  -25.2711  -54.2727 H         1 UNK         0.0600 
    214 H214       -5.4331  -23.5511  -54.1206 H         1 UNK         0.0600 
    215 H215       -5.3665  -22.3482  -51.4362 H         1 UNK         0.3000 
    216 H216       -6.4199  -20.5794  -50.6370 H         1 UNK         0.0600 
    217 H217       -8.3200  -20.7810  -49.0910 H         1 UNK         0.0600 
    218 H218       -7.1537  -22.0463  -48.7394 H         1 UNK         0.0600 
    219 H219       -8.6378  -22.4293  -49.6106 H         1 UNK         0.0600 
    220 H220       -6.6103  -21.1777  -53.2908 H         1 UNK         0.3000 
    221 H221       -9.3406  -20.8851  -54.2999 H         1 UNK         0.0600 
    222 H222       -6.6151  -20.9591  -55.7055 H         1 UNK         0.0600 
    223 H223       -7.6845  -22.3368  -55.4485 H         1 UNK         0.0600 
    224 H224       -8.1799  -21.0270  -56.5090 H         1 UNK         0.0600 
    225 H225       -6.8177  -18.7193  -53.3266 H         1 UNK         0.3000 
    226 H226       -8.2937  -16.3731  -54.1208 H         1 UNK         0.0600 
    227 H227       -6.9672  -16.8447  -56.2309 H         1 UNK         0.0600 
    228 H228       -6.4192  -15.3758  -55.4502 H         1 UNK         0.0600 
    229 H229       -5.4807  -16.8546  -55.2878 H         1 UNK         0.0600 
    230 H230       -6.8514  -14.4128  -53.4311 H         1 UNK         0.3000 
    231 H231       -6.2847  -14.6453  -50.6470 H         1 UNK         0.0600 
    232 H232       -7.2632  -12.6158  -51.6993 H         1 UNK         0.0600 
    233 H233       -5.7818  -12.3536  -52.6213 H         1 UNK         0.0600 
    234 H234       -5.7715  -12.2130  -50.8677 H         1 UNK         0.0600 
    235 H235       -4.2953  -15.5119  -53.1957 H         1 UNK         0.3000 
    236 H236       -1.8610  -15.4610  -51.4926 H         1 UNK         0.0600 
    237 H237       -0.5067  -14.9980  -53.5489 H         1 UNK         0.0600 
    238 H238       -1.9805  -14.7521  -54.4801 H         1 UNK         0.0600 
    239 H239       -1.5631  -13.6481  -53.1691 H         1 UNK         0.0600 
    240 H240       -3.4419  -17.4411  -51.2246 H         1 UNK         0.3000 
    241 H241       -3.6797  -19.6037  -51.1691 H         1 UNK         0.0600 
    242 H242       -4.6190  -19.4937  -55.1449 H         1 UNK         0.3800 
    243 H243       -3.4319  -18.3768  -54.5046 H         1 UNK         0.3800 
    244 H244       -1.9889  -21.2180  -52.0783 H         1 UNK         0.0800 
    245 H245       -1.1914  -19.9192  -52.9088 H         1 UNK         0.0800 
    246 H246        1.0991  -20.3789  -51.8818 H         1 UNK         0.0800 
    247 H247        0.7622  -18.6623  -51.8982 H         1 UNK         0.0800 
@<TRIPOS>BOND
     1    1    2 1    
     2    1  127 1    
     3    1  128 1    
     4    1  129 1    
     5    2    3 2    
     6    2    4 am   BACKBONE|DICT|INTERRES
     7    4    5 1    
     8    4  130 1    
     9    5    6 1    
    10    5   65 1    
    11    5  131 1    
    12    6    7 1    
    13    6  132 1    
    14    6  133 1    
    15    7    8 1    
    16    8    9 1    
    17    8  134 1    
    18    8  135 1    
    19    9   10 ar   
    20    9   14 ar   
    21   10   11 ar   
    22   10  136 1    
    23   11   12 ar   
    24   11  126 1    
    25   12   13 ar   
    26   12  137 1    
    27   13   14 ar   
    28   13   15 1    
    29   14  138 1    
    30   15   16 1    
    31   15  139 1    
    32   15  140 1    
    33   16   17 1    
    34   17   18 1    
    35   17  141 1    
    36   17  142 1    
    37   18   19 1    
    38   18   67 1    
    39   18  143 1    
    40   19   20 am   BACKBONE|DICT|INTERRES
    41   19  144 1    
    42   20   21 2    
    43   20   22 1    
    44   22   23 1    
    45   22   24 1    
    46   22  145 1    
    47   23  146 1    
    48   23  147 1    
    49   23  148 1    
    50   24   25 am   BACKBONE|DICT|INTERRES
    51   24  149 1    
    52   25   26 2    
    53   25   27 1    
    54   27   28 1    
    55   27   29 1    
    56   27  150 1    
    57   28  151 1    
    58   28  152 1    
    59   28  153 1    
    60   29   30 am   BACKBONE|DICT|INTERRES
    61   29  154 1    
    62   30   31 2    
    63   30   32 1    
    64   32   33 1    
    65   32   34 1    
    66   32  155 1    
    67   33  156 1    
    68   33  157 1    
    69   33  158 1    
    70   34   35 am   BACKBONE|DICT|INTERRES
    71   34  159 1    
    72   35   36 2    
    73   35   37 1    
    74   37   38 1    
    75   37   39 1    
    76   37  160 1    
    77   38  161 1    
    78   38  162 1    
    79   38  163 1    
    80   39   40 am   BACKBONE|DICT|INTERRES
    81   39  164 1    
    82   40   41 2    
    83   40   42 1    
    84   42   43 1    
    85   42   44 1    
    86   42  165 1    
    87   43  166 1    
    88   43  167 1    
    89   43  168 1    
    90   44   45 am   BACKBONE|DICT|INTERRES
    91   44  169 1    
    92   45   46 2    
    93   45   47 1    
    94   47   48 1    
    95   47   49 1    
    96   47  170 1    
    97   48  171 1    
    98   48  172 1    
    99   48  173 1    
   100   49   50 am   BACKBONE|DICT|INTERRES
   101   49  174 1    
   102   50   51 2    
   103   50   52 1    
   104   52   53 1    
   105   52   54 1    
   106   52  175 1    
   107   53  176 1    
   108   53  177 1    
   109   53  178 1    
   110   54   55 am   BACKBONE|DICT|INTERRES
   111   54  179 1    
   112   55   56 2    
   113   55   57 1    
   114   57   58 1    
   115   57   59 1    
   116   57  180 1    
   117   58  181 1    
   118   58  182 1    
   119   58  183 1    
   120   59   60 am   BACKBONE|DICT|INTERRES
   121   59  184 1    
   122   60   61 2    
   123   60   62 1    
   124   62   63 1    
   125   62   64 1    
   126   62  185 1    
   127   63  186 1    
   128   63  187 1    
   129   63  188 1    
   130   64   65 am   BACKBONE|DICT|INTERRES
   131   64  189 1    
   132   65   66 2    
   133   67   68 2    
   134   67   69 am   BACKBONE|DICT|INTERRES
   135   69   70 1    
   136   69  190 1    
   137   70   71 1    
   138   70   72 1    
   139   70  191 1    
   140   71  192 1    
   141   71  193 1    
   142   71  194 1    
   143   72   73 2    
   144   72   74 am   BACKBONE|DICT|INTERRES
   145   74   75 1    
   146   74  195 1    
   147   75   76 1    
   148   75   77 1    
   149   75  196 1    
   150   76  197 1    
   151   76  198 1    
   152   76  199 1    
   153   77   78 2    
   154   77   79 am   BACKBONE|DICT|INTERRES
   155   79   80 1    
   156   79  200 1    
   157   80   81 1    
   158   80   82 1    
   159   80  201 1    
   160   81  202 1    
   161   81  203 1    
   162   81  204 1    
   163   82   83 2    
   164   82   84 am   BACKBONE|DICT|INTERRES
   165   84   85 1    
   166   84  205 1    
   167   85   86 1    
   168   85   87 1    
   169   85  206 1    
   170   86  207 1    
   171   86  208 1    
   172   86  209 1    
   173   87   88 2    
   174   87   89 am   BACKBONE|DICT|INTERRES
   175   89   90 1    
   176   89  210 1    
   177   90   91 1    
   178   90   92 1    
   179   90  211 1    
   180   91  212 1    
   181   91  213 1    
   182   91  214 1    
   183   92   93 2    
   184   92   94 am   BACKBONE|DICT|INTERRES
   185   94   95 1    
   186   94  215 1    
   187   95   96 1    
   188   95   97 1    
   189   95  216 1    
   190   96  217 1    
   191   96  218 1    
   192   96  219 1    
   193   97   98 2    
   194   97   99 am   BACKBONE|DICT|INTERRES
   195   99  100 1    
   196   99  220 1    
   197  100  101 1    
   198  100  102 1    
   199  100  221 1    
   200  101  222 1    
   201  101  223 1    
   202  101  224 1    
   203  102  103 2    
   204  102  104 am   BACKBONE|DICT|INTERRES
   205  104  105 1    
   206  104  225 1    
   207  105  106 1    
   208  105  107 1    
   209  105  226 1    
   210  106  227 1    
   211  106  228 1    
   212  106  229 1    
   213  107  108 2    
   214  107  109 am   BACKBONE|DICT|INTERRES
   215  109  110 1    
   216  109  230 1    
   217  110  111 1    
   218  110  112 1    
   219  110  231 1    
   220  111  232 1    
   221  111  233 1    
   222  111  234 1    
   223  112  113 2    
   224  112  114 am   BACKBONE|DICT|INTERRES
   225  114  115 1    
   226  114  235 1    
   227  115  116 1    
   228  115  117 1    
   229  115  236 1    
   230  116  237 1    
   231  116  238 1    
   232  116  239 1    
   233  117  118 2    
   234  117  119 am   BACKBONE|DICT|INTERRES
   235  119  120 1    
   236  119  240 1    
   237  120  121 1    
   238  120  124 1    
   239  120  241 1    
   240  121  122 am   BACKBONE|DICT|INTERRES
   241  121  123 2    
   242  122  242 1    
   243  122  243 1    
   244  124  125 1    
   245  124  244 1    
   246  124  245 1    
   247  125  126 1    
   248  126  246 1    
   249  126  247 1    
@<TRIPOS>SUBSTRUCTURE
     1 UNK         1 GROUP             0       ****    0 ROOT    
