@<TRIPOS>MOLECULE
3R540
247   249    1
SMALL
USER_CHARGES


@<TRIPOS>ATOM
      1 CA          4.5986   -9.2841  -48.0061 C.3       0 UNK        -0.1800 
      2 C           4.3247  -10.7379  -47.6500 C.2       0 UNK         0.5000 
      3 O           3.5782  -11.0066  -46.7096 O.2       0 UNK        -0.5000 
      4 N           4.9209  -11.6777  -48.3950 N.am      1 UNK        -0.5000 
      5 CA          4.8076  -13.1280  -48.1965 C.3       1 UNK         0.1400 
      6 C6          3.3795  -13.6573  -48.5237 C.3       23 UNK        -0.0398 
      7 S7          3.4189  -15.3151  -49.2808 S.3       23 UNK        -0.2404 
      8 C8          1.7440  -15.9162  -48.9116 C.3       23 UNK        -0.0205 
      9 C9          1.3799  -17.1093  -49.7853 C.ar      23 UNK        -0.0193 
     10 C10         0.4851  -16.9622  -50.8514 C.ar      23 UNK        -0.1150 
     11 C11         0.1549  -18.0570  -51.6573 C.ar      23 UNK        -0.0193 
     12 C12         0.7188  -19.3060  -51.3854 C.ar      23 UNK        -0.1150 
     13 C13         1.6255  -19.4640  -50.3348 C.ar      23 UNK        -0.0193 
     14 C14         1.9493  -18.3619  -49.5371 C.ar      23 UNK        -0.1150 
     15 C15         2.2912  -20.8140  -50.1028 C.3       23 UNK        -0.0205 
     16 S16         1.9904  -21.4755  -48.4367 S.3       23 UNK        -0.2404 
     17 C17         0.1790  -21.6699  -48.4372 C.3       23 UNK        -0.0398 
     18 CA         -0.2717  -22.7006  -47.3799 C.3       11 UNK         0.1400 
     19 N           0.0930  -22.2906  -46.0223 N.am      11 UNK        -0.5000 
     20 C           0.1504  -23.1041  -44.9613 C.2       10 UNK         0.5000 
     21 O          -0.1669  -24.2931  -45.0140 O.2       10 UNK        -0.5000 
     22 CA          0.5744  -22.4779  -43.6156 C.3       10 UNK         0.1400 
     23 CB          1.4373  -23.4317  -42.7652 C.3       10 UNK        -0.1800 
     24 N           1.2004  -21.1564  -43.7541 N.am      10 UNK        -0.5000 
     25 C           2.3822  -20.8486  -44.3150 C.2       9 UNK         0.5000 
     26 O           3.1839  -21.6857  -44.7289 O.2       9 UNK        -0.5000 
     27 CA          2.7165  -19.3492  -44.4748 C.3       9 UNK         0.1400 
     28 CB          2.7357  -18.9596  -45.9618 C.3       9 UNK        -0.1800 
     29 N           1.7642  -18.4775  -43.7874 N.am      9 UNK        -0.5000 
     30 C           1.7833  -18.1955  -42.4781 C.2       8 UNK         0.5000 
     31 O           2.6616  -18.5784  -41.7057 O.2       8 UNK        -0.5000 
     32 CA          0.5968  -17.3730  -41.9403 C.3       8 UNK         0.1400 
     33 CB          0.9356  -15.8750  -41.9489 C.3       8 UNK        -0.1800 
     34 N          -0.6383  -17.5981  -42.6985 N.am      8 UNK        -0.5000 
     35 C          -1.3280  -18.7497  -42.7060 C.2       7 UNK         0.5000 
     36 O          -1.0120  -19.7389  -42.0465 O.2       7 UNK        -0.5000 
     37 CA         -2.5311  -18.8351  -43.6626 C.3       7 UNK         0.1400 
     38 CB         -3.8063  -18.3115  -42.9869 C.3       7 UNK        -0.1800 
     39 N          -2.3040  -18.1015  -44.9077 N.am      7 UNK        -0.5000 
     40 C          -1.4077  -18.4471  -45.8430 C.2       6 UNK         0.5000 
     41 O          -0.7423  -19.4819  -45.7930 O.2       6 UNK        -0.5000 
     42 CA         -1.1885  -17.4542  -46.9996 C.3       6 UNK         0.1400 
     43 CB         -1.9510  -17.8935  -48.2529 C.3       6 UNK        -0.1800 
     44 N          -1.5970  -16.0918  -46.6520 N.am      6 UNK        -0.5000 
     45 C          -0.8665  -15.2503  -45.9126 C.2       5 UNK         0.5000 
     46 O           0.2633  -15.5053  -45.4869 O.2       5 UNK        -0.5000 
     47 CA         -1.5375  -13.9238  -45.5451 C.3       5 UNK         0.1400 
     48 CB         -2.2730  -14.0488  -44.1982 C.3       5 UNK        -0.1800 
     49 N          -0.5177  -12.8879  -45.4635 N.am      5 UNK        -0.5000 
     50 C          -0.7365  -11.5734  -45.5810 C.2       4 UNK         0.5000 
     51 O          -1.8530  -11.0893  -45.7774 O.2       4 UNK        -0.5000 
     52 CA          0.4965  -10.6481  -45.4877 C.3       4 UNK         0.1400 
     53 CB          0.1460   -9.2323  -44.9832 C.3       4 UNK        -0.1800 
     54 N           1.6197  -11.2086  -44.7240 N.am      4 UNK        -0.5000 
     55 C           1.6381  -11.5323  -43.4228 C.2       3 UNK         0.5000 
     56 O           0.6550  -11.4516  -42.6848 O.2       3 UNK        -0.5000 
     57 CA          2.9760  -12.0587  -42.8736 C.3       3 UNK         0.1400 
     58 CB          2.8758  -12.5108  -41.3996 C.3       3 UNK        -0.1800 
     59 N           3.4726  -13.1428  -43.7234 N.am      3 UNK        -0.5000 
     60 C           4.7232  -13.6227  -43.7119 C.2       2 UNK         0.5000 
     61 O           5.6199  -13.1939  -42.9845 O.2       2 UNK        -0.5000 
     62 CA          5.0253  -14.7699  -44.6937 C.3       2 UNK         0.1400 
     63 CB          4.2898  -16.0546  -44.2867 C.3       2 UNK        -0.1800 
     64 N           4.6814  -14.4179  -46.0727 N.am      2 UNK        -0.5000 
     65 C           5.3715  -13.5365  -46.8108 C.2       1 UNK         0.5000 
     66 O           6.4344  -13.0346  -46.4349 O.2       1 UNK        -0.5000 
     67 C          -1.7782  -22.9928  -47.4955 C.2       11 UNK         0.5000 
     68 O          -2.1751  -23.7941  -48.3416 O.2       11 UNK        -0.5000 
     69 N          -2.5909  -22.3649  -46.6337 N.am      12 UNK        -0.5000 
     70 CA         -4.0198  -22.6466  -46.4958 C.3       12 UNK         0.1400 
     71 CB         -4.6828  -21.5289  -45.6776 C.3       12 UNK        -0.1800 
     72 C          -4.2717  -24.0246  -45.8567 C.2       12 UNK         0.5000 
     73 O          -5.1587  -24.7482  -46.3073 O.2       12 UNK        -0.5000 
     74 N          -3.4550  -24.3816  -44.8537 N.am      13 UNK        -0.5000 
     75 CA         -3.4852  -25.6808  -44.1760 C.3       13 UNK         0.1400 
     76 CB         -2.6785  -25.5988  -42.8708 C.3       13 UNK        -0.1800 
     77 C          -2.9669  -26.8194  -45.0739 C.2       13 UNK         0.5000 
     78 O          -3.5053  -27.9255  -45.0280 O.2       13 UNK        -0.5000 
     79 N          -1.9635  -26.5125  -45.9083 N.am      14 UNK        -0.5000 
     80 CA         -1.4248  -27.3998  -46.9434 C.3       14 UNK         0.1400 
     81 CB         -0.0613  -26.8538  -47.3955 C.3       14 UNK        -0.1800 
     82 C          -2.3597  -27.5713  -48.1615 C.2       14 UNK         0.5000 
     83 O          -2.0855  -28.4188  -49.0110 O.2       14 UNK        -0.5000 
     84 N          -3.4185  -26.7505  -48.2389 N.am      15 UNK        -0.5000 
     85 CA         -4.4396  -26.6602  -49.2894 C.3       15 UNK         0.1400 
     86 CB         -5.1633  -28.0043  -49.5038 C.3       15 UNK        -0.1800 
     87 C          -3.9419  -26.0469  -50.6140 C.2       15 UNK         0.5000 
     88 O          -4.7231  -25.9372  -51.5605 O.2       15 UNK        -0.5000 
     89 N          -2.6883  -25.5782  -50.6535 N.am      16 UNK        -0.5000 
     90 CA         -2.1060  -24.8396  -51.7739 C.3       16 UNK         0.1400 
     91 CB         -0.6071  -24.6207  -51.5182 C.3       16 UNK        -0.1800 
     92 C          -2.8296  -23.5022  -52.0057 C.2       16 UNK         0.5000 
     93 O          -3.1701  -23.1815  -53.1426 O.2       16 UNK        -0.5000 
     94 N          -3.1294  -22.7984  -50.9066 N.am      17 UNK        -0.5000 
     95 CA         -3.9120  -21.5608  -50.8914 C.3       17 UNK         0.1400 
     96 CB         -3.3224  -20.6056  -49.8476 C.3       17 UNK        -0.1800 
     97 C          -5.4173  -21.8099  -50.6649 C.2       17 UNK         0.5000 
     98 O          -6.1505  -20.8663  -50.3677 O.2       17 UNK        -0.5000 
     99 N          -5.8569  -23.0666  -50.8128 N.am      18 UNK        -0.5000 
    100 CA        -7.2581  -23.4194  -51.0358 C.3       18 UNK         0.1400 
    101 CB        -7.6268  -24.6736  -50.2277 C.3       18 UNK        -0.1800 
    102 C         -7.4898  -23.6332  -52.5424 C.2       18 UNK         0.5000 
    103 O         -8.5171  -23.1978  -53.0630 O.2       18 UNK        -0.5000 
    104 N         -6.5222  -24.2735  -53.2197 N.am      19 UNK        -0.5000 
    105 CA        -6.4847  -24.4404  -54.6718 C.3       19 UNK         0.1400 
    106 CB        -5.3982  -25.4638  -55.0394 C.3       19 UNK        -0.1800 
    107 C         -6.2662  -23.1031  -55.4055 C.2       19 UNK         0.5000 
    108 O         -7.0641  -22.7515  -56.2760 O.2       19 UNK        -0.5000 
    109 N         -5.2069  -22.3736  -55.0300 N.am      20 UNK        -0.5000 
    110 CA        -4.9421  -21.0096  -55.4876 C.3       20 UNK         0.1400 
    111 CB        -3.4396  -20.7160  -55.3549 C.3       20 UNK        -0.1800 
    112 C         -5.7615  -19.9994  -54.6661 C.2       20 UNK         0.5000 
    113 O         -6.0625  -20.2608  -53.5009 O.2       20 UNK        -0.5000 
    114 N         -6.0965  -18.8565  -55.2779 N.am      21 UNK        -0.5000 
    115 CA        -6.8450  -17.7773  -54.6273 C.3       21 UNK         0.1400 
    116 CB        -7.4225  -16.8391  -55.6990 C.3       21 UNK        -0.1800 
    117 C         -5.9918  -16.9894  -53.6147 C.2       21 UNK         0.5000 
    118 O         -6.4826  -16.6618  -52.5334 O.2       21 UNK        -0.5000 
    119 N         -4.7344  -16.7143  -53.9899 N.am      22 UNK        -0.5000 
    120 CA        -3.7341  -15.9558  -53.2160 C.3       22 UNK         0.1400 
    121 C         -4.1729  -14.4915  -52.8889 C.2       22 UNK         0.5000 
    122 N         -3.6079  -13.8473  -51.8752 N.am      22 UNK        -0.7600 
    123 O         -4.9881  -13.8976  -53.5922 O.2       22 UNK        -0.5000 
    124 C124       -3.1936  -16.7536  -51.9914 C.3       23 UNK        -0.0398 
    125 S125       -2.4813  -18.3599  -52.4817 S.3       23 UNK        -0.2404 
    126 C126       -0.7637  -17.8956  -52.8588 C.3       23 UNK        -0.0205 
    127 H127        3.6647   -8.7749  -48.2439 H         1 UNK         0.0600 
    128 H128        5.0613   -8.7733  -47.1617 H         1 UNK         0.0600 
    129 H129        5.2640   -9.1951  -48.8651 H         1 UNK         0.0600 
    130 H130        5.5499  -11.3922  -49.1323 H         1 UNK         0.3000 
    131 H131        5.5003  -13.5528  -48.9247 H         1 UNK         0.0600 
    132 H132        2.9057  -13.0060  -49.2599 H         1 UNK         0.0800 
    133 H133        2.7172  -13.6320  -47.6568 H         1 UNK         0.0800 
    134 H134        1.0230  -15.1096  -49.0545 H         1 UNK         0.0800 
    135 H135        1.6952  -16.1949  -47.8587 H         1 UNK         0.0800 
    136 H136        0.0576  -15.9926  -51.0632 H         1 UNK         0.1150 
    137 H137        0.4701  -20.1494  -52.0142 H         1 UNK         0.1150 
    138 H138        2.6610  -18.4756  -48.7326 H         1 UNK         0.1150 
    139 H139        1.9599  -21.5472  -50.8398 H         1 UNK         0.0800 
    140 H140        3.3667  -20.7020  -50.2451 H         1 UNK         0.0800 
    141 H141       -0.2718  -20.6962  -48.2471 H         1 UNK         0.0800 
    142 H142       -0.1395  -21.9726  -49.4360 H         1 UNK         0.0800 
    143 H143        0.2463  -23.6372  -47.5925 H         1 UNK         0.0600 
    144 H144        0.2927  -21.3056  -45.8926 H         1 UNK         0.3000 
    145 H145       -0.3528  -22.3072  -43.0672 H         1 UNK         0.0600 
    146 H146        1.7270  -22.9670  -41.8228 H         1 UNK         0.0600 
    147 H147        0.8876  -24.3416  -42.5217 H         1 UNK         0.0600 
    148 H148        2.3460  -23.7334  -43.2863 H         1 UNK         0.0600 
    149 H149        0.6294  -20.3868  -43.4299 H         1 UNK         0.3000 
    150 H150        3.7137  -19.1843  -44.0617 H         1 UNK         0.0600 
    151 H151        2.9219  -17.8959  -46.1026 H         1 UNK         0.0600 
    152 H152        1.7899  -19.1918  -46.4502 H         1 UNK         0.0600 
    153 H153        3.5189  -19.4998  -46.4947 H         1 UNK         0.0600 
    154 H154        1.0062  -18.1131  -44.3458 H         1 UNK         0.3000 
    155 H155        0.4227  -17.6788  -40.9065 H         1 UNK         0.0600 
    156 H156        0.1325  -15.2833  -41.5093 H         1 UNK         0.0600 
    157 H157        1.1137  -15.5029  -42.9578 H         1 UNK         0.0600 
    158 H158        1.8376  -15.6831  -41.3669 H         1 UNK         0.0600 
    159 H159       -0.9509  -16.8408  -43.2866 H         1 UNK         0.3000 
    160 H160       -2.6808  -19.8877  -43.9089 H         1 UNK         0.0600 
    161 H161       -3.7257  -17.2532  -42.7355 H         1 UNK         0.0600 
    162 H162       -4.0091  -18.8545  -42.0627 H         1 UNK         0.0600 
    163 H163       -4.6745  -18.4387  -43.6338 H         1 UNK         0.0600 
    164 H164       -2.8285  -17.2497  -45.0355 H         1 UNK         0.3000 
    165 H165       -0.1233  -17.4605  -47.2313 H         1 UNK         0.0600 
    166 H166       -3.0123  -18.0476  -48.0545 H         1 UNK         0.0600 
    167 H167       -1.8604  -17.1589  -49.0527 H         1 UNK         0.0600 
    168 H168       -1.5390  -18.8248  -48.6334 H         1 UNK         0.0600 
    169 H169       -2.5100  -15.8015  -46.9726 H         1 UNK         0.3000 
    170 H170       -2.2514  -13.6642  -46.3298 H         1 UNK         0.0600 
    171 H171       -3.0263  -14.8366  -44.2298 H         1 UNK         0.0600 
    172 H172       -1.5837  -14.2810  -43.3853 H         1 UNK         0.0600 
    173 H173       -2.7873  -13.1226  -43.9411 H         1 UNK         0.0600 
    174 H174        0.4233  -13.2301  -45.3308 H         1 UNK         0.3000 
    175 H175        0.8581  -10.5434  -46.5115 H         1 UNK         0.0600 
    176 H176        1.0307   -8.5965  -44.9502 H         1 UNK         0.0600 
    177 H177       -0.5743   -8.7471  -45.6427 H         1 UNK         0.0600 
    178 H178       -0.2899   -9.2546  -43.9840 H         1 UNK         0.0600 
    179 H179        2.4818  -11.2847  -45.2625 H         1 UNK         0.3000 
    180 H180        3.6829  -11.2284  -42.9295 H         1 UNK         0.0600 
    181 H181        3.8376  -12.8390  -41.0070 H         1 UNK         0.0600 
    182 H182        2.5374  -11.6919  -40.7638 H         1 UNK         0.0600 
    183 H183        2.1680  -13.3299  -41.2803 H         1 UNK         0.0600 
    184 H184        2.8037  -13.5430  -44.3642 H         1 UNK         0.3000 
    185 H185        6.0973  -14.9738  -44.6436 H         1 UNK         0.0600 
    186 H186        4.6547  -16.9039  -44.8631 H         1 UNK         0.0600 
    187 H187        4.4548  -16.2880  -43.2338 H         1 UNK         0.0600 
    188 H188        3.2132  -15.9753  -44.4412 H         1 UNK         0.0600 
    189 H189        3.8430  -14.8295  -46.4539 H         1 UNK         0.3000 
    190 H190       -2.1848  -21.6936  -45.9976 H         1 UNK         0.3000 
    191 H191       -4.4711  -22.6552  -47.4903 H         1 UNK         0.0600 
    192 H192       -5.7624  -21.6754  -45.6254 H         1 UNK         0.0600 
    193 H193       -4.3080  -21.4992  -44.6542 H         1 UNK         0.0600 
    194 H194       -4.5093  -20.5515  -46.1290 H         1 UNK         0.0600 
    195 H195       -2.7273  -23.7439  -44.5702 H         1 UNK         0.3000 
    196 H196       -4.5225  -25.9064  -43.9189 H         1 UNK         0.0600 
    197 H197       -2.7249  -26.5426  -42.3261 H         1 UNK         0.0600 
    198 H198       -3.0717  -24.8246  -42.2117 H         1 UNK         0.0600 
    199 H199       -1.6265  -25.3806  -43.0550 H         1 UNK         0.0600 
    200 H200       -1.5169  -25.6069  -45.8102 H         1 UNK         0.3000 
    201 H201       -1.2711  -28.3873  -46.5038 H         1 UNK         0.0600 
    202 H202        0.6100  -26.7085  -46.5488 H         1 UNK         0.0600 
    203 H203       -0.1644  -25.8999  -47.9117 H         1 UNK         0.0600 
    204 H204        0.4279  -27.5449  -48.0831 H         1 UNK         0.0600 
    205 H205       -3.5288  -26.0803  -47.4900 H         1 UNK         0.3000 
    206 H206       -5.1782  -25.9563  -48.9044 H         1 UNK         0.0600 
    207 H207       -5.5245  -28.4126  -48.5599 H         1 UNK         0.0600 
    208 H208       -6.0292  -27.8815  -50.1553 H         1 UNK         0.0600 
    209 H209       -4.5150  -28.7479  -49.9675 H         1 UNK         0.0600 
    210 H210       -2.1426  -25.6239  -49.8046 H         1 UNK         0.3000 
    211 H211       -2.2185  -25.4435  -52.6768 H         1 UNK         0.0600 
    212 H212       -0.4294  -24.0734  -50.5925 H         1 UNK         0.0600 
    213 H213       -0.1502  -24.0531  -52.3299 H         1 UNK         0.0600 
    214 H214       -0.0786  -25.5716  -51.4486 H         1 UNK         0.0600 
    215 H215       -2.8447  -23.1710  -50.0046 H         1 UNK         0.3000 
    216 H216       -3.8247  -21.0703  -51.8628 H         1 UNK         0.0600 
    217 H217       -3.7820  -19.6196  -49.9243 H         1 UNK         0.0600 
    218 H218       -2.2526  -20.4782  -50.0091 H         1 UNK         0.0600 
    219 H219       -3.4797  -20.9576  -48.8312 H         1 UNK         0.0600 
    220 H220       -5.1769  -23.7760  -51.0439 H         1 UNK         0.3000 
    221 H221       -7.9119  -22.6091  -50.7065 H         1 UNK         0.0600 
    222 H222       -7.1097  -25.5625  -50.5860 H         1 UNK         0.0600 
    223 H223       -7.3897  -24.5470  -49.1711 H         1 UNK         0.0600 
    224 H224       -8.6963  -24.8743  -50.2991 H         1 UNK         0.0600 
    225 H225       -5.7535  -24.6898  -52.7064 H         1 UNK         0.3000 
    226 H226       -7.4482  -24.8435  -54.9906 H         1 UNK         0.0600 
    227 H227       -5.3507  -25.6125  -56.1188 H         1 UNK         0.0600 
    228 H228       -4.4099  -25.1446  -54.7069 H         1 UNK         0.0600 
    229 H229       -5.6031  -26.4336  -54.5854 H         1 UNK         0.0600 
    230 H230       -4.5961  -22.7215  -54.2953 H         1 UNK         0.3000 
    231 H231       -5.2201  -20.9218  -56.5400 H         1 UNK         0.0600 
    232 H232       -3.1991  -19.7206  -55.7300 H         1 UNK         0.0600 
    233 H233       -2.8454  -21.4319  -55.9228 H         1 UNK         0.0600 
    234 H234       -3.1112  -20.7597  -54.3161 H         1 UNK         0.0600 
    235 H235       -5.8208  -18.7070  -56.2377 H         1 UNK         0.3000 
    236 H236       -7.6832  -18.2183  -54.0829 H         1 UNK         0.0600 
    237 H237       -6.6376  -16.3800  -56.3012 H         1 UNK         0.0600 
    238 H238       -8.0932  -17.3742  -56.3716 H         1 UNK         0.0600 
    239 H239       -7.9976  -16.0331  -55.2413 H         1 UNK         0.0600 
    240 H240       -4.4347  -17.0238  -54.9016 H         1 UNK         0.3000 
    241 H241       -2.8981  -15.8232  -53.9031 H         1 UNK         0.0600 
    242 H242       -3.8868  -12.8952  -51.6944 H         1 UNK         0.3800 
    243 H243       -2.9123  -14.2749  -51.2867 H         1 UNK         0.3800 
    244 H244       -3.9937  -16.9367  -51.2727 H         1 UNK         0.0800 
    245 H245       -2.4251  -16.1963  -51.4565 H         1 UNK         0.0800 
    246 H246       -0.4080  -18.5312  -53.6712 H         1 UNK         0.0800 
    247 H247       -0.7206  -16.8749  -53.2409 H         1 UNK         0.0800 
@<TRIPOS>BOND
     1    1    2 1    
     2    1  127 1    
     3    1  128 1    
     4    1  129 1    
     5    2    3 2    
     6    2    4 am   BACKBONE|DICT|INTERRES
     7    4    5 1    
     8    4  130 1    
     9    5    6 1    
    10    5   65 1    
    11    5  131 1    
    12    6    7 1    
    13    6  132 1    
    14    6  133 1    
    15    7    8 1    
    16    8    9 1    
    17    8  134 1    
    18    8  135 1    
    19    9   10 ar   
    20    9   14 ar   
    21   10   11 ar   
    22   10  136 1    
    23   11   12 ar   
    24   11  126 1    
    25   12   13 ar   
    26   12  137 1    
    27   13   14 ar   
    28   13   15 1    
    29   14  138 1    
    30   15   16 1    
    31   15  139 1    
    32   15  140 1    
    33   16   17 1    
    34   17   18 1    
    35   17  141 1    
    36   17  142 1    
    37   18   19 1    
    38   18   67 1    
    39   18  143 1    
    40   19   20 am   BACKBONE|DICT|INTERRES
    41   19  144 1    
    42   20   21 2    
    43   20   22 1    
    44   22   23 1    
    45   22   24 1    
    46   22  145 1    
    47   23  146 1    
    48   23  147 1    
    49   23  148 1    
    50   24   25 am   BACKBONE|DICT|INTERRES
    51   24  149 1    
    52   25   26 2    
    53   25   27 1    
    54   27   28 1    
    55   27   29 1    
    56   27  150 1    
    57   28  151 1    
    58   28  152 1    
    59   28  153 1    
    60   29   30 am   BACKBONE|DICT|INTERRES
    61   29  154 1    
    62   30   31 2    
    63   30   32 1    
    64   32   33 1    
    65   32   34 1    
    66   32  155 1    
    67   33  156 1    
    68   33  157 1    
    69   33  158 1    
    70   34   35 am   BACKBONE|DICT|INTERRES
    71   34  159 1    
    72   35   36 2    
    73   35   37 1    
    74   37   38 1    
    75   37   39 1    
    76   37  160 1    
    77   38  161 1    
    78   38  162 1    
    79   38  163 1    
    80   39   40 am   BACKBONE|DICT|INTERRES
    81   39  164 1    
    82   40   41 2    
    83   40   42 1    
    84   42   43 1    
    85   42   44 1    
    86   42  165 1    
    87   43  166 1    
    88   43  167 1    
    89   43  168 1    
    90   44   45 am   BACKBONE|DICT|INTERRES
    91   44  169 1    
    92   45   46 2    
    93   45   47 1    
    94   47   48 1    
    95   47   49 1    
    96   47  170 1    
    97   48  171 1    
    98   48  172 1    
    99   48  173 1    
   100   49   50 am   BACKBONE|DICT|INTERRES
   101   49  174 1    
   102   50   51 2    
   103   50   52 1    
   104   52   53 1    
   105   52   54 1    
   106   52  175 1    
   107   53  176 1    
   108   53  177 1    
   109   53  178 1    
   110   54   55 am   BACKBONE|DICT|INTERRES
   111   54  179 1    
   112   55   56 2    
   113   55   57 1    
   114   57   58 1    
   115   57   59 1    
   116   57  180 1    
   117   58  181 1    
   118   58  182 1    
   119   58  183 1    
   120   59   60 am   BACKBONE|DICT|INTERRES
   121   59  184 1    
   122   60   61 2    
   123   60   62 1    
   124   62   63 1    
   125   62   64 1    
   126   62  185 1    
   127   63  186 1    
   128   63  187 1    
   129   63  188 1    
   130   64   65 am   BACKBONE|DICT|INTERRES
   131   64  189 1    
   132   65   66 2    
   133   67   68 2    
   134   67   69 am   BACKBONE|DICT|INTERRES
   135   69   70 1    
   136   69  190 1    
   137   70   71 1    
   138   70   72 1    
   139   70  191 1    
   140   71  192 1    
   141   71  193 1    
   142   71  194 1    
   143   72   73 2    
   144   72   74 am   BACKBONE|DICT|INTERRES
   145   74   75 1    
   146   74  195 1    
   147   75   76 1    
   148   75   77 1    
   149   75  196 1    
   150   76  197 1    
   151   76  198 1    
   152   76  199 1    
   153   77   78 2    
   154   77   79 am   BACKBONE|DICT|INTERRES
   155   79   80 1    
   156   79  200 1    
   157   80   81 1    
   158   80   82 1    
   159   80  201 1    
   160   81  202 1    
   161   81  203 1    
   162   81  204 1    
   163   82   83 2    
   164   82   84 am   BACKBONE|DICT|INTERRES
   165   84   85 1    
   166   84  205 1    
   167   85   86 1    
   168   85   87 1    
   169   85  206 1    
   170   86  207 1    
   171   86  208 1    
   172   86  209 1    
   173   87   88 2    
   174   87   89 am   BACKBONE|DICT|INTERRES
   175   89   90 1    
   176   89  210 1    
   177   90   91 1    
   178   90   92 1    
   179   90  211 1    
   180   91  212 1    
   181   91  213 1    
   182   91  214 1    
   183   92   93 2    
   184   92   94 am   BACKBONE|DICT|INTERRES
   185   94   95 1    
   186   94  215 1    
   187   95   96 1    
   188   95   97 1    
   189   95  216 1    
   190   96  217 1    
   191   96  218 1    
   192   96  219 1    
   193   97   98 2    
   194   97   99 am   BACKBONE|DICT|INTERRES
   195   99  100 1    
   196   99  220 1    
   197  100  101 1    
   198  100  102 1    
   199  100  221 1    
   200  101  222 1    
   201  101  223 1    
   202  101  224 1    
   203  102  103 2    
   204  102  104 am   BACKBONE|DICT|INTERRES
   205  104  105 1    
   206  104  225 1    
   207  105  106 1    
   208  105  107 1    
   209  105  226 1    
   210  106  227 1    
   211  106  228 1    
   212  106  229 1    
   213  107  108 2    
   214  107  109 am   BACKBONE|DICT|INTERRES
   215  109  110 1    
   216  109  230 1    
   217  110  111 1    
   218  110  112 1    
   219  110  231 1    
   220  111  232 1    
   221  111  233 1    
   222  111  234 1    
   223  112  113 2    
   224  112  114 am   BACKBONE|DICT|INTERRES
   225  114  115 1    
   226  114  235 1    
   227  115  116 1    
   228  115  117 1    
   229  115  236 1    
   230  116  237 1    
   231  116  238 1    
   232  116  239 1    
   233  117  118 2    
   234  117  119 am   BACKBONE|DICT|INTERRES
   235  119  120 1    
   236  119  240 1    
   237  120  121 1    
   238  120  124 1    
   239  120  241 1    
   240  121  122 am   BACKBONE|DICT|INTERRES
   241  121  123 2    
   242  122  242 1    
   243  122  243 1    
   244  124  125 1    
   245  124  244 1    
   246  124  245 1    
   247  125  126 1    
   248  126  246 1    
   249  126  247 1    
@<TRIPOS>SUBSTRUCTURE
     1 UNK         1 GROUP             0       ****    0 ROOT    
