@<TRIPOS>MOLECULE
3R540
247   249    1
SMALL
USER_CHARGES


@<TRIPOS>ATOM
      1 CA         -4.1693  -13.9608  -47.3830 C.3       0 UNK        -0.1800 
      2 C          -2.6879  -13.6130  -47.3433 C.2       0 UNK         0.5000 
      3 O          -2.3212  -12.4617  -47.5772 O.2       0 UNK        -0.5000 
      4 N          -1.8450  -14.6013  -47.0297 N.am      1 UNK        -0.5000 
      5 CA         -0.3863  -14.4944  -46.9180 C.3       1 UNK         0.1400 
      6 C6          0.3355  -15.4878  -47.8634 C.3       23 UNK        -0.0398 
      7 S7         -0.0362  -15.1513  -49.6217 S.3       23 UNK        -0.2404 
      8 C8          1.5513  -14.5323  -50.2603 C.3       23 UNK        -0.0205 
      9 C9          2.5383  -15.6611  -50.5177 C.ar      23 UNK        -0.0193 
     10 C10         2.5241  -16.3542  -51.7330 C.ar      23 UNK        -0.1150 
     11 C11         3.4396  -17.3848  -51.9723 C.ar      23 UNK        -0.0193 
     12 C12         4.3600  -17.7318  -50.9795 C.ar      23 UNK        -0.1150 
     13 C13         4.3890  -17.0391  -49.7675 C.ar      23 UNK        -0.0193 
     14 C14         3.4836  -15.9994  -49.5474 C.ar      23 UNK        -0.1150 
     15 C15         5.4115  -17.3905  -48.7009 C.3       23 UNK        -0.0205 
     16 S16         4.6300  -18.1349  -47.2391 S.3       23 UNK        -0.2404 
     17 C17         4.2291  -19.8150  -47.8242 C.3       23 UNK        -0.0398 
     18 CA          2.7336  -20.1523  -47.6063 C.3       11 UNK         0.1400 
     19 N           1.8550  -19.5303  -48.6142 N.am      11 UNK        -0.5000 
     20 C           0.5202  -19.4990  -48.5072 C.2       10 UNK         0.5000 
     21 O          -0.0869  -19.9682  -47.5421 O.2       10 UNK        -0.5000 
     22 CA         -0.2895  -18.9484  -49.6871 C.3       10 UNK         0.1400 
     23 CB         -0.4001  -20.0125  -50.7948 C.3       10 UNK        -0.1800 
     24 N          -1.6079  -18.6366  -49.1512 N.am      10 UNK        -0.5000 
     25 C          -2.5914  -17.9345  -49.7134 C.2       9 UNK         0.5000 
     26 O          -2.5294  -17.4674  -50.8505 O.2       9 UNK        -0.5000 
     27 CA         -3.8666  -17.7167  -48.8655 C.3       9 UNK         0.1400 
     28 CB         -5.1405  -18.0374  -49.6610 C.3       9 UNK        -0.1800 
     29 N          -3.9218  -18.4775  -47.6105 N.am      9 UNK        -0.5000 
     30 C          -3.2981  -18.1652  -46.4671 C.2       8 UNK         0.5000 
     31 O          -2.5082  -17.2273  -46.3765 O.2       8 UNK        -0.5000 
     32 CA         -3.6531  -19.0016  -45.2171 C.3       8 UNK         0.1400 
     33 CB         -4.8682  -19.9308  -45.4141 C.3       8 UNK        -0.1800 
     34 N          -2.5304  -19.8097  -44.7451 N.am      8 UNK        -0.5000 
     35 C          -1.5328  -19.3751  -43.9664 C.2       7 UNK         0.5000 
     36 O          -1.3959  -18.1987  -43.6232 O.2       7 UNK        -0.5000 
     37 CA         -0.5499  -20.4592  -43.4648 C.3       7 UNK         0.1400 
     38 CB          0.3514  -20.9695  -44.5944 C.3       7 UNK        -0.1800 
     39 N           0.3315  -19.9850  -42.4009 N.am      7 UNK        -0.5000 
     40 C          -0.0211  -19.6445  -41.1556 C.2       6 UNK         0.5000 
     41 O          -1.1559  -19.7940  -40.6999 O.2       6 UNK        -0.5000 
     42 CA          1.0925  -19.0544  -40.2587 C.3       6 UNK         0.1400 
     43 CB          1.4611  -20.0383  -39.1365 C.3       6 UNK        -0.1800 
     44 N           2.3169  -18.6961  -40.9895 N.am      6 UNK        -0.5000 
     45 C           2.4215  -17.6608  -41.8330 C.2       5 UNK         0.5000 
     46 O           1.5076  -16.8663  -42.0474 O.2       5 UNK        -0.5000 
     47 CA          3.7475  -17.5193  -42.5925 C.3       5 UNK         0.1400 
     48 CB          3.9334  -18.6740  -43.5973 C.3       5 UNK        -0.1800 
     49 N           3.7536  -16.2445  -43.3036 N.am      5 UNK        -0.5000 
     50 C           4.8405  -15.5935  -43.7299 C.2       4 UNK         0.5000 
     51 O           5.9913  -15.9916  -43.5439 O.2       4 UNK        -0.5000 
     52 CA          4.6138  -14.2753  -44.4890 C.3       4 UNK         0.1400 
     53 CB          4.4853  -14.5455  -45.9961 C.3       4 UNK        -0.1800 
     54 N           3.4205  -13.5622  -44.0294 N.am      4 UNK        -0.5000 
     55 C           3.4232  -12.6206  -43.0742 C.2       3 UNK         0.5000 
     56 O           4.4309  -12.2938  -42.4458 O.2       3 UNK        -0.5000 
     57 CA          2.0938  -11.8946  -42.7812 C.3       3 UNK         0.1400 
     58 CB          2.0453  -10.5515  -43.5261 C.3       3 UNK        -0.1800 
     59 N           0.9218  -12.6822  -43.1589 N.am      3 UNK        -0.5000 
     60 C           0.4029  -13.6726  -42.4220 C.2       2 UNK         0.5000 
     61 O           0.7815  -13.9298  -41.2789 O.2       2 UNK        -0.5000 
     62 CA         -0.7322  -14.5073  -43.0573 C.3       2 UNK         0.1400 
     63 CB         -2.0802  -14.1697  -42.4009 C.3       2 UNK        -0.1800 
     64 N          -0.8749  -14.3622  -44.5104 N.am      2 UNK        -0.5000 
     65 C           0.0388  -14.6738  -45.4429 C.2       1 UNK         0.5000 
     66 O           1.1799  -15.0485  -45.1697 O.2       1 UNK        -0.5000 
     67 C           2.5250  -21.6820  -47.4663 C.2       11 UNK         0.5000 
     68 O           2.9141  -22.2479  -46.4444 O.2       11 UNK        -0.5000 
     69 N           1.9066  -22.3167  -48.4713 N.am      12 UNK        -0.5000 
     70 CA          1.5532  -23.7363  -48.4824 C.3       12 UNK         0.1400 
     71 CB          1.9532  -24.3131  -49.8511 C.3       12 UNK        -0.1800 
     72 C           0.0544  -23.9910  -48.2119 C.2       12 UNK         0.5000 
     73 O          -0.3448  -25.1557  -48.1652 O.2       12 UNK        -0.5000 
     74 N          -0.7647  -22.9363  -48.0762 N.am      13 UNK        -0.5000 
     75 CA         -2.2175  -23.0564  -47.9542 C.3       13 UNK         0.1400 
     76 CB         -2.8929  -21.7685  -48.4472 C.3       13 UNK        -0.1800 
     77 C          -2.6445  -23.3691  -46.5119 C.2       13 UNK         0.5000 
     78 O          -2.5153  -22.5108  -45.6376 O.2       13 UNK        -0.5000 
     79 N          -3.1859  -24.5734  -46.2945 N.am      14 UNK        -0.5000 
     80 CA         -3.7491  -25.0053  -45.0112 C.3       14 UNK         0.1400 
     81 CB         -3.8950  -26.5348  -45.0249 C.3       14 UNK        -0.1800 
     82 C          -5.1025  -24.3393  -44.6820 C.2       14 UNK         0.5000 
     83 O          -5.4838  -24.2846  -43.5123 O.2       14 UNK        -0.5000 
     84 N          -5.7996  -23.8505  -45.7127 N.am      15 UNK        -0.5000 
     85 CA         -7.0691  -23.1378  -45.6474 C.3       15 UNK         0.1400 
     86 CB         -8.2304  -24.1466  -45.6172 C.3       15 UNK        -0.1800 
     87 C          -7.1608  -22.2286  -46.8795 C.2       15 UNK         0.5000 
     88 O          -6.4166  -22.4304  -47.8422 O.2       15 UNK        -0.5000 
     89 N          -8.0809  -21.2563  -46.8526 N.am      16 UNK        -0.5000 
     90 CA         -8.2824  -20.2617  -47.9160 C.3       16 UNK         0.1400 
     91 CB         -9.3468  -19.2517  -47.4636 C.3       16 UNK        -0.1800 
     92 C          -8.6476  -20.8541  -49.2939 C.2       16 UNK         0.5000 
     93 O          -8.3821  -20.2215  -50.3150 O.2       16 UNK        -0.5000 
     94 N          -9.2091  -22.0707  -49.3050 N.am      17 UNK        -0.5000 
     95 CA         -9.5001  -22.8529  -50.5080 C.3       17 UNK         0.1400 
     96 CB        -10.3716  -24.0554  -50.1144 C.3       17 UNK        -0.1800 
     97 C          -8.2391  -23.3283  -51.2619 C.2       17 UNK         0.5000 
     98 O          -8.3281  -23.6198  -52.4547 O.2       17 UNK        -0.5000 
     99 N          -7.0894  -23.3876  -50.5735 N.am      18 UNK        -0.5000 
    100 CA        -5.8001  -23.8183  -51.1187 C.3       18 UNK         0.1400 
    101 CB        -5.0246  -24.5747  -50.0276 C.3       18 UNK        -0.1800 
    102 C         -4.9785  -22.6588  -51.7231 C.2       18 UNK         0.5000 
    103 O         -3.7834  -22.8290  -51.9694 O.2       18 UNK        -0.5000 
    104 N         -5.6256  -21.5127  -51.9928 N.am      19 UNK        -0.5000 
    105 CA        -5.0551  -20.3242  -52.6421 C.3       19 UNK         0.1400 
    106 CB        -6.1599  -19.2718  -52.8207 C.3       19 UNK        -0.1800 
    107 C         -4.3962  -20.6010  -54.0068 C.2       19 UNK         0.5000 
    108 O         -3.4459  -19.9100  -54.3749 O.2       19 UNK        -0.5000 
    109 N         -4.8787  -21.6358  -54.7100 N.am      20 UNK        -0.5000 
    110 CA        -4.3687  -22.1380  -55.9891 C.3       20 UNK         0.1400 
    111 CB        -5.2565  -23.3074  -56.4424 C.3       20 UNK        -0.1800 
    112 C         -2.8829  -22.5607  -55.9791 C.2       20 UNK         0.5000 
    113 O         -2.2934  -22.6910  -57.0525 O.2       20 UNK        -0.5000 
    114 N         -2.2961  -22.7451  -54.7864 N.am      21 UNK        -0.5000 
    115 CA        -0.8652  -22.9669  -54.5818 C.3       21 UNK         0.1400 
    116 CB        -0.6137  -23.2810  -53.0987 C.3       21 UNK        -0.1800 
    117 C          0.0155  -21.7834  -55.0371 C.2       21 UNK         0.5000 
    118 O          1.1368  -22.0220  -55.4880 O.2       21 UNK        -0.5000 
    119 N         -0.5008  -20.5498  -54.9267 N.am      22 UNK        -0.5000 
    120 CA         0.1902  -19.3088  -55.3251 C.3       22 UNK         0.1400 
    121 C         -0.6734  -18.3633  -56.2068 C.2       22 UNK         0.5000 
    122 N         -1.9939  -18.4813  -56.2473 N.am      22 UNK        -0.7600 
    123 O         -0.1251  -17.5064  -56.8948 O.2       22 UNK        -0.5000 
    124 C124        0.7749  -18.5485  -54.1044 C.3       23 UNK        -0.0398 
    125 S125        2.2036  -19.4221  -53.3734 S.3       23 UNK        -0.2404 
    126 C126        3.4618  -18.1126  -53.3074 C.3       23 UNK        -0.0205 
    127 H127       -4.5193  -13.9935  -48.4149 H         1 UNK         0.0600 
    128 H128       -4.7482  -13.2075  -46.8484 H         1 UNK         0.0600 
    129 H129       -4.3690  -14.9282  -46.9208 H         1 UNK         0.0600 
    130 H130       -2.2057  -15.5314  -46.8142 H         1 UNK         0.3000 
    131 H131       -0.0622  -13.4888  -47.1929 H         1 UNK         0.0600 
    132 H132        1.4134  -15.4494  -47.7118 H         1 UNK         0.0800 
    133 H133        0.0352  -16.5117  -47.6360 H         1 UNK         0.0800 
    134 H134        1.3664  -13.9937  -51.1909 H         1 UNK         0.0800 
    135 H135        1.9694  -13.8015  -49.5662 H         1 UNK         0.0800 
    136 H136        1.8046  -16.0861  -52.4935 H         1 UNK         0.1150 
    137 H137        5.0673  -18.5295  -51.1589 H         1 UNK         0.1150 
    138 H138        3.5184  -15.4561  -48.6150 H         1 UNK         0.1150 
    139 H139        6.1768  -18.0633  -49.0909 H         1 UNK         0.0800 
    140 H140        5.9320  -16.4816  -48.3968 H         1 UNK         0.0800 
    141 H141        4.8744  -20.4912  -47.2599 H         1 UNK         0.0800 
    142 H142        4.5071  -19.9408  -48.8714 H         1 UNK         0.0800 
    143 H143        2.4473  -19.7355  -46.6397 H         1 UNK         0.0600 
    144 H144        2.3064  -19.1216  -49.4205 H         1 UNK         0.3000 
    145 H145        0.1833  -18.0437  -50.0714 H         1 UNK         0.0600 
    146 H146       -1.0348  -19.6801  -51.6157 H         1 UNK         0.0600 
    147 H147        0.5791  -20.2430  -51.2097 H         1 UNK         0.0600 
    148 H148       -0.8075  -20.9494  -50.4196 H         1 UNK         0.0600 
    149 H149       -1.7243  -18.9569  -48.1968 H         1 UNK         0.3000 
    150 H150       -3.8880  -16.6531  -48.6235 H         1 UNK         0.0600 
    151 H151       -5.2139  -19.1029  -49.8806 H         1 UNK         0.0600 
    152 H152       -5.1645  -17.4956  -50.6071 H         1 UNK         0.0600 
    153 H153       -6.0338  -17.7492  -49.1067 H         1 UNK         0.0600 
    154 H154       -4.5431  -19.2722  -47.6067 H         1 UNK         0.3000 
    155 H155       -3.9181  -18.2864  -44.4356 H         1 UNK         0.0600 
    156 H156       -4.6677  -20.7119  -46.1474 H         1 UNK         0.0600 
    157 H157       -5.7489  -19.3751  -45.7393 H         1 UNK         0.0600 
    158 H158       -5.1332  -20.4254  -44.4793 H         1 UNK         0.0600 
    159 H159       -2.5320  -20.7888  -45.0274 H         1 UNK         0.3000 
    160 H160       -1.1359  -21.2948  -43.0765 H         1 UNK         0.0600 
    161 H161        1.0409  -21.7364  -44.2410 H         1 UNK         0.0600 
    162 H162        0.9393  -20.1563  -45.0168 H         1 UNK         0.0600 
    163 H163       -0.2273  -21.4123  -45.4023 H         1 UNK         0.0600 
    164 H164        1.2825  -19.7943  -42.6729 H         1 UNK         0.3000 
    165 H165        0.6901  -18.1488  -39.7997 H         1 UNK         0.0600 
    166 H166        0.5853  -20.3000  -38.5413 H         1 UNK         0.0600 
    167 H167        1.8759  -20.9651  -39.5347 H         1 UNK         0.0600 
    168 H168        2.1950  -19.6051  -38.4566 H         1 UNK         0.0600 
    169 H169        3.1101  -19.3079  -40.8596 H         1 UNK         0.3000 
    170 H170        4.5582  -17.5299  -41.8612 H         1 UNK         0.0600 
    171 H171        3.9282  -19.6442  -43.0998 H         1 UNK         0.0600 
    172 H172        3.1408  -18.6821  -44.3466 H         1 UNK         0.0600 
    173 H173        4.8849  -18.5918  -44.1227 H         1 UNK         0.0600 
    174 H174        2.8336  -15.8467  -43.4568 H         1 UNK         0.3000 
    175 H175        5.4955  -13.6484  -44.3395 H         1 UNK         0.0600 
    176 H176        4.3348  -13.6216  -46.5546 H         1 UNK         0.0600 
    177 H177        5.3886  -15.0176  -46.3837 H         1 UNK         0.0600 
    178 H178        3.6505  -15.2119  -46.2147 H         1 UNK         0.0600 
    179 H179        2.5429  -13.8392  -44.4576 H         1 UNK         0.3000 
    180 H180        2.0564  -11.6888  -41.7093 H         1 UNK         0.0600 
    181 H181        2.0781  -10.6887  -44.6077 H         1 UNK         0.0600 
    182 H182        2.8912   -9.9206  -43.2496 H         1 UNK         0.0600 
    183 H183        1.1371   -9.9989  -43.2844 H         1 UNK         0.0600 
    184 H184        0.5344  -12.5167  -44.0756 H         1 UNK         0.3000 
    185 H185       -0.5178  -15.5578  -42.8597 H         1 UNK         0.0600 
    186 H186       -2.0335  -14.3034  -41.3192 H         1 UNK         0.0600 
    187 H187       -2.3732  -13.1367  -42.5926 H         1 UNK         0.0600 
    188 H188       -2.8725  -14.8207  -42.7713 H         1 UNK         0.0600 
    189 H189       -1.7794  -14.0572  -44.8381 H         1 UNK         0.3000 
    190 H190        1.6319  -21.7795  -49.2797 H         1 UNK         0.3000 
    191 H191        2.1126  -24.2738  -47.7141 H         1 UNK         0.0600 
    192 H192        3.0186  -24.1787  -50.0390 H         1 UNK         0.0600 
    193 H193        1.7494  -25.3833  -49.9040 H         1 UNK         0.0600 
    194 H194        1.4064  -23.8339  -50.6636 H         1 UNK         0.0600 
    195 H195       -0.3785  -22.0031  -48.0016 H         1 UNK         0.3000 
    196 H196       -2.5531  -23.8662  -48.6040 H         1 UNK         0.0600 
    197 H197       -3.9713  -21.8092  -48.3063 H         1 UNK         0.0600 
    198 H198       -2.7245  -21.6095  -49.5107 H         1 UNK         0.0600 
    199 H199       -2.5298  -20.9003  -47.9021 H         1 UNK         0.0600 
    200 H200       -3.2277  -25.2395  -47.0525 H         1 UNK         0.3000 
    201 H201       -3.0486  -24.7359  -44.2177 H         1 UNK         0.0600 
    202 H202       -4.2828  -26.8991  -44.0726 H         1 UNK         0.0600 
    203 H203       -4.5793  -26.8670  -45.8066 H         1 UNK         0.0600 
    204 H204       -2.9334  -27.0214  -45.1899 H         1 UNK         0.0600 
    205 H205       -5.3990  -23.8819  -46.6409 H         1 UNK         0.3000 
    206 H206       -7.0923  -22.5116  -44.7532 H         1 UNK         0.0600 
    207 H207       -8.1630  -24.7996  -44.7469 H         1 UNK         0.0600 
    208 H208       -9.1941  -23.6389  -45.5648 H         1 UNK         0.0600 
    209 H209       -8.2371  -24.7773  -46.5073 H         1 UNK         0.0600 
    210 H210       -8.6686  -21.1610  -46.0367 H         1 UNK         0.3000 
    211 H211       -7.3395  -19.7261  -48.0424 H         1 UNK         0.0600 
    212 H212      -10.3087  -19.7343  -47.2860 H         1 UNK         0.0600 
    213 H213       -9.5007  -18.4802  -48.2194 H         1 UNK         0.0600 
    214 H214       -9.0475  -18.7476  -46.5445 H         1 UNK         0.0600 
    215 H215       -9.3961  -22.5160  -48.4192 H         1 UNK         0.3000 
    216 H216      -10.0725  -22.2229  -51.1921 H         1 UNK         0.0600 
    217 H217      -10.6365  -24.6501  -50.9896 H         1 UNK         0.0600 
    218 H218      -11.3033  -23.7326  -49.6492 H         1 UNK         0.0600 
    219 H219       -9.8557  -24.7136  -49.4140 H         1 UNK         0.0600 
    220 H220       -7.0754  -23.0806  -49.6057 H         1 UNK         0.3000 
    221 H221       -5.9747  -24.5234  -51.9338 H         1 UNK         0.0600 
    222 H222       -4.8118  -23.9353  -49.1744 H         1 UNK         0.0600 
    223 H223       -5.5923  -25.4323  -49.6664 H         1 UNK         0.0600 
    224 H224       -4.0738  -24.9531  -50.4051 H         1 UNK         0.0600 
    225 H225       -6.6015  -21.4530  -51.7371 H         1 UNK         0.3000 
    226 H226       -4.2842  -19.9224  -51.9818 H         1 UNK         0.0600 
    227 H227       -5.7567  -18.3503  -53.2430 H         1 UNK         0.0600 
    228 H228       -6.9459  -19.6245  -53.4897 H         1 UNK         0.0600 
    229 H229       -6.6281  -19.0135  -51.8728 H         1 UNK         0.0600 
    230 H230       -5.6564  -22.1431  -54.3141 H         1 UNK         0.3000 
    231 H231       -4.4649  -21.3303  -56.7172 H         1 UNK         0.0600 
    232 H232       -5.2220  -24.1351  -55.7328 H         1 UNK         0.0600 
    233 H233       -4.9354  -23.6919  -57.4114 H         1 UNK         0.0600 
    234 H234       -6.2963  -22.9971  -56.5475 H         1 UNK         0.0600 
    235 H235       -2.8579  -22.6468  -53.9486 H         1 UNK         0.3000 
    236 H236       -0.5757  -23.8400  -55.1701 H         1 UNK         0.0600 
    237 H237       -1.1602  -24.1703  -52.7840 H         1 UNK         0.0600 
    238 H238        0.4450  -23.4653  -52.9133 H         1 UNK         0.0600 
    239 H239       -0.9227  -22.4559  -52.4565 H         1 UNK         0.0600 
    240 H240       -1.4466  -20.4433  -54.5802 H         1 UNK         0.3000 
    241 H241        1.0274  -19.5707  -55.9751 H         1 UNK         0.0600 
    242 H242       -2.5160  -17.8581  -56.8418 H         1 UNK         0.3800 
    243 H243       -2.4994  -19.1008  -55.6173 H         1 UNK         0.3800 
    244 H244        0.0119  -18.4078  -53.3382 H         1 UNK         0.0800 
    245 H245        1.0888  -17.5448  -54.3939 H         1 UNK         0.0800 
    246 H246        3.3362  -17.4061  -54.1287 H         1 UNK         0.0800 
    247 H247        4.4393  -18.5717  -53.4625 H         1 UNK         0.0800 
@<TRIPOS>BOND
     1    1    2 1    
     2    1  127 1    
     3    1  128 1    
     4    1  129 1    
     5    2    3 2    
     6    2    4 am   BACKBONE|DICT|INTERRES
     7    4    5 1    
     8    4  130 1    
     9    5    6 1    
    10    5   65 1    
    11    5  131 1    
    12    6    7 1    
    13    6  132 1    
    14    6  133 1    
    15    7    8 1    
    16    8    9 1    
    17    8  134 1    
    18    8  135 1    
    19    9   10 ar   
    20    9   14 ar   
    21   10   11 ar   
    22   10  136 1    
    23   11   12 ar   
    24   11  126 1    
    25   12   13 ar   
    26   12  137 1    
    27   13   14 ar   
    28   13   15 1    
    29   14  138 1    
    30   15   16 1    
    31   15  139 1    
    32   15  140 1    
    33   16   17 1    
    34   17   18 1    
    35   17  141 1    
    36   17  142 1    
    37   18   19 1    
    38   18   67 1    
    39   18  143 1    
    40   19   20 am   BACKBONE|DICT|INTERRES
    41   19  144 1    
    42   20   21 2    
    43   20   22 1    
    44   22   23 1    
    45   22   24 1    
    46   22  145 1    
    47   23  146 1    
    48   23  147 1    
    49   23  148 1    
    50   24   25 am   BACKBONE|DICT|INTERRES
    51   24  149 1    
    52   25   26 2    
    53   25   27 1    
    54   27   28 1    
    55   27   29 1    
    56   27  150 1    
    57   28  151 1    
    58   28  152 1    
    59   28  153 1    
    60   29   30 am   BACKBONE|DICT|INTERRES
    61   29  154 1    
    62   30   31 2    
    63   30   32 1    
    64   32   33 1    
    65   32   34 1    
    66   32  155 1    
    67   33  156 1    
    68   33  157 1    
    69   33  158 1    
    70   34   35 am   BACKBONE|DICT|INTERRES
    71   34  159 1    
    72   35   36 2    
    73   35   37 1    
    74   37   38 1    
    75   37   39 1    
    76   37  160 1    
    77   38  161 1    
    78   38  162 1    
    79   38  163 1    
    80   39   40 am   BACKBONE|DICT|INTERRES
    81   39  164 1    
    82   40   41 2    
    83   40   42 1    
    84   42   43 1    
    85   42   44 1    
    86   42  165 1    
    87   43  166 1    
    88   43  167 1    
    89   43  168 1    
    90   44   45 am   BACKBONE|DICT|INTERRES
    91   44  169 1    
    92   45   46 2    
    93   45   47 1    
    94   47   48 1    
    95   47   49 1    
    96   47  170 1    
    97   48  171 1    
    98   48  172 1    
    99   48  173 1    
   100   49   50 am   BACKBONE|DICT|INTERRES
   101   49  174 1    
   102   50   51 2    
   103   50   52 1    
   104   52   53 1    
   105   52   54 1    
   106   52  175 1    
   107   53  176 1    
   108   53  177 1    
   109   53  178 1    
   110   54   55 am   BACKBONE|DICT|INTERRES
   111   54  179 1    
   112   55   56 2    
   113   55   57 1    
   114   57   58 1    
   115   57   59 1    
   116   57  180 1    
   117   58  181 1    
   118   58  182 1    
   119   58  183 1    
   120   59   60 am   BACKBONE|DICT|INTERRES
   121   59  184 1    
   122   60   61 2    
   123   60   62 1    
   124   62   63 1    
   125   62   64 1    
   126   62  185 1    
   127   63  186 1    
   128   63  187 1    
   129   63  188 1    
   130   64   65 am   BACKBONE|DICT|INTERRES
   131   64  189 1    
   132   65   66 2    
   133   67   68 2    
   134   67   69 am   BACKBONE|DICT|INTERRES
   135   69   70 1    
   136   69  190 1    
   137   70   71 1    
   138   70   72 1    
   139   70  191 1    
   140   71  192 1    
   141   71  193 1    
   142   71  194 1    
   143   72   73 2    
   144   72   74 am   BACKBONE|DICT|INTERRES
   145   74   75 1    
   146   74  195 1    
   147   75   76 1    
   148   75   77 1    
   149   75  196 1    
   150   76  197 1    
   151   76  198 1    
   152   76  199 1    
   153   77   78 2    
   154   77   79 am   BACKBONE|DICT|INTERRES
   155   79   80 1    
   156   79  200 1    
   157   80   81 1    
   158   80   82 1    
   159   80  201 1    
   160   81  202 1    
   161   81  203 1    
   162   81  204 1    
   163   82   83 2    
   164   82   84 am   BACKBONE|DICT|INTERRES
   165   84   85 1    
   166   84  205 1    
   167   85   86 1    
   168   85   87 1    
   169   85  206 1    
   170   86  207 1    
   171   86  208 1    
   172   86  209 1    
   173   87   88 2    
   174   87   89 am   BACKBONE|DICT|INTERRES
   175   89   90 1    
   176   89  210 1    
   177   90   91 1    
   178   90   92 1    
   179   90  211 1    
   180   91  212 1    
   181   91  213 1    
   182   91  214 1    
   183   92   93 2    
   184   92   94 am   BACKBONE|DICT|INTERRES
   185   94   95 1    
   186   94  215 1    
   187   95   96 1    
   188   95   97 1    
   189   95  216 1    
   190   96  217 1    
   191   96  218 1    
   192   96  219 1    
   193   97   98 2    
   194   97   99 am   BACKBONE|DICT|INTERRES
   195   99  100 1    
   196   99  220 1    
   197  100  101 1    
   198  100  102 1    
   199  100  221 1    
   200  101  222 1    
   201  101  223 1    
   202  101  224 1    
   203  102  103 2    
   204  102  104 am   BACKBONE|DICT|INTERRES
   205  104  105 1    
   206  104  225 1    
   207  105  106 1    
   208  105  107 1    
   209  105  226 1    
   210  106  227 1    
   211  106  228 1    
   212  106  229 1    
   213  107  108 2    
   214  107  109 am   BACKBONE|DICT|INTERRES
   215  109  110 1    
   216  109  230 1    
   217  110  111 1    
   218  110  112 1    
   219  110  231 1    
   220  111  232 1    
   221  111  233 1    
   222  111  234 1    
   223  112  113 2    
   224  112  114 am   BACKBONE|DICT|INTERRES
   225  114  115 1    
   226  114  235 1    
   227  115  116 1    
   228  115  117 1    
   229  115  236 1    
   230  116  237 1    
   231  116  238 1    
   232  116  239 1    
   233  117  118 2    
   234  117  119 am   BACKBONE|DICT|INTERRES
   235  119  120 1    
   236  119  240 1    
   237  120  121 1    
   238  120  124 1    
   239  120  241 1    
   240  121  122 am   BACKBONE|DICT|INTERRES
   241  121  123 2    
   242  122  242 1    
   243  122  243 1    
   244  124  125 1    
   245  124  244 1    
   246  124  245 1    
   247  125  126 1    
   248  126  246 1    
   249  126  247 1    
@<TRIPOS>SUBSTRUCTURE
     1 UNK         1 GROUP             0       ****    0 ROOT    
