@<TRIPOS>MOLECULE
3R540
247   249    1
SMALL
USER_CHARGES


@<TRIPOS>ATOM
      1 CA          0.2855   -8.7793  -50.2925 C.3       0 UNK        -0.1800 
      2 C           1.4315   -9.3276  -49.4546 C.2       0 UNK         0.5000 
      3 O           2.5609   -8.8533  -49.5763 O.2       0 UNK        -0.5000 
      4 N           1.1452  -10.3234  -48.6060 N.am      1 UNK        -0.5000 
      5 CA          2.1180  -10.9823  -47.7232 C.3       1 UNK         0.1400 
      6 C6          1.5768  -12.3182  -47.1621 C.3       23 UNK        -0.0398 
      7 S7          1.1500  -13.5280  -48.4552 S.3       23 UNK        -0.2404 
      8 C8          0.6042  -14.9214  -47.4211 C.3       23 UNK        -0.0205 
      9 C9          0.0834  -16.0683  -48.2717 C.ar      23 UNK        -0.0193 
     10 C10        -1.2415  -16.0625  -48.7153 C.ar      23 UNK        -0.1150 
     11 C11        -1.7484  -17.1074  -49.4935 C.ar      23 UNK        -0.0193 
     12 C12        -0.8951  -18.1674  -49.8339 C.ar      23 UNK        -0.1150 
     13 C13         0.4362  -18.1844  -49.4022 C.ar      23 UNK        -0.0193 
     14 C14         0.9178  -17.1342  -48.6158 C.ar      23 UNK        -0.1150 
     15 C15         1.3690  -19.3150  -49.8172 C.3       23 UNK        -0.0205 
     16 S16         1.5576  -20.5785  -48.5195 S.3       23 UNK        -0.2404 
     17 C17        -0.0836  -21.3648  -48.5671 C.3       23 UNK        -0.0398 
     18 CA         -0.1694  -22.6680  -47.7406 C.3       11 UNK         0.1400 
     19 N           0.1021  -22.4543  -46.3142 N.am      11 UNK        -0.5000 
     20 C           0.2100  -23.4314  -45.4020 C.2       10 UNK         0.5000 
     21 O           0.1273  -24.6289  -45.6693 O.2       10 UNK        -0.5000 
     22 CA          0.3745  -23.0013  -43.9354 C.3       10 UNK         0.1400 
     23 CB          1.8181  -22.5694  -43.6346 C.3       10 UNK        -0.1800 
     24 N          -0.5567  -21.9320  -43.5791 N.am      10 UNK        -0.5000 
     25 C          -1.8839  -22.0934  -43.4816 C.2       9 UNK         0.5000 
     26 O          -2.4544  -23.1723  -43.6413 O.2       9 UNK        -0.5000 
     27 CA         -2.7181  -20.8330  -43.1923 C.3       9 UNK         0.1400 
     28 CB         -2.7854  -20.5626  -41.6822 C.3       9 UNK        -0.1800 
     29 N          -2.1995  -19.6476  -43.8723 N.am      9 UNK        -0.5000 
     30 C          -2.1996  -19.4707  -45.2015 C.2       8 UNK         0.5000 
     31 O          -2.6588  -20.2805  -46.0047 O.2       8 UNK        -0.5000 
     32 CA         -1.5161  -18.1955  -45.7207 C.3       8 UNK         0.1400 
     33 CB         -2.4931  -17.0123  -45.6558 C.3       8 UNK        -0.1800 
     34 N          -0.2894  -17.8693  -44.9879 N.am      8 UNK        -0.5000 
     35 C           0.7729  -18.6861  -44.8918 C.2       7 UNK         0.5000 
     36 O           0.8167  -19.8002  -45.4094 O.2       7 UNK        -0.5000 
     37 CA          1.9733  -18.2219  -44.0478 C.3       7 UNK         0.1400 
     38 CB          3.1069  -17.7348  -44.9620 C.3       7 UNK        -0.1800 
     39 N           1.6365  -17.1801  -43.0768 N.am      7 UNK        -0.5000 
     40 C           0.8488  -17.3657  -42.0052 C.2       6 UNK         0.5000 
     41 O           0.3573  -18.4556  -41.7084 O.2       6 UNK        -0.5000 
     42 CA          0.5185  -16.1304  -41.1391 C.3       6 UNK         0.1400 
     43 CB          1.4353  -16.0794  -39.9081 C.3       6 UNK        -0.1800 
     44 N           0.6162  -14.8562  -41.8560 N.am      6 UNK        -0.5000 
     45 C          -0.1041  -14.5208  -42.9354 C.2       5 UNK         0.5000 
     46 O          -0.9936  -15.2300  -43.4042 O.2       5 UNK        -0.5000 
     47 CA          0.2715  -13.2120  -43.6579 C.3       5 UNK         0.1400 
     48 CB         -0.6865  -12.0813  -43.2597 C.3       5 UNK        -0.1800 
     49 N           1.6617  -12.7684  -43.4772 N.am      5 UNK        -0.5000 
     50 C           2.7557  -13.4974  -43.7546 C.2       4 UNK         0.5000 
     51 O           2.6951  -14.6513  -44.1770 O.2       4 UNK        -0.5000 
     52 CA          4.1419  -12.8587  -43.5341 C.3       4 UNK         0.1400 
     53 CB          5.0699  -13.1078  -44.7356 C.3       4 UNK        -0.1800 
     54 N           4.0765  -11.4205  -43.2702 N.am      4 UNK        -0.5000 
     55 C           3.9538  -10.8698  -42.0541 C.2       3 UNK         0.5000 
     56 O           3.8787  -11.5286  -41.0167 O.2       3 UNK        -0.5000 
     57 CA          3.8852   -9.3301  -41.9738 C.3       3 UNK         0.1400 
     58 CB          5.2524   -8.7529  -41.5771 C.3       3 UNK        -0.1800 
     59 N           3.4428   -8.6877  -43.2137 N.am      3 UNK        -0.5000 
     60 C           2.2233   -8.8148  -43.7523 C.2       2 UNK         0.5000 
     61 O           1.3257   -9.4847  -43.2412 O.2       2 UNK        -0.5000 
     62 CA          1.9633   -8.1175  -45.1045 C.3       2 UNK         0.1400 
     63 CB          3.0537   -7.1016  -45.5136 C.3       2 UNK        -0.1800 
     64 N           1.7480   -9.0915  -46.1797 N.am      2 UNK        -0.5000 
     65 C           2.5798  -10.0750  -46.5604 C.2       1 UNK         0.5000 
     66 O           3.6702  -10.2900  -46.0294 O.2       1 UNK        -0.5000 
     67 C          -1.5367  -23.3468  -47.9679 C.2       11 UNK         0.5000 
     68 O          -1.6358  -24.2604  -48.7931 O.2       11 UNK        -0.5000 
     69 N          -2.5527  -22.9057  -47.2097 N.am      12 UNK        -0.5000 
     70 CA         -3.8966  -23.4758  -47.1957 C.3       12 UNK         0.1400 
     71 CB         -4.8235  -22.6401  -46.3004 C.3       12 UNK        -0.1800 
     72 C          -3.8995  -24.9501  -46.7609 C.2       12 UNK         0.5000 
     73 O          -4.4323  -25.7955  -47.4811 O.2       12 UNK        -0.5000 
     74 N          -3.2669  -25.2289  -45.6124 N.am      13 UNK        -0.5000 
     75 CA         -3.1327  -26.5669  -45.0366 C.3       13 UNK         0.1400 
     76 CB         -2.5247  -26.4556  -43.6304 C.3       13 UNK        -0.1800 
     77 C          -2.3053  -27.5320  -45.9048 C.2       13 UNK         0.5000 
     78 O          -2.6132  -28.7242  -45.9335 O.2       13 UNK        -0.5000 
     79 N          -1.2776  -27.0077  -46.5877 N.am      14 UNK        -0.5000 
     80 CA         -0.3942  -27.7632  -47.4720 C.3       14 UNK         0.1400 
     81 CB          0.8045  -26.8949  -47.8885 C.3       14 UNK        -0.1800 
     82 C          -1.1215  -28.3288  -48.7029 C.2       14 UNK         0.5000 
     83 O          -1.1069  -29.5452  -48.9000 O.2       14 UNK        -0.5000 
     84 N          -1.7311  -27.4490  -49.5106 N.am      15 UNK        -0.5000 
     85 CA         -2.3483  -27.8215  -50.7877 C.3       15 UNK         0.1400 
     86 CB         -1.2576  -28.1999  -51.8187 C.3       15 UNK        -0.1800 
     87 C          -3.2842  -26.7265  -51.3297 C.2       15 UNK         0.5000 
     88 O          -3.3564  -26.5499  -52.5470 O.2       15 UNK        -0.5000 
     89 N          -3.9575  -25.9735  -50.4439 N.am      16 UNK        -0.5000 
     90 CA         -4.8637  -24.8563  -50.7708 C.3       16 UNK         0.1400 
     91 CB         -6.1218  -25.3726  -51.5004 C.3       16 UNK        -0.1800 
     92 C          -4.1813  -23.7022  -51.5451 C.2       16 UNK         0.5000 
     93 O          -4.8595  -22.9404  -52.2329 O.2       16 UNK        -0.5000 
     94 N          -2.8437  -23.6208  -51.4650 N.am      17 UNK        -0.5000 
     95 CA         -1.9578  -22.7986  -52.2982 C.3       17 UNK         0.1400 
     96 CB         -2.1279  -21.3119  -51.9518 C.3       17 UNK        -0.1800 
     97 C          -2.1055  -23.0692  -53.8152 C.2       17 UNK         0.5000 
     98 O          -1.8917  -22.1647  -54.6253 O.2       17 UNK        -0.5000 
     99 N          -2.4772  -24.3080  -54.1730 N.am      18 UNK        -0.5000 
    100 CA        -2.7616  -24.7906  -55.5237 C.3       18 UNK         0.1400 
    101 CB        -1.4558  -24.9024  -56.3429 C.3       18 UNK        -0.1800 
    102 C         -3.8737  -23.9591  -56.1983 C.2       18 UNK         0.5000 
    103 O         -4.9993  -23.9359  -55.6978 O.2       18 UNK        -0.5000 
    104 N         -3.5463  -23.2888  -57.3098 N.am      19 UNK        -0.5000 
    105 CA        -4.4652  -22.4790  -58.1094 C.3       19 UNK         0.1400 
    106 CB        -3.7969  -22.1680  -59.4580 C.3       19 UNK        -0.1800 
    107 C         -4.9320  -21.1769  -57.4272 C.2       19 UNK         0.5000 
    108 O         -5.9354  -20.6096  -57.8617 O.2       19 UNK        -0.5000 
    109 N         -4.2116  -20.7104  -56.3952 N.am      20 UNK        -0.5000 
    110 CA        -4.5336  -19.4754  -55.6736 C.3       20 UNK         0.1400 
    111 CB        -3.3029  -19.0005  -54.8891 C.3       20 UNK        -0.1800 
    112 C         -5.7694  -19.5952  -54.7583 C.2       20 UNK         0.5000 
    113 O         -6.3995  -18.5739  -54.4803 O.2       20 UNK        -0.5000 
    114 N         -6.1074  -20.8252  -54.3369 N.am      21 UNK        -0.5000 
    115 CA        -7.2745  -21.1931  -53.5242 C.3       21 UNK         0.1400 
    116 CB        -8.5724  -21.0195  -54.3405 C.3       21 UNK        -0.1800 
    117 C         -7.3171  -20.4736  -52.1570 C.2       21 UNK         0.5000 
    118 O         -8.3609  -19.9526  -51.7568 O.2       21 UNK        -0.5000 
    119 N         -6.1683  -20.4466  -51.4742 N.am      22 UNK        -0.5000 
    120 CA        -6.0004  -19.8765  -50.1296 C.3       22 UNK         0.1400 
    121 C         -6.5998  -20.8060  -49.0403 C.2       22 UNK         0.5000 
    122 N         -7.1684  -20.2439  -47.9825 N.am      22 UNK        -0.7600 
    123 O         -6.5218  -22.0295  -49.1257 O.2       22 UNK        -0.5000 
    124 C124       -4.5157  -19.5532  -49.8200 C.3       23 UNK        -0.0398 
    125 S125       -3.8180  -18.3610  -51.0201 S.3       23 UNK        -0.2404 
    126 C126       -3.2061  -17.0080  -49.9555 C.3       23 UNK        -0.0205 
    127 H127        0.5076   -8.8950  -51.3532 H         1 UNK         0.0600 
    128 H128        0.1441   -7.7184  -50.0863 H         1 UNK         0.0600 
    129 H129       -0.6524   -9.2944  -50.0838 H         1 UNK         0.0600 
    130 H130        0.2050  -10.6912  -48.5736 H         1 UNK         0.3000 
    131 H131        3.0066  -11.2065  -48.3173 H         1 UNK         0.0600 
    132 H132        0.6918  -12.1364  -46.5515 H         1 UNK         0.0800 
    133 H133        2.3190  -12.7853  -46.5146 H         1 UNK         0.0800 
    134 H134        1.4301  -15.2563  -46.7921 H         1 UNK         0.0800 
    135 H135       -0.1830  -14.5863  -46.7455 H         1 UNK         0.0800 
    136 H136       -1.8832  -15.2325  -48.4540 H         1 UNK         0.1150 
    137 H137       -1.2498  -18.9785  -50.4491 H         1 UNK         0.1150 
    138 H138        1.9453  -17.1434  -48.2802 H         1 UNK         0.1150 
    139 H139        1.0186  -19.7840  -50.7380 H         1 UNK         0.0800 
    140 H140        2.3528  -18.9031  -50.0464 H         1 UNK         0.0800 
    141 H141       -0.2963  -21.5830  -49.6126 H         1 UNK         0.0800 
    142 H142       -0.8292  -20.6421  -48.2304 H         1 UNK         0.0800 
    143 H143        0.5936  -23.3542  -48.1140 H         1 UNK         0.0600 
    144 H144        0.2334  -21.4896  -46.0171 H         1 UNK         0.3000 
    145 H145        0.1483  -23.8663  -43.3080 H         1 UNK         0.0600 
    146 H146        1.9351  -22.2840  -42.5891 H         1 UNK         0.0600 
    147 H147        2.5132  -23.3873  -43.8280 H         1 UNK         0.0600 
    148 H148        2.1316  -21.7263  -44.2495 H         1 UNK         0.0600 
    149 H149       -0.1727  -21.0026  -43.4889 H         1 UNK         0.3000 
    150 H150       -3.7328  -21.0132  -43.5525 H         1 UNK         0.0600 
    151 H151       -3.1867  -21.4255  -41.1489 H         1 UNK         0.0600 
    152 H152       -3.4339  -19.7145  -41.4619 H         1 UNK         0.0600 
    153 H153       -1.7999  -20.3482  -41.2666 H         1 UNK         0.0600 
    154 H154       -1.7625  -18.9448  -43.2927 H         1 UNK         0.3000 
    155 H155       -1.2413  -18.3658  -46.7630 H         1 UNK         0.0600 
    156 H156       -2.8645  -16.8509  -44.6432 H         1 UNK         0.0600 
    157 H157       -3.3564  -17.1868  -46.2991 H         1 UNK         0.0600 
    158 H158       -2.0234  -16.0864  -45.9839 H         1 UNK         0.0600 
    159 H159       -0.2759  -16.9824  -44.4994 H         1 UNK         0.3000 
    160 H160        2.3367  -19.0895  -43.4932 H         1 UNK         0.0600 
    161 H161        2.7893  -16.9010  -45.5879 H         1 UNK         0.0600 
    162 H162        3.4377  -18.5324  -45.6287 H         1 UNK         0.0600 
    163 H163        3.9728  -17.4116  -44.3843 H         1 UNK         0.0600 
    164 H164        1.9857  -16.2488  -43.2839 H         1 UNK         0.3000 
    165 H165       -0.5123  -16.2401  -40.7965 H         1 UNK         0.0600 
    166 H166        1.1570  -15.2628  -39.2416 H         1 UNK         0.0600 
    167 H167        1.3691  -17.0036  -39.3324 H         1 UNK         0.0600 
    168 H168        2.4799  -15.9425  -40.1906 H         1 UNK         0.0600 
    169 H169        1.3322  -14.2160  -41.5459 H         1 UNK         0.3000 
    170 H170        0.1316  -13.4073  -44.7201 H         1 UNK         0.0600 
    171 H171       -1.7271  -12.4009  -43.3317 H         1 UNK         0.0600 
    172 H172       -0.5133  -11.7492  -42.2355 H         1 UNK         0.0600 
    173 H173       -0.5717  -11.2207  -43.9182 H         1 UNK         0.0600 
    174 H174        1.7880  -11.8206  -43.1465 H         1 UNK         0.3000 
    175 H175        4.5844  -13.3625  -42.6726 H         1 UNK         0.0600 
    176 H176        4.6575  -12.7044  -45.6598 H         1 UNK         0.0600 
    177 H177        6.0482  -12.6534  -44.5791 H         1 UNK         0.0600 
    178 H178        5.2323  -14.1751  -44.8912 H         1 UNK         0.0600 
    179 H179        4.0891  -10.8172  -44.0868 H         1 UNK         0.3000 
    180 H180        3.1674   -9.0774  -41.1908 H         1 UNK         0.0600 
    181 H181        6.0097   -8.9565  -42.3352 H         1 UNK         0.0600 
    182 H182        5.6025   -9.1855  -40.6389 H         1 UNK         0.0600 
    183 H183        5.1995   -7.6733  -41.4352 H         1 UNK         0.0600 
    184 H184        4.1327   -8.1452  -43.7128 H         1 UNK         0.3000 
    185 H185        1.0282   -7.5682  -44.9878 H         1 UNK         0.0600 
    186 H186        3.1896   -6.3382  -44.7464 H         1 UNK         0.0600 
    187 H187        4.0195   -7.5761  -45.6896 H         1 UNK         0.0600 
    188 H188        2.7737   -6.5843  -46.4313 H         1 UNK         0.0600 
    189 H189        0.8665   -9.0145  -46.6662 H         1 UNK         0.3000 
    190 H190       -2.4023  -22.1053  -46.6020 H         1 UNK         0.3000 
    191 H191       -4.2750  -23.4086  -48.2122 H         1 UNK         0.0600 
    192 H192       -4.8716  -21.6062  -46.6403 H         1 UNK         0.0600 
    193 H193       -5.8404  -23.0333  -46.3225 H         1 UNK         0.0600 
    194 H194       -4.4963  -22.6352  -45.2619 H         1 UNK         0.0600 
    195 H195       -2.8683  -24.4662  -45.0722 H         1 UNK         0.3000 
    196 H196       -4.1355  -26.9881  -44.9415 H         1 UNK         0.0600 
    197 H197       -2.4223  -27.4381  -43.1679 H         1 UNK         0.0600 
    198 H198       -3.1539  -25.8523  -42.9757 H         1 UNK         0.0600 
    199 H199       -1.5348  -25.9984  -43.6571 H         1 UNK         0.0600 
    200 H200       -1.0438  -26.0306  -46.4411 H         1 UNK         0.3000 
    201 H201       -0.0050  -28.6103  -46.9034 H         1 UNK         0.0600 
    202 H202        1.4093  -26.6212  -47.0241 H         1 UNK         0.0600 
    203 H203        0.4896  -25.9743  -48.3799 H         1 UNK         0.0600 
    204 H204        1.4552  -27.4313  -48.5803 H         1 UNK         0.0600 
    205 H205       -1.7093  -26.4624  -49.2767 H         1 UNK         0.3000 
    206 H206       -2.9805  -28.6959  -50.6208 H         1 UNK         0.0600 
    207 H207       -0.6383  -29.0276  -51.4748 H         1 UNK         0.0600 
    208 H208       -1.6979  -28.5164  -52.7652 H         1 UNK         0.0600 
    209 H209       -0.5992  -27.3559  -52.0276 H         1 UNK         0.0600 
    210 H210       -3.8692  -26.1742  -49.4528 H         1 UNK         0.3000 
    211 H211       -5.2088  -24.4420  -49.8275 H         1 UNK         0.0600 
    212 H212       -5.8951  -25.7180  -52.5095 H         1 UNK         0.0600 
    213 H213       -6.8708  -24.5845  -51.5881 H         1 UNK         0.0600 
    214 H214       -6.5835  -26.1968  -50.9568 H         1 UNK         0.0600 
    215 H215       -2.3797  -24.2392  -50.8104 H         1 UNK         0.3000 
    216 H216       -0.9389  -23.0863  -52.0359 H         1 UNK         0.0600 
    217 H217       -1.3723  -20.6979  -52.4429 H         1 UNK         0.0600 
    218 H218       -2.0387  -21.1472  -50.8820 H         1 UNK         0.0600 
    219 H219       -3.1062  -20.9462  -52.2588 H         1 UNK         0.0600 
    220 H220       -2.6986  -24.9742  -53.4380 H         1 UNK         0.3000 
    221 H221       -3.1650  -25.7975  -55.4092 H         1 UNK         0.0600 
    222 H222       -0.9693  -23.9370  -56.4839 H         1 UNK         0.0600 
    223 H223       -0.7424  -25.5574  -55.8430 H         1 UNK         0.0600 
    224 H224       -1.6437  -25.3309  -57.3282 H         1 UNK         0.0600 
    225 H225       -2.5916  -23.3388  -57.6341 H         1 UNK         0.3000 
    226 H226       -5.3578  -23.0776  -58.3032 H         1 UNK         0.0600 
    227 H227       -3.5389  -23.0828  -59.9921 H         1 UNK         0.0600 
    228 H228       -4.4642  -21.5954  -60.1034 H         1 UNK         0.0600 
    229 H229       -2.8847  -21.5842  -59.3290 H         1 UNK         0.0600 
    230 H230       -3.4063  -21.2347  -56.0743 H         1 UNK         0.3000 
    231 H231       -4.7624  -18.7049  -56.4131 H         1 UNK         0.0600 
    232 H232       -2.4618  -18.8051  -55.5541 H         1 UNK         0.0600 
    233 H233       -2.9847  -19.7399  -54.1589 H         1 UNK         0.0600 
    234 H234       -3.5135  -18.0768  -54.3486 H         1 UNK         0.0600 
    235 H235       -5.5095  -21.5970  -54.6019 H         1 UNK         0.3000 
    236 H236       -7.1736  -22.2569  -53.3061 H         1 UNK         0.0600 
    237 H237       -9.4330  -21.4044  -53.7924 H         1 UNK         0.0600 
    238 H238       -8.7713  -19.9720  -54.5688 H         1 UNK         0.0600 
    239 H239       -8.5193  -21.5636  -55.2835 H         1 UNK         0.0600 
    240 H240       -5.3968  -20.9954  -51.8352 H         1 UNK         0.3000 
    241 H241       -6.5537  -18.9354  -50.1018 H         1 UNK         0.0600 
    242 H242       -7.5551  -20.8377  -47.2662 H         1 UNK         0.3800 
    243 H243       -7.2471  -19.2434  -47.8892 H         1 UNK         0.3800 
    244 H244       -3.9205  -20.4657  -49.8325 H         1 UNK         0.0800 
    245 H245       -4.4155  -19.1502  -48.8108 H         1 UNK         0.0800 
    246 H246       -3.8568  -16.9017  -49.0867 H         1 UNK         0.0800 
    247 H247       -3.3109  -16.0823  -50.5229 H         1 UNK         0.0800 
@<TRIPOS>BOND
     1    1    2 1    
     2    1  127 1    
     3    1  128 1    
     4    1  129 1    
     5    2    3 2    
     6    2    4 am   BACKBONE|DICT|INTERRES
     7    4    5 1    
     8    4  130 1    
     9    5    6 1    
    10    5   65 1    
    11    5  131 1    
    12    6    7 1    
    13    6  132 1    
    14    6  133 1    
    15    7    8 1    
    16    8    9 1    
    17    8  134 1    
    18    8  135 1    
    19    9   10 ar   
    20    9   14 ar   
    21   10   11 ar   
    22   10  136 1    
    23   11   12 ar   
    24   11  126 1    
    25   12   13 ar   
    26   12  137 1    
    27   13   14 ar   
    28   13   15 1    
    29   14  138 1    
    30   15   16 1    
    31   15  139 1    
    32   15  140 1    
    33   16   17 1    
    34   17   18 1    
    35   17  141 1    
    36   17  142 1    
    37   18   19 1    
    38   18   67 1    
    39   18  143 1    
    40   19   20 am   BACKBONE|DICT|INTERRES
    41   19  144 1    
    42   20   21 2    
    43   20   22 1    
    44   22   23 1    
    45   22   24 1    
    46   22  145 1    
    47   23  146 1    
    48   23  147 1    
    49   23  148 1    
    50   24   25 am   BACKBONE|DICT|INTERRES
    51   24  149 1    
    52   25   26 2    
    53   25   27 1    
    54   27   28 1    
    55   27   29 1    
    56   27  150 1    
    57   28  151 1    
    58   28  152 1    
    59   28  153 1    
    60   29   30 am   BACKBONE|DICT|INTERRES
    61   29  154 1    
    62   30   31 2    
    63   30   32 1    
    64   32   33 1    
    65   32   34 1    
    66   32  155 1    
    67   33  156 1    
    68   33  157 1    
    69   33  158 1    
    70   34   35 am   BACKBONE|DICT|INTERRES
    71   34  159 1    
    72   35   36 2    
    73   35   37 1    
    74   37   38 1    
    75   37   39 1    
    76   37  160 1    
    77   38  161 1    
    78   38  162 1    
    79   38  163 1    
    80   39   40 am   BACKBONE|DICT|INTERRES
    81   39  164 1    
    82   40   41 2    
    83   40   42 1    
    84   42   43 1    
    85   42   44 1    
    86   42  165 1    
    87   43  166 1    
    88   43  167 1    
    89   43  168 1    
    90   44   45 am   BACKBONE|DICT|INTERRES
    91   44  169 1    
    92   45   46 2    
    93   45   47 1    
    94   47   48 1    
    95   47   49 1    
    96   47  170 1    
    97   48  171 1    
    98   48  172 1    
    99   48  173 1    
   100   49   50 am   BACKBONE|DICT|INTERRES
   101   49  174 1    
   102   50   51 2    
   103   50   52 1    
   104   52   53 1    
   105   52   54 1    
   106   52  175 1    
   107   53  176 1    
   108   53  177 1    
   109   53  178 1    
   110   54   55 am   BACKBONE|DICT|INTERRES
   111   54  179 1    
   112   55   56 2    
   113   55   57 1    
   114   57   58 1    
   115   57   59 1    
   116   57  180 1    
   117   58  181 1    
   118   58  182 1    
   119   58  183 1    
   120   59   60 am   BACKBONE|DICT|INTERRES
   121   59  184 1    
   122   60   61 2    
   123   60   62 1    
   124   62   63 1    
   125   62   64 1    
   126   62  185 1    
   127   63  186 1    
   128   63  187 1    
   129   63  188 1    
   130   64   65 am   BACKBONE|DICT|INTERRES
   131   64  189 1    
   132   65   66 2    
   133   67   68 2    
   134   67   69 am   BACKBONE|DICT|INTERRES
   135   69   70 1    
   136   69  190 1    
   137   70   71 1    
   138   70   72 1    
   139   70  191 1    
   140   71  192 1    
   141   71  193 1    
   142   71  194 1    
   143   72   73 2    
   144   72   74 am   BACKBONE|DICT|INTERRES
   145   74   75 1    
   146   74  195 1    
   147   75   76 1    
   148   75   77 1    
   149   75  196 1    
   150   76  197 1    
   151   76  198 1    
   152   76  199 1    
   153   77   78 2    
   154   77   79 am   BACKBONE|DICT|INTERRES
   155   79   80 1    
   156   79  200 1    
   157   80   81 1    
   158   80   82 1    
   159   80  201 1    
   160   81  202 1    
   161   81  203 1    
   162   81  204 1    
   163   82   83 2    
   164   82   84 am   BACKBONE|DICT|INTERRES
   165   84   85 1    
   166   84  205 1    
   167   85   86 1    
   168   85   87 1    
   169   85  206 1    
   170   86  207 1    
   171   86  208 1    
   172   86  209 1    
   173   87   88 2    
   174   87   89 am   BACKBONE|DICT|INTERRES
   175   89   90 1    
   176   89  210 1    
   177   90   91 1    
   178   90   92 1    
   179   90  211 1    
   180   91  212 1    
   181   91  213 1    
   182   91  214 1    
   183   92   93 2    
   184   92   94 am   BACKBONE|DICT|INTERRES
   185   94   95 1    
   186   94  215 1    
   187   95   96 1    
   188   95   97 1    
   189   95  216 1    
   190   96  217 1    
   191   96  218 1    
   192   96  219 1    
   193   97   98 2    
   194   97   99 am   BACKBONE|DICT|INTERRES
   195   99  100 1    
   196   99  220 1    
   197  100  101 1    
   198  100  102 1    
   199  100  221 1    
   200  101  222 1    
   201  101  223 1    
   202  101  224 1    
   203  102  103 2    
   204  102  104 am   BACKBONE|DICT|INTERRES
   205  104  105 1    
   206  104  225 1    
   207  105  106 1    
   208  105  107 1    
   209  105  226 1    
   210  106  227 1    
   211  106  228 1    
   212  106  229 1    
   213  107  108 2    
   214  107  109 am   BACKBONE|DICT|INTERRES
   215  109  110 1    
   216  109  230 1    
   217  110  111 1    
   218  110  112 1    
   219  110  231 1    
   220  111  232 1    
   221  111  233 1    
   222  111  234 1    
   223  112  113 2    
   224  112  114 am   BACKBONE|DICT|INTERRES
   225  114  115 1    
   226  114  235 1    
   227  115  116 1    
   228  115  117 1    
   229  115  236 1    
   230  116  237 1    
   231  116  238 1    
   232  116  239 1    
   233  117  118 2    
   234  117  119 am   BACKBONE|DICT|INTERRES
   235  119  120 1    
   236  119  240 1    
   237  120  121 1    
   238  120  124 1    
   239  120  241 1    
   240  121  122 am   BACKBONE|DICT|INTERRES
   241  121  123 2    
   242  122  242 1    
   243  122  243 1    
   244  124  125 1    
   245  124  244 1    
   246  124  245 1    
   247  125  126 1    
   248  126  246 1    
   249  126  247 1    
@<TRIPOS>SUBSTRUCTURE
     1 UNK         1 GROUP             0       ****    0 ROOT    
