@<TRIPOS>MOLECULE
3R540
247   249    1
SMALL
USER_CHARGES


@<TRIPOS>ATOM
      1 CA          5.7019  -12.1431  -49.7644 C.3       0 UNK        -0.1800 
      2 C           4.7364  -12.5172  -48.6489 C.2       0 UNK         0.5000 
      3 O           4.8250  -11.9677  -47.5500 O.2       0 UNK        -0.5000 
      4 N           3.8147  -13.4477  -48.9245 N.am      1 UNK        -0.5000 
      5 CA          2.7896  -13.9213  -47.9908 C.3       1 UNK         0.1400 
      6 C6          2.3187  -15.3581  -48.3257 C.3       23 UNK        -0.0398 
      7 S7          3.5917  -16.5824  -47.8667 S.3       23 UNK        -0.2404 
      8 C8          4.1036  -17.2506  -49.4788 C.3       23 UNK        -0.0205 
      9 C9          3.3519  -18.5298  -49.8105 C.ar      23 UNK        -0.0193 
     10 C10         2.1581  -18.4864  -50.5341 C.ar      23 UNK        -0.1150 
     11 C11         1.4675  -19.6645  -50.8364 C.ar      23 UNK        -0.0193 
     12 C12         1.9902  -20.8944  -50.4218 C.ar      23 UNK        -0.1150 
     13 C13         3.1793  -20.9507  -49.6862 C.ar      23 UNK        -0.0193 
     14 C14         3.8535  -19.7632  -49.3863 C.ar      23 UNK        -0.1150 
     15 C15         3.7512  -22.2844  -49.2136 C.3       23 UNK        -0.0205 
     16 S16         2.5741  -23.3014  -48.2594 S.3       23 UNK        -0.2404 
     17 C17         2.0616  -22.1602  -46.9362 C.3       23 UNK        -0.0398 
     18 CA          0.9712  -22.7574  -46.0096 C.3       11 UNK         0.1400 
     19 N           0.9768  -22.0633  -44.7223 N.am      11 UNK        -0.5000 
     20 C           1.0659  -22.6348  -43.5153 C.2       10 UNK         0.5000 
     21 O           0.9800  -23.8493  -43.3300 O.2       10 UNK        -0.5000 
     22 CA          1.2988  -21.6724  -42.3277 C.3       10 UNK         0.1400 
     23 CB          1.8911  -22.3713  -41.0865 C.3       10 UNK        -0.1800 
     24 N           2.0978  -20.4982  -42.7100 N.am      10 UNK        -0.5000 
     25 C           3.3474  -20.5033  -43.2021 C.2       9 UNK         0.5000 
     26 O           4.0589  -21.5074  -43.2498 O.2       9 UNK        -0.5000 
     27 CA          3.8920  -19.1849  -43.7787 C.3       9 UNK         0.1400 
     28 CB          4.1624  -19.3225  -45.2883 C.3       9 UNK        -0.1800 
     29 N           2.9907  -18.0458  -43.5776 N.am      9 UNK        -0.5000 
     30 C           3.3705  -16.8765  -43.0462 C.2       8 UNK         0.5000 
     31 O           4.4826  -16.6731  -42.5566 O.2       8 UNK        -0.5000 
     32 CA          2.3553  -15.7218  -43.0888 C.3       8 UNK         0.1400 
     33 CB          2.4060  -15.0193  -44.4525 C.3       8 UNK        -0.1800 
     34 N           0.9781  -16.1233  -42.8100 N.am      8 UNK        -0.5000 
     35 C           0.5204  -16.4645  -41.5978 C.2       7 UNK         0.5000 
     36 O           1.2357  -16.5910  -40.6037 O.2       7 UNK        -0.5000 
     37 CA         -0.9945  -16.6906  -41.4752 C.3       7 UNK         0.1400 
     38 CB         -1.7481  -15.3497  -41.4782 C.3       7 UNK        -0.1800 
     39 N          -1.4863  -17.5219  -42.5703 N.am      7 UNK        -0.5000 
     40 C          -1.6451  -18.8500  -42.4997 C.2       6 UNK         0.5000 
     41 O          -1.4407  -19.5104  -41.4821 O.2       6 UNK        -0.5000 
     42 CA         -2.1051  -19.5718  -43.7817 C.3       6 UNK         0.1400 
     43 CB         -3.6329  -19.7153  -43.7840 C.3       6 UNK        -0.1800 
     44 N          -1.7064  -18.8862  -45.0089 N.am      6 UNK        -0.5000 
     45 C          -0.4475  -18.7063  -45.4282 C.2       5 UNK         0.5000 
     46 O           0.5387  -19.1856  -44.8683 O.2       5 UNK        -0.5000 
     47 CA         -0.2594  -17.7865  -46.6460 C.3       5 UNK         0.1400 
     48 CB         -0.1781  -18.6089  -47.9335 C.3       5 UNK        -0.1800 
     49 N          -1.3246  -16.7872  -46.7898 N.am      5 UNK        -0.5000 
     50 C          -1.5692  -15.8075  -45.9115 C.2       4 UNK         0.5000 
     51 O          -0.9026  -15.6273  -44.8901 O.2       4 UNK        -0.5000 
     52 CA         -2.8161  -14.9554  -46.1631 C.3       4 UNK         0.1400 
     53 CB         -4.0225  -15.5578  -45.4168 C.3       4 UNK        -0.1800 
     54 N          -2.5512  -13.5986  -45.7038 N.am      4 UNK        -0.5000 
     55 C          -3.2762  -12.5152  -45.9969 C.2       3 UNK         0.5000 
     56 O          -4.3063  -12.5423  -46.6717 O.2       3 UNK        -0.5000 
     57 CA         -2.7477  -11.1623  -45.4844 C.3       3 UNK         0.1400 
     58 CB         -2.6748  -11.1079  -43.9441 C.3       3 UNK        -0.1800 
     59 N          -1.4802  -10.7779  -46.1188 N.am      3 UNK        -0.5000 
     60 C          -0.2785  -11.3537  -45.9825 C.2       2 UNK         0.5000 
     61 O          -0.0350  -12.2685  -45.1920 O.2       2 UNK        -0.5000 
     62 CA          0.8435  -10.7955  -46.8794 C.3       2 UNK         0.1400 
     63 CB          1.5451   -9.6147  -46.1913 C.3       2 UNK        -0.1800 
     64 N           1.8430  -11.8131  -47.2010 N.am      2 UNK        -0.5000 
     65 C           1.6211  -12.9180  -47.9237 C.2       1 UNK         0.5000 
     66 O           0.5701  -13.1447  -48.5265 O.2       1 UNK        -0.5000 
     67 C          -0.4516  -22.7359  -46.6116 C.2       11 UNK         0.5000 
     68 O          -0.6328  -22.4395  -47.7929 O.2       11 UNK        -0.5000 
     69 N          -1.4530  -23.0337  -45.7704 N.am      12 UNK        -0.5000 
     70 CA         -2.8766  -22.9984  -46.1130 C.3       12 UNK         0.1400 
     71 CB         -3.7069  -23.2152  -44.8390 C.3       12 UNK        -0.1800 
     72 C          -3.2822  -24.0332  -47.1772 C.2       12 UNK         0.5000 
     73 O          -4.1250  -23.7311  -48.0232 O.2       12 UNK        -0.5000 
     74 N          -2.6833  -25.2302  -47.1092 N.am      13 UNK        -0.5000 
     75 CA         -2.9888  -26.3644  -47.9816 C.3       13 UNK         0.1400 
     76 CB         -2.3062  -27.6294  -47.4392 C.3       13 UNK        -0.1800 
     77 C          -2.5935  -26.1079  -49.4445 C.2       13 UNK         0.5000 
     78 O          -3.4238  -26.2765  -50.3384 O.2       13 UNK        -0.5000 
     79 N          -1.3495  -25.6545  -49.6573 N.am      14 UNK        -0.5000 
     80 CA         -0.8100  -25.3238  -50.9803 C.3       14 UNK         0.1400 
     81 CB          0.7084  -25.1369  -50.8879 C.3       14 UNK        -0.1800 
     82 C          -1.4607  -24.0738  -51.5976 C.2       14 UNK         0.5000 
     83 O          -1.4722  -23.9457  -52.8200 O.2       14 UNK        -0.5000 
     84 N          -2.0139  -23.2014  -50.7444 N.am      15 UNK        -0.5000 
     85 CA         -2.8205  -22.0369  -51.1042 C.3       15 UNK         0.1400 
     86 CB         -2.7892  -21.0508  -49.9257 C.3       15 UNK        -0.1800 
     87 C          -4.2722  -22.3801  -51.4943 C.2       15 UNK         0.5000 
     88 O          -5.0415  -21.4517  -51.7453 O.2       15 UNK        -0.5000 
     89 N          -4.6221  -23.6754  -51.5225 N.am      16 UNK        -0.5000 
     90 CA         -5.9326  -24.2443  -51.8448 C.3       16 UNK         0.1400 
     91 CB         -6.3661  -23.8802  -53.2798 C.3       16 UNK        -0.1800 
     92 C          -6.9820  -23.8850  -50.7780 C.2       16 UNK         0.5000 
     93 O          -8.0195  -23.3016  -51.0932 O.2       16 UNK        -0.5000 
     94 N          -6.6639  -24.2332  -49.5231 N.am      17 UNK        -0.5000 
     95 CA         -7.4349  -23.9643  -48.3049 C.3       17 UNK         0.1400 
     96 CB         -8.8123  -24.6602  -48.3389 C.3       17 UNK        -0.1800 
     97 C          -7.5103  -22.4550  -48.0047 C.2       17 UNK         0.5000 
     98 O          -8.5916  -21.9152  -47.7646 O.2       17 UNK        -0.5000 
     99 N          -6.3332  -21.8125  -48.0351 N.am      18 UNK        -0.5000 
    100 CA        -6.0855  -20.3935  -47.7528 C.3       18 UNK         0.1400 
    101 CB        -6.4447  -20.0597  -46.2897 C.3       18 UNK        -0.1800 
    102 C         -6.7424  -19.4199  -48.7577 C.2       18 UNK         0.5000 
    103 O         -6.9640  -18.2561  -48.4206 O.2       18 UNK        -0.5000 
    104 N         -7.0139  -19.8899  -49.9833 N.am      19 UNK        -0.5000 
    105 CA        -7.5791  -19.0921  -51.0767 C.3       19 UNK         0.1400 
    106 CB        -8.2452  -20.0386  -52.0874 C.3       19 UNK        -0.1800 
    107 C         -6.5367  -18.1984  -51.7813 C.2       19 UNK         0.5000 
    108 O         -6.9217  -17.3304  -52.5652 O.2       19 UNK        -0.5000 
    109 N         -5.2471  -18.4418  -51.5026 N.am      20 UNK        -0.5000 
    110 CA        -4.0586  -17.8156  -52.0941 C.3       20 UNK         0.1400 
    111 CB        -4.0343  -16.2919  -51.8536 C.3       20 UNK        -0.1800 
    112 C         -3.8450  -18.2052  -53.5714 C.2       20 UNK         0.5000 
    113 O         -3.1894  -17.4735  -54.3145 O.2       20 UNK        -0.5000 
    114 N         -4.3639  -19.3758  -53.9635 N.am      21 UNK        -0.5000 
    115 CA        -4.1447  -19.9974  -55.2663 C.3       21 UNK         0.1400 
    116 CB        -5.4498  -20.6758  -55.7170 C.3       21 UNK        -0.1800 
    117 C         -2.9702  -20.9804  -55.1301 C.2       21 UNK         0.5000 
    118 O         -3.1800  -22.1930  -55.1110 O.2       21 UNK        -0.5000 
    119 N         -1.7691  -20.4183  -54.9439 N.am      22 UNK        -0.5000 
    120 CA        -0.5284  -21.1234  -54.5901 C.3       22 UNK         0.1400 
    121 C         -0.0976  -22.1779  -55.6460 C.2       22 UNK         0.5000 
    122 N         -0.1625  -23.4590  -55.3136 N.am      22 UNK        -0.7600 
    123 O          0.3183  -21.8367  -56.7508 O.2       22 UNK        -0.5000 
    124 C124        0.6354  -20.1461  -54.2656 C.3       23 UNK        -0.0398 
    125 S125        0.1622  -18.7780  -53.1521 S.3       23 UNK        -0.2404 
    126 C126        0.1156  -19.6024  -51.5315 C.3       23 UNK        -0.0205 
    127 H127        5.6097  -11.0829  -50.0001 H         1 UNK         0.0600 
    128 H128        6.7281  -12.3362  -49.4521 H         1 UNK         0.0600 
    129 H129        5.5108  -12.7122  -50.6745 H         1 UNK         0.0600 
    130 H130        3.7775  -13.8434  -49.8525 H         1 UNK         0.3000 
    131 H131        3.2246  -13.9495  -46.9900 H         1 UNK         0.0600 
    132 H132        1.4171  -15.5999  -47.7647 H         1 UNK         0.0800 
    133 H133        2.0469  -15.4510  -49.3779 H         1 UNK         0.0800 
    134 H134        3.9691  -16.5074  -50.2656 H         1 UNK         0.0800 
    135 H135        5.1744  -17.4565  -49.4431 H         1 UNK         0.0800 
    136 H136        1.7531  -17.5341  -50.8457 H         1 UNK         0.1150 
    137 H137        1.4563  -21.8084  -50.6401 H         1 UNK         0.1150 
    138 H138        4.7722  -19.7948  -48.8174 H         1 UNK         0.1150 
    139 H139        4.0757  -22.8528  -50.0860 H         1 UNK         0.0800 
    140 H140        4.6412  -22.1270  -48.6026 H         1 UNK         0.0800 
    141 H141        2.9587  -21.9379  -46.3567 H         1 UNK         0.0800 
    142 H142        1.7364  -21.2117  -47.3617 H         1 UNK         0.0800 
    143 H143        1.2167  -23.8090  -45.8472 H         1 UNK         0.0600 
    144 H144        0.9820  -21.0479  -44.7691 H         1 UNK         0.3000 
    145 H145        0.3143  -21.3010  -42.0498 H         1 UNK         0.0600 
    146 H146        2.0463  -21.6628  -40.2729 H         1 UNK         0.0600 
    147 H147        1.2177  -23.1454  -40.7169 H         1 UNK         0.0600 
    148 H148        2.8468  -22.8488  -41.3035 H         1 UNK         0.0600 
    149 H149        1.5977  -19.6215  -42.7293 H         1 UNK         0.3000 
    150 H150        4.8479  -19.0165  -43.2792 H         1 UNK         0.0600 
    151 H151        4.7995  -20.1809  -45.5049 H         1 UNK         0.0600 
    152 H152        4.6727  -18.4401  -45.6738 H         1 UNK         0.0600 
    153 H153        3.2381  -19.4450  -45.8543 H         1 UNK         0.0600 
    154 H154        2.0625  -18.1351  -43.9749 H         1 UNK         0.3000 
    155 H155        2.6531  -14.9952  -42.3297 H         1 UNK         0.0600 
    156 H156        2.0746  -15.6785  -45.2544 H         1 UNK         0.0600 
    157 H157        3.4207  -14.6956  -44.6871 H         1 UNK         0.0600 
    158 H158        1.7703  -14.1343  -44.4640 H         1 UNK         0.0600 
    159 H159        0.3109  -15.9940  -43.5671 H         1 UNK         0.3000 
    160 H160       -1.1872  -17.1776  -40.5168 H         1 UNK         0.0600 
    161 H161       -2.8198  -15.5019  -41.3499 H         1 UNK         0.0600 
    162 H162       -1.5996  -14.7972  -42.4068 H         1 UNK         0.0600 
    163 H163       -1.4103  -14.7116  -40.6607 H         1 UNK         0.0600 
    164 H164       -1.6291  -17.0547  -43.4556 H         1 UNK         0.3000 
    165 H165       -1.6587  -20.5682  -43.7876 H         1 UNK         0.0600 
    166 H166       -3.9712  -20.2444  -44.6729 H         1 UNK         0.0600 
    167 H167       -3.9761  -20.2795  -42.9158 H         1 UNK         0.0600 
    168 H168       -4.1306  -18.7448  -43.7633 H         1 UNK         0.0600 
    169 H169       -2.4464  -18.4578  -45.5432 H         1 UNK         0.3000 
    170 H170        0.6885  -17.2683  -46.5032 H         1 UNK         0.0600 
    171 H171        0.6793  -19.2804  -47.9140 H         1 UNK         0.0600 
    172 H172       -1.0718  -19.2147  -48.0824 H         1 UNK         0.0600 
    173 H173       -0.0591  -17.9593  -48.7997 H         1 UNK         0.0600 
    174 H174       -1.9177  -16.8775  -47.6020 H         1 UNK         0.3000 
    175 H175       -3.0189  -14.9312  -47.2358 H         1 UNK         0.0600 
    176 H176       -3.8608  -15.5699  -44.3379 H         1 UNK         0.0600 
    177 H177       -4.9352  -14.9944  -45.6098 H         1 UNK         0.0600 
    178 H178       -4.2096  -16.5845  -45.7337 H         1 UNK         0.0600 
    179 H179       -1.6712  -13.4756  -45.2078 H         1 UNK         0.3000 
    180 H180       -3.4714  -10.4064  -45.7940 H         1 UNK         0.0600 
    181 H181       -1.9944  -11.8520  -43.5298 H         1 UNK         0.0600 
    182 H182       -3.6564  -11.2918  -43.5060 H         1 UNK         0.0600 
    183 H183       -2.3451  -10.1272  -43.6014 H         1 UNK         0.0600 
    184 H184       -1.5659  -10.0373  -46.8013 H         1 UNK         0.3000 
    185 H185        0.4043  -10.4471  -47.8165 H         1 UNK         0.0600 
    186 H186        0.8376   -8.8166  -45.9630 H         1 UNK         0.0600 
    187 H187        2.0124   -9.9173  -45.2531 H         1 UNK         0.0600 
    188 H188        2.3193   -9.1887  -46.8298 H         1 UNK         0.0600 
    189 H189        2.7599  -11.6942  -46.7885 H         1 UNK         0.3000 
    190 H190       -1.2184  -23.2802  -44.8196 H         1 UNK         0.3000 
    191 H191       -3.1001  -22.0048  -46.5069 H         1 UNK         0.0600 
    192 H192       -3.5834  -24.2244  -44.4439 H         1 UNK         0.0600 
    193 H193       -4.7696  -23.0685  -45.0372 H         1 UNK         0.0600 
    194 H194       -3.4224  -22.5205  -44.0504 H         1 UNK         0.0600 
    195 H195       -2.0013  -25.3846  -46.3815 H         1 UNK         0.3000 
    196 H196       -4.0685  -26.5267  -47.9549 H         1 UNK         0.0600 
    197 H197       -2.5229  -28.4915  -48.0714 H         1 UNK         0.0600 
    198 H198       -2.6602  -27.8676  -46.4360 H         1 UNK         0.0600 
    199 H199       -1.2220  -27.5194  -47.3941 H         1 UNK         0.0600 
    200 H200       -0.7387  -25.5114  -48.8665 H         1 UNK         0.3000 
    201 H201       -1.0099  -26.1659  -51.6464 H         1 UNK         0.0600 
    202 H202        1.1921  -25.9901  -50.4121 H         1 UNK         0.0600 
    203 H203        0.9552  -24.2427  -50.3199 H         1 UNK         0.0600 
    204 H204        1.1477  -25.0221  -51.8797 H         1 UNK         0.0600 
    205 H205       -1.9156  -23.3802  -49.7539 H         1 UNK         0.3000 
    206 H206       -2.3756  -21.5521  -51.9730 H         1 UNK         0.0600 
    207 H207       -3.2980  -20.1191  -50.1643 H         1 UNK         0.0600 
    208 H208       -1.7650  -20.8022  -49.6536 H         1 UNK         0.0600 
    209 H209       -3.2671  -21.4676  -49.0413 H         1 UNK         0.0600 
    210 H210       -3.9200  -24.3555  -51.2589 H         1 UNK         0.3000 
    211 H211       -5.8101  -25.3278  -51.8082 H         1 UNK         0.0600 
    212 H212       -6.6187  -22.8248  -53.3709 H         1 UNK         0.0600 
    213 H213       -7.2487  -24.4491  -53.5731 H         1 UNK         0.0600 
    214 H214       -5.5785  -24.1008  -54.0007 H         1 UNK         0.0600 
    215 H215       -5.7457  -24.6288  -49.3650 H         1 UNK         0.3000 
    216 H216       -6.8698  -24.4084  -47.4839 H         1 UNK         0.0600 
    217 H217       -9.3178  -24.5649  -47.3773 H         1 UNK         0.0600 
    218 H218       -8.7107  -25.7250  -48.5477 H         1 UNK         0.0600 
    219 H219       -9.4709  -24.2311  -49.0943 H         1 UNK         0.0600 
    220 H220       -5.5114  -22.3780  -48.2292 H         1 UNK         0.3000 
    221 H221       -5.0098  -20.2523  -47.8603 H         1 UNK         0.0600 
    222 H222       -7.5238  -20.0232  -46.1377 H         1 UNK         0.0600 
    223 H223       -6.0401  -20.8019  -45.6025 H         1 UNK         0.0600 
    224 H224       -6.0423  -19.0887  -45.9988 H         1 UNK         0.0600 
    225 H225       -6.7906  -20.8520  -50.2027 H         1 UNK         0.3000 
    226 H226       -8.3508  -18.4356  -50.6694 H         1 UNK         0.0600 
    227 H227       -9.0136  -20.6473  -51.6104 H         1 UNK         0.0600 
    228 H228       -8.7258  -19.4801  -52.8914 H         1 UNK         0.0600 
    229 H229       -7.5214  -20.7131  -52.5449 H         1 UNK         0.0600 
    230 H230       -5.0717  -19.2325  -50.8992 H         1 UNK         0.3000 
    231 H231       -3.2031  -18.2312  -51.5612 H         1 UNK         0.0600 
    232 H232       -4.1998  -16.0554  -50.8026 H         1 UNK         0.0600 
    233 H233       -4.7940  -15.7743  -52.4394 H         1 UNK         0.0600 
    234 H234       -3.0680  -15.8698  -52.1319 H         1 UNK         0.0600 
    235 H235       -4.8373  -19.9476  -53.2728 H         1 UNK         0.3000 
    236 H236       -3.8793  -19.2485  -56.0154 H         1 UNK         0.0600 
    237 H237       -5.3219  -21.1652  -56.6832 H         1 UNK         0.0600 
    238 H238       -5.7781  -21.4322  -55.0053 H         1 UNK         0.0600 
    239 H239       -6.2541  -19.9477  -55.8232 H         1 UNK         0.0600 
    240 H240       -1.7058  -19.4093  -54.9532 H         1 UNK         0.3000 
    241 H241       -0.7458  -21.6564  -53.6667 H         1 UNK         0.0600 
    242 H242        0.1140  -24.1633  -55.9785 H         1 UNK         0.3800 
    243 H243       -0.5965  -23.7337  -54.4337 H         1 UNK         0.3800 
    244 H244        1.4740  -20.6860  -53.8221 H         1 UNK         0.0800 
    245 H245        1.0171  -19.6943  -55.1828 H         1 UNK         0.0800 
    246 H246       -0.3000  -20.6023  -51.6408 H         1 UNK         0.0800 
    247 H247       -0.5758  -19.0522  -50.8937 H         1 UNK         0.0800 
@<TRIPOS>BOND
     1    1    2 1    
     2    1  127 1    
     3    1  128 1    
     4    1  129 1    
     5    2    3 2    
     6    2    4 am   BACKBONE|DICT|INTERRES
     7    4    5 1    
     8    4  130 1    
     9    5    6 1    
    10    5   65 1    
    11    5  131 1    
    12    6    7 1    
    13    6  132 1    
    14    6  133 1    
    15    7    8 1    
    16    8    9 1    
    17    8  134 1    
    18    8  135 1    
    19    9   10 ar   
    20    9   14 ar   
    21   10   11 ar   
    22   10  136 1    
    23   11   12 ar   
    24   11  126 1    
    25   12   13 ar   
    26   12  137 1    
    27   13   14 ar   
    28   13   15 1    
    29   14  138 1    
    30   15   16 1    
    31   15  139 1    
    32   15  140 1    
    33   16   17 1    
    34   17   18 1    
    35   17  141 1    
    36   17  142 1    
    37   18   19 1    
    38   18   67 1    
    39   18  143 1    
    40   19   20 am   BACKBONE|DICT|INTERRES
    41   19  144 1    
    42   20   21 2    
    43   20   22 1    
    44   22   23 1    
    45   22   24 1    
    46   22  145 1    
    47   23  146 1    
    48   23  147 1    
    49   23  148 1    
    50   24   25 am   BACKBONE|DICT|INTERRES
    51   24  149 1    
    52   25   26 2    
    53   25   27 1    
    54   27   28 1    
    55   27   29 1    
    56   27  150 1    
    57   28  151 1    
    58   28  152 1    
    59   28  153 1    
    60   29   30 am   BACKBONE|DICT|INTERRES
    61   29  154 1    
    62   30   31 2    
    63   30   32 1    
    64   32   33 1    
    65   32   34 1    
    66   32  155 1    
    67   33  156 1    
    68   33  157 1    
    69   33  158 1    
    70   34   35 am   BACKBONE|DICT|INTERRES
    71   34  159 1    
    72   35   36 2    
    73   35   37 1    
    74   37   38 1    
    75   37   39 1    
    76   37  160 1    
    77   38  161 1    
    78   38  162 1    
    79   38  163 1    
    80   39   40 am   BACKBONE|DICT|INTERRES
    81   39  164 1    
    82   40   41 2    
    83   40   42 1    
    84   42   43 1    
    85   42   44 1    
    86   42  165 1    
    87   43  166 1    
    88   43  167 1    
    89   43  168 1    
    90   44   45 am   BACKBONE|DICT|INTERRES
    91   44  169 1    
    92   45   46 2    
    93   45   47 1    
    94   47   48 1    
    95   47   49 1    
    96   47  170 1    
    97   48  171 1    
    98   48  172 1    
    99   48  173 1    
   100   49   50 am   BACKBONE|DICT|INTERRES
   101   49  174 1    
   102   50   51 2    
   103   50   52 1    
   104   52   53 1    
   105   52   54 1    
   106   52  175 1    
   107   53  176 1    
   108   53  177 1    
   109   53  178 1    
   110   54   55 am   BACKBONE|DICT|INTERRES
   111   54  179 1    
   112   55   56 2    
   113   55   57 1    
   114   57   58 1    
   115   57   59 1    
   116   57  180 1    
   117   58  181 1    
   118   58  182 1    
   119   58  183 1    
   120   59   60 am   BACKBONE|DICT|INTERRES
   121   59  184 1    
   122   60   61 2    
   123   60   62 1    
   124   62   63 1    
   125   62   64 1    
   126   62  185 1    
   127   63  186 1    
   128   63  187 1    
   129   63  188 1    
   130   64   65 am   BACKBONE|DICT|INTERRES
   131   64  189 1    
   132   65   66 2    
   133   67   68 2    
   134   67   69 am   BACKBONE|DICT|INTERRES
   135   69   70 1    
   136   69  190 1    
   137   70   71 1    
   138   70   72 1    
   139   70  191 1    
   140   71  192 1    
   141   71  193 1    
   142   71  194 1    
   143   72   73 2    
   144   72   74 am   BACKBONE|DICT|INTERRES
   145   74   75 1    
   146   74  195 1    
   147   75   76 1    
   148   75   77 1    
   149   75  196 1    
   150   76  197 1    
   151   76  198 1    
   152   76  199 1    
   153   77   78 2    
   154   77   79 am   BACKBONE|DICT|INTERRES
   155   79   80 1    
   156   79  200 1    
   157   80   81 1    
   158   80   82 1    
   159   80  201 1    
   160   81  202 1    
   161   81  203 1    
   162   81  204 1    
   163   82   83 2    
   164   82   84 am   BACKBONE|DICT|INTERRES
   165   84   85 1    
   166   84  205 1    
   167   85   86 1    
   168   85   87 1    
   169   85  206 1    
   170   86  207 1    
   171   86  208 1    
   172   86  209 1    
   173   87   88 2    
   174   87   89 am   BACKBONE|DICT|INTERRES
   175   89   90 1    
   176   89  210 1    
   177   90   91 1    
   178   90   92 1    
   179   90  211 1    
   180   91  212 1    
   181   91  213 1    
   182   91  214 1    
   183   92   93 2    
   184   92   94 am   BACKBONE|DICT|INTERRES
   185   94   95 1    
   186   94  215 1    
   187   95   96 1    
   188   95   97 1    
   189   95  216 1    
   190   96  217 1    
   191   96  218 1    
   192   96  219 1    
   193   97   98 2    
   194   97   99 am   BACKBONE|DICT|INTERRES
   195   99  100 1    
   196   99  220 1    
   197  100  101 1    
   198  100  102 1    
   199  100  221 1    
   200  101  222 1    
   201  101  223 1    
   202  101  224 1    
   203  102  103 2    
   204  102  104 am   BACKBONE|DICT|INTERRES
   205  104  105 1    
   206  104  225 1    
   207  105  106 1    
   208  105  107 1    
   209  105  226 1    
   210  106  227 1    
   211  106  228 1    
   212  106  229 1    
   213  107  108 2    
   214  107  109 am   BACKBONE|DICT|INTERRES
   215  109  110 1    
   216  109  230 1    
   217  110  111 1    
   218  110  112 1    
   219  110  231 1    
   220  111  232 1    
   221  111  233 1    
   222  111  234 1    
   223  112  113 2    
   224  112  114 am   BACKBONE|DICT|INTERRES
   225  114  115 1    
   226  114  235 1    
   227  115  116 1    
   228  115  117 1    
   229  115  236 1    
   230  116  237 1    
   231  116  238 1    
   232  116  239 1    
   233  117  118 2    
   234  117  119 am   BACKBONE|DICT|INTERRES
   235  119  120 1    
   236  119  240 1    
   237  120  121 1    
   238  120  124 1    
   239  120  241 1    
   240  121  122 am   BACKBONE|DICT|INTERRES
   241  121  123 2    
   242  122  242 1    
   243  122  243 1    
   244  124  125 1    
   245  124  244 1    
   246  124  245 1    
   247  125  126 1    
   248  126  246 1    
   249  126  247 1    
@<TRIPOS>SUBSTRUCTURE
     1 UNK         1 GROUP             0       ****    0 ROOT    
