@<TRIPOS>MOLECULE
3R540
247   249    1
SMALL
USER_CHARGES


@<TRIPOS>ATOM
      1 CA          1.2611  -11.9205  -51.8145 C.3       0 UNK        -0.1800 
      2 C           1.3835  -13.1143  -50.8788 C.2       0 UNK         0.5000 
      3 O           0.4695  -13.9357  -50.8128 O.2       0 UNK        -0.5000 
      4 N           2.5016  -13.2046  -50.1450 N.am      1 UNK        -0.5000 
      5 CA          2.8573  -14.2472  -49.1708 C.3       1 UNK         0.1400 
      6 C6          2.8638  -15.6811  -49.7701 C.3       23 UNK        -0.0398 
      7 S7          4.0460  -16.8106  -48.9541 S.3       23 UNK        -0.2404 
      8 C8          3.0751  -17.5164  -47.5825 C.3       23 UNK        -0.0205 
      9 C9          1.9967  -18.4820  -48.0461 C.ar      23 UNK        -0.0193 
     10 C10         0.7022  -18.0196  -48.2995 C.ar      23 UNK        -0.1150 
     11 C11        -0.3079  -18.9029  -48.6845 C.ar      23 UNK        -0.0193 
     12 C12        -0.0251  -20.2673  -48.7693 C.ar      23 UNK        -0.1150 
     13 C13         1.2522  -20.7509  -48.4715 C.ar      23 UNK        -0.0193 
     14 C14         2.2709  -19.8492  -48.1482 C.ar      23 UNK        -0.1150 
     15 C15         1.4987  -22.2519  -48.4047 C.3       23 UNK        -0.0205 
     16 S16         1.7494  -22.8963  -46.7044 S.3       23 UNK        -0.2404 
     17 C17         0.8520  -21.7440  -45.5926 C.3       23 UNK        -0.0398 
     18 CA         -0.5560  -22.1846  -45.1294 C.3       11 UNK         0.1400 
     19 N          -1.0731  -21.2170  -44.1576 N.am      11 UNK        -0.5000 
     20 C          -2.1466  -21.3971  -43.3771 C.2       10 UNK         0.5000 
     21 O          -2.7513  -22.4673  -43.2946 O.2       10 UNK        -0.5000 
     22 CA         -2.6301  -20.1936  -42.5395 C.3       10 UNK         0.1400 
     23 CB         -2.2570  -20.3830  -41.0608 C.3       10 UNK        -0.1800 
     24 N          -2.1101  -18.9024  -42.9957 N.am      10 UNK        -0.5000 
     25 C          -2.4812  -18.2672  -44.1163 C.2       9 UNK         0.5000 
     26 O          -3.3547  -18.6831  -44.8765 O.2       9 UNK        -0.5000 
     27 CA         -1.7665  -16.9388  -44.4461 C.3       9 UNK         0.1400 
     28 CB         -2.6492  -15.7511  -44.0352 C.3       9 UNK        -0.1800 
     29 N          -0.4488  -16.7876  -43.8209 N.am      9 UNK        -0.5000 
     30 C           0.6140  -17.5695  -44.0611 C.2       8 UNK         0.5000 
     31 O           0.6002  -18.5159  -44.8437 O.2       8 UNK        -0.5000 
     32 CA          1.8788  -17.2890  -43.2328 C.3       8 UNK         0.1400 
     33 CB          2.6718  -16.0980  -43.7976 C.3       8 UNK        -0.1800 
     34 N           1.5305  -17.0389  -41.8344 N.am      8 UNK        -0.5000 
     35 C           1.2079  -18.0013  -40.9571 C.2       7 UNK         0.5000 
     36 O           1.2586  -19.2033  -41.2161 O.2       7 UNK        -0.5000 
     37 CA          0.7261  -17.5514  -39.5636 C.3       7 UNK         0.1400 
     38 CB          1.9075  -17.4809  -38.5845 C.3       7 UNK        -0.1800 
     39 N           0.0460  -16.2559  -39.5839 N.am      7 UNK        -0.5000 
     40 C          -1.1455  -16.0237  -40.1536 C.2       6 UNK         0.5000 
     41 O          -1.8389  -16.9009  -40.6655 O.2       6 UNK        -0.5000 
     42 CA         -1.6083  -14.5532  -40.2089 C.3       6 UNK         0.1400 
     43 CB         -2.4474  -14.2044  -38.9710 C.3       6 UNK        -0.1800 
     44 N          -0.4918  -13.6079  -40.3227 N.am      6 UNK        -0.5000 
     45 C           0.3590  -13.5672  -41.3561 C.2       5 UNK         0.5000 
     46 O           0.2615  -14.2928  -42.3489 O.2       5 UNK        -0.5000 
     47 CA          1.5742  -12.6460  -41.2026 C.3       5 UNK         0.1400 
     48 CB          2.6418  -13.3546  -40.3406 C.3       5 UNK        -0.1800 
     49 N           2.1059  -12.3313  -42.5258 N.am      5 UNK        -0.5000 
     50 C           3.0867  -11.4582  -42.7872 C.2       4 UNK         0.5000 
     51 O           3.6460  -10.7752  -41.9280 O.2       4 UNK        -0.5000 
     52 CA          3.5160  -11.3130  -44.2582 C.3       4 UNK         0.1400 
     53 CB          4.4869  -12.4382  -44.6480 C.3       4 UNK        -0.1800 
     54 N           2.3883  -11.2906  -45.1914 N.am      4 UNK        -0.5000 
     55 C           1.4934  -10.2919  -45.2709 C.2       3 UNK         0.5000 
     56 O           1.5278   -9.2929  -44.5510 O.2       3 UNK        -0.5000 
     57 CA          0.3848  -10.3960  -46.3403 C.3       3 UNK         0.1400 
     58 CB          0.6775   -9.4449  -47.5118 C.3       3 UNK        -0.1800 
     59 N           0.2047  -11.7442  -46.8743 N.am      3 UNK        -0.5000 
     60 C          -0.3023  -12.7818  -46.1967 C.2       2 UNK         0.5000 
     61 O          -0.7454  -12.6928  -45.0532 O.2       2 UNK        -0.5000 
     62 CA         -0.2839  -14.1498  -46.9080 C.3       2 UNK         0.1400 
     63 CB         -1.6764  -14.4886  -47.4602 C.3       2 UNK        -0.1800 
     64 N           0.6886  -14.2351  -48.0028 N.am      2 UNK        -0.5000 
     65 C           2.0194  -14.1481  -47.8776 C.2       1 UNK         0.5000 
     66 O           2.5816  -13.9534  -46.8005 O.2       1 UNK        -0.5000 
     67 C          -1.5475  -22.3367  -46.3068 C.2       11 UNK         0.5000 
     68 O          -2.2021  -21.3624  -46.6845 O.2       11 UNK        -0.5000 
     69 N          -1.6400  -23.5503  -46.8659 N.am      12 UNK        -0.5000 
     70 CA         -2.5373  -23.8678  -47.9804 C.3       12 UNK         0.1400 
     71 CB         -3.7609  -24.6292  -47.4456 C.3       12 UNK        -0.1800 
     72 C          -1.8578  -24.6567  -49.1091 C.2       12 UNK         0.5000 
     73 O          -2.3293  -24.5770  -50.2448 O.2       12 UNK        -0.5000 
     74 N          -0.7690  -25.3756  -48.7949 N.am      13 UNK        -0.5000 
     75 CA         -0.0199  -26.2793  -49.6778 C.3       13 UNK         0.1400 
     76 CB          0.5893  -25.5116  -50.8719 C.3       13 UNK        -0.1800 
     77 C          -0.8399  -27.5116  -50.1245 C.2       13 UNK         0.5000 
     78 O          -1.9532  -27.7379  -49.6399 O.2       13 UNK        -0.5000 
     79 N          -0.2517  -28.3166  -51.0198 N.am      14 UNK        -0.5000 
     80 CA         -0.8515  -29.5236  -51.5902 C.3       14 UNK         0.1400 
     81 CB          0.1725  -30.2140  -52.5036 C.3       14 UNK        -0.1800 
     82 C          -2.1417  -29.2054  -52.3656 C.2       14 UNK         0.5000 
     83 O          -2.1524  -28.2698  -53.1683 O.2       14 UNK        -0.5000 
     84 N          -3.2086  -29.9656  -52.0801 N.am      15 UNK        -0.5000 
     85 CA         -4.5593  -29.8471  -52.6506 C.3       15 UNK         0.1400 
     86 CB         -4.5450  -30.2523  -54.1397 C.3       15 UNK        -0.1800 
     87 C          -5.2287  -28.4696  -52.4276 C.2       15 UNK         0.5000 
     88 O          -6.1578  -28.1216  -53.1579 O.2       15 UNK        -0.5000 
     89 N          -4.7353  -27.7080  -51.4371 N.am      16 UNK        -0.5000 
     90 CA         -5.0894  -26.3209  -51.1183 C.3       16 UNK         0.1400 
     91 CB         -6.5482  -26.2220  -50.6256 C.3       16 UNK        -0.1800 
     92 C          -4.7709  -25.3252  -52.2587 C.2       16 UNK         0.5000 
     93 O          -5.4063  -24.2728  -52.3480 O.2       16 UNK        -0.5000 
     94 N          -3.7938  -25.6632  -53.1146 N.am      17 UNK        -0.5000 
     95 CA         -3.4434  -24.9077  -54.3181 C.3       17 UNK         0.1400 
     96 CB         -2.4301  -25.7109  -55.1461 C.3       17 UNK        -0.1800 
     97 C          -2.9084  -23.4913  -54.0447 C.2       17 UNK         0.5000 
     98 O          -3.1790  -22.5868  -54.8353 O.2       17 UNK        -0.5000 
     99 N          -2.1784  -23.3087  -52.9360 N.am      18 UNK        -0.5000 
    100 CA        -1.6620  -22.0014  -52.5343 C.3       18 UNK         0.1400 
    101 CB        -0.3862  -22.1626  -51.7023 C.3       18 UNK        -0.1800 
    102 C         -2.7266  -21.1784  -51.7925 C.2       18 UNK         0.5000 
    103 O         -2.7621  -19.9637  -51.9669 O.2       18 UNK        -0.5000 
    104 N         -3.6258  -21.8361  -51.0435 N.am      19 UNK        -0.5000 
    105 CA        -4.8057  -21.1926  -50.4508 C.3       19 UNK         0.1400 
    106 CB        -5.5403  -22.1549  -49.5049 C.3       19 UNK        -0.1800 
    107 C         -5.7641  -20.6378  -51.5199 C.2       19 UNK         0.5000 
    108 O         -6.2654  -19.5235  -51.3678 O.2       19 UNK        -0.5000 
    109 N         -5.9486  -21.3973  -52.6085 N.am      20 UNK        -0.5000 
    110 CA        -6.6991  -20.9831  -53.7942 C.3       20 UNK         0.1400 
    111 CB        -6.8584  -22.1857  -54.7365 C.3       20 UNK        -0.1800 
    112 C         -6.0636  -19.7875  -54.5346 C.2       20 UNK         0.5000 
    113 O         -6.7946  -18.9905  -55.1239 O.2       20 UNK        -0.5000 
    114 N         -4.7285  -19.6725  -54.4830 N.am      21 UNK        -0.5000 
    115 CA        -3.9767  -18.5429  -55.0292 C.3       21 UNK         0.1400 
    116 CB        -2.5135  -18.9508  -55.2635 C.3       21 UNK        -0.1800 
    117 C         -4.0726  -17.2973  -54.1281 C.2       21 UNK         0.5000 
    118 O         -4.2927  -16.2001  -54.6435 O.2       21 UNK        -0.5000 
    119 N         -3.9176  -17.4839  -52.8093 N.am      22 UNK        -0.5000 
    120 CA        -4.0634  -16.4264  -51.7940 C.3       22 UNK         0.1400 
    121 C         -5.5118  -15.8731  -51.6765 C.2       22 UNK         0.5000 
    122 N         -6.5384  -16.7115  -51.7429 N.am      22 UNK        -0.7600 
    123 O         -5.7050  -14.6701  -51.5239 O.2       22 UNK        -0.5000 
    124 C124       -3.5547  -16.8682  -50.3983 C.3       23 UNK        -0.0398 
    125 S125       -1.7723  -17.2507  -50.3674 S.3       23 UNK        -0.2404 
    126 C126       -1.7156  -18.3922  -48.9492 C.3       23 UNK        -0.0205 
    127 H127        2.1401  -11.2771  -51.7696 H         1 UNK         0.0600 
    128 H128        1.1412  -12.2617  -52.8427 H         1 UNK         0.0600 
    129 H129        0.3886  -11.3239  -51.5482 H         1 UNK         0.0600 
    130 H130        3.1958  -12.4766  -50.2459 H         1 UNK         0.3000 
    131 H131        3.8837  -14.0069  -48.8878 H         1 UNK         0.0600 
    132 H132        1.8661  -16.1155  -49.8110 H         1 UNK         0.0800 
    133 H133        3.1843  -15.6282  -50.8114 H         1 UNK         0.0800 
    134 H134        2.6265  -16.7212  -46.9903 H         1 UNK         0.0800 
    135 H135        3.7582  -18.0338  -46.9073 H         1 UNK         0.0800 
    136 H136        0.4710  -16.9710  -48.1897 H         1 UNK         0.1150 
    137 H137       -0.8186  -20.9580  -49.0151 H         1 UNK         0.1150 
    138 H138        3.2580  -20.2200  -47.9106 H         1 UNK         0.1150 
    139 H139        2.3685  -22.5034  -49.0128 H         1 UNK         0.0800 
    140 H140        0.6598  -22.7905  -48.8422 H         1 UNK         0.0800 
    141 H141        0.8006  -20.7452  -46.0159 H         1 UNK         0.0800 
    142 H142        1.4844  -21.6295  -44.7112 H         1 UNK         0.0800 
    143 H143       -0.4671  -23.1492  -44.6253 H         1 UNK         0.0600 
    144 H144       -0.6685  -20.2899  -44.2028 H         1 UNK         0.3000 
    145 H145       -3.7191  -20.1641  -42.6135 H         1 UNK         0.0600 
    146 H146       -2.6510  -19.5732  -40.4464 H         1 UNK         0.0600 
    147 H147       -2.6674  -21.3148  -40.6695 H         1 UNK         0.0600 
    148 H148       -1.1764  -20.4165  -40.9203 H         1 UNK         0.0600 
    149 H149       -1.4425  -18.4435  -42.3906 H         1 UNK         0.3000 
    150 H150       -1.6212  -16.9052  -45.5276 H         1 UNK         0.0600 
    151 H151       -2.9035  -15.7901  -42.9762 H         1 UNK         0.0600 
    152 H152       -3.5847  -15.7494  -44.5956 H         1 UNK         0.0600 
    153 H153       -2.1535  -14.7997  -44.2229 H         1 UNK         0.0600 
    154 H154       -0.3360  -16.0054  -43.1834 H         1 UNK         0.3000 
    155 H155        2.5215  -18.1710  -43.2801 H         1 UNK         0.0600 
    156 H156        2.0470  -15.2195  -43.9566 H         1 UNK         0.0600 
    157 H157        3.1159  -16.3522  -44.7588 H         1 UNK         0.0600 
    158 H158        3.4881  -15.8128  -43.1340 H         1 UNK         0.0600 
    159 H159        1.4043  -16.0728  -41.5693 H         1 UNK         0.3000 
    160 H160        0.0208  -18.3014  -39.1988 H         1 UNK         0.0600 
    161 H161        2.6389  -16.7308  -38.8884 H         1 UNK         0.0600 
    162 H162        2.4247  -18.4396  -38.5272 H         1 UNK         0.0600 
    163 H163        1.5711  -17.2342  -37.5773 H         1 UNK         0.0600 
    164 H164        0.5391  -15.4782  -39.1720 H         1 UNK         0.3000 
    165 H165       -2.2378  -14.4358  -41.0930 H         1 UNK         0.0600 
    166 H166       -2.8436  -13.1909  -39.0357 H         1 UNK         0.0600 
    167 H167       -1.8632  -14.2798  -38.0530 H         1 UNK         0.0600 
    168 H168       -3.2991  -14.8793  -38.8747 H         1 UNK         0.0600 
    169 H169       -0.3434  -12.9902  -39.5374 H         1 UNK         0.3000 
    170 H170        1.2562  -11.7200  -40.7198 H         1 UNK         0.0600 
    171 H171        2.2372  -13.6525  -39.3727 H         1 UNK         0.0600 
    172 H172        3.0194  -14.2536  -40.8296 H         1 UNK         0.0600 
    173 H173        3.4933  -12.7065  -40.1358 H         1 UNK         0.0600 
    174 H174        1.6589  -12.8322  -43.2844 H         1 UNK         0.3000 
    175 H175        4.0480  -10.3642  -44.3561 H         1 UNK         0.0600 
    176 H176        4.0219  -13.4207  -44.5601 H         1 UNK         0.0600 
    177 H177        4.8346  -12.3233  -45.6748 H         1 UNK         0.0600 
    178 H178        5.3669  -12.4346  -44.0036 H         1 UNK         0.0600 
    179 H179        2.2978  -12.0894  -45.8085 H         1 UNK         0.3000 
    180 H180       -0.5515  -10.0861  -45.8715 H         1 UNK         0.0600 
    181 H181        1.5997   -9.7146  -48.0281 H         1 UNK         0.0600 
    182 H182        0.7846   -8.4165  -47.1642 H         1 UNK         0.0600 
    183 H183       -0.1323   -9.4560  -48.2416 H         1 UNK         0.0600 
    184 H184        0.5419  -11.9101  -47.8104 H         1 UNK         0.3000 
    185 H185       -0.0144  -14.8988  -46.1605 H         1 UNK         0.0600 
    186 H186       -1.7072  -15.5063  -47.8453 H         1 UNK         0.0600 
    187 H187       -2.4404  -14.4121  -46.6861 H         1 UNK         0.0600 
    188 H188       -1.9619  -13.8157  -48.2697 H         1 UNK         0.0600 
    189 H189        0.3160  -14.3248  -48.9451 H         1 UNK         0.3000 
    190 H190       -1.0846  -24.3040  -46.4902 H         1 UNK         0.3000 
    191 H191       -2.8788  -22.9443  -48.4478 H         1 UNK         0.0600 
    192 H192       -4.4741  -24.8398  -48.2425 H         1 UNK         0.0600 
    193 H193       -4.2864  -24.0459  -46.6893 H         1 UNK         0.0600 
    194 H194       -3.4769  -25.5819  -46.9971 H         1 UNK         0.0600 
    195 H195       -0.4712  -25.3931  -47.8329 H         1 UNK         0.3000 
    196 H196        0.8049  -26.6633  -49.0760 H         1 UNK         0.0600 
    197 H197       -0.1673  -25.2291  -51.6040 H         1 UNK         0.0600 
    198 H198        1.0947  -24.6051  -50.5406 H         1 UNK         0.0600 
    199 H199        1.3343  -26.1130  -51.3931 H         1 UNK         0.0600 
    200 H200        0.6524  -28.0565  -51.3846 H         1 UNK         0.3000 
    201 H201       -1.0880  -30.1989  -50.7653 H         1 UNK         0.0600 
    202 H202        0.4687  -29.5712  -53.3337 H         1 UNK         0.0600 
    203 H203       -0.2395  -31.1300  -52.9291 H         1 UNK         0.0600 
    204 H204        1.0724  -30.4886  -51.9528 H         1 UNK         0.0600 
    205 H205       -3.1017  -30.6917  -51.3849 H         1 UNK         0.3000 
    206 H206       -5.1790  -30.5697  -52.1179 H         1 UNK         0.0600 
    207 H207       -4.0791  -31.2278  -54.2789 H         1 UNK         0.0600 
    208 H208       -5.5575  -30.3197  -54.5394 H         1 UNK         0.0600 
    209 H209       -4.0008  -29.5304  -54.7496 H         1 UNK         0.0600 
    210 H210       -3.9571  -28.0791  -50.9062 H         1 UNK         0.3000 
    211 H211       -4.4480  -26.0431  -50.2841 H         1 UNK         0.0600 
    212 H212       -6.7639  -25.2296  -50.2302 H         1 UNK         0.0600 
    213 H213       -6.7434  -26.9359  -49.8255 H         1 UNK         0.0600 
    214 H214       -7.2615  -26.4120  -51.4278 H         1 UNK         0.0600 
    215 H215       -3.3052  -26.5420  -52.9789 H         1 UNK         0.3000 
    216 H216       -4.3538  -24.8007  -54.9114 H         1 UNK         0.0600 
    217 H217       -1.5076  -25.8855  -54.5907 H         1 UNK         0.0600 
    218 H218       -2.1677  -25.1840  -56.0644 H         1 UNK         0.0600 
    219 H219       -2.8367  -26.6810  -55.4329 H         1 UNK         0.0600 
    220 H220       -2.0628  -24.0734  -52.2804 H         1 UNK         0.3000 
    221 H221       -1.3836  -21.4422  -53.4302 H         1 UNK         0.0600 
    222 H222        0.3664  -22.7385  -52.2404 H         1 UNK         0.0600 
    223 H223       -0.5846  -22.6629  -50.7586 H         1 UNK         0.0600 
    224 H224        0.0519  -21.1899  -51.4768 H         1 UNK         0.0600 
    225 H225       -3.5504  -22.8423  -50.9666 H         1 UNK         0.3000 
    226 H226       -4.4644  -20.3420  -49.8577 H         1 UNK         0.0600 
    227 H227       -5.6624  -23.1439  -49.9431 H         1 UNK         0.0600 
    228 H228       -5.0084  -22.2612  -48.5618 H         1 UNK         0.0600 
    229 H229       -6.5351  -21.7822  -49.2563 H         1 UNK         0.0600 
    230 H230       -5.5563  -22.3347  -52.6194 H         1 UNK         0.3000 
    231 H231       -7.6938  -20.6747  -53.4657 H         1 UNK         0.0600 
    232 H232       -5.8940  -22.5491  -55.0915 H         1 UNK         0.0600 
    233 H233       -7.4522  -21.9204  -55.6120 H         1 UNK         0.0600 
    234 H234       -7.3638  -23.0132  -54.2381 H         1 UNK         0.0600 
    235 H235       -4.1997  -20.3751  -53.9860 H         1 UNK         0.3000 
    236 H236       -4.4044  -18.2860  -56.0008 H         1 UNK         0.0600 
    237 H237       -2.4464  -19.8368  -55.8954 H         1 UNK         0.0600 
    238 H238       -1.9655  -18.1513  -55.7632 H         1 UNK         0.0600 
    239 H239       -1.9932  -19.1647  -54.3306 H         1 UNK         0.0600 
    240 H240       -3.6590  -18.4061  -52.4671 H         1 UNK         0.3000 
    241 H241       -3.4387  -15.5907  -52.1158 H         1 UNK         0.0600 
    242 H242       -7.4764  -16.3517  -51.6723 H         1 UNK         0.3800 
    243 H243       -6.3898  -17.7177  -51.7801 H         1 UNK         0.3800 
    244 H244       -4.1170  -17.7398  -50.0588 H         1 UNK         0.0800 
    245 H245       -3.7279  -16.0835  -49.6593 H         1 UNK         0.0800 
    246 H246       -2.3911  -19.2276  -49.1380 H         1 UNK         0.0800 
    247 H247       -2.0876  -17.8914  -48.0547 H         1 UNK         0.0800 
@<TRIPOS>BOND
     1    1    2 1    
     2    1  127 1    
     3    1  128 1    
     4    1  129 1    
     5    2    3 2    
     6    2    4 am   BACKBONE|DICT|INTERRES
     7    4    5 1    
     8    4  130 1    
     9    5    6 1    
    10    5   65 1    
    11    5  131 1    
    12    6    7 1    
    13    6  132 1    
    14    6  133 1    
    15    7    8 1    
    16    8    9 1    
    17    8  134 1    
    18    8  135 1    
    19    9   10 ar   
    20    9   14 ar   
    21   10   11 ar   
    22   10  136 1    
    23   11   12 ar   
    24   11  126 1    
    25   12   13 ar   
    26   12  137 1    
    27   13   14 ar   
    28   13   15 1    
    29   14  138 1    
    30   15   16 1    
    31   15  139 1    
    32   15  140 1    
    33   16   17 1    
    34   17   18 1    
    35   17  141 1    
    36   17  142 1    
    37   18   19 1    
    38   18   67 1    
    39   18  143 1    
    40   19   20 am   BACKBONE|DICT|INTERRES
    41   19  144 1    
    42   20   21 2    
    43   20   22 1    
    44   22   23 1    
    45   22   24 1    
    46   22  145 1    
    47   23  146 1    
    48   23  147 1    
    49   23  148 1    
    50   24   25 am   BACKBONE|DICT|INTERRES
    51   24  149 1    
    52   25   26 2    
    53   25   27 1    
    54   27   28 1    
    55   27   29 1    
    56   27  150 1    
    57   28  151 1    
    58   28  152 1    
    59   28  153 1    
    60   29   30 am   BACKBONE|DICT|INTERRES
    61   29  154 1    
    62   30   31 2    
    63   30   32 1    
    64   32   33 1    
    65   32   34 1    
    66   32  155 1    
    67   33  156 1    
    68   33  157 1    
    69   33  158 1    
    70   34   35 am   BACKBONE|DICT|INTERRES
    71   34  159 1    
    72   35   36 2    
    73   35   37 1    
    74   37   38 1    
    75   37   39 1    
    76   37  160 1    
    77   38  161 1    
    78   38  162 1    
    79   38  163 1    
    80   39   40 am   BACKBONE|DICT|INTERRES
    81   39  164 1    
    82   40   41 2    
    83   40   42 1    
    84   42   43 1    
    85   42   44 1    
    86   42  165 1    
    87   43  166 1    
    88   43  167 1    
    89   43  168 1    
    90   44   45 am   BACKBONE|DICT|INTERRES
    91   44  169 1    
    92   45   46 2    
    93   45   47 1    
    94   47   48 1    
    95   47   49 1    
    96   47  170 1    
    97   48  171 1    
    98   48  172 1    
    99   48  173 1    
   100   49   50 am   BACKBONE|DICT|INTERRES
   101   49  174 1    
   102   50   51 2    
   103   50   52 1    
   104   52   53 1    
   105   52   54 1    
   106   52  175 1    
   107   53  176 1    
   108   53  177 1    
   109   53  178 1    
   110   54   55 am   BACKBONE|DICT|INTERRES
   111   54  179 1    
   112   55   56 2    
   113   55   57 1    
   114   57   58 1    
   115   57   59 1    
   116   57  180 1    
   117   58  181 1    
   118   58  182 1    
   119   58  183 1    
   120   59   60 am   BACKBONE|DICT|INTERRES
   121   59  184 1    
   122   60   61 2    
   123   60   62 1    
   124   62   63 1    
   125   62   64 1    
   126   62  185 1    
   127   63  186 1    
   128   63  187 1    
   129   63  188 1    
   130   64   65 am   BACKBONE|DICT|INTERRES
   131   64  189 1    
   132   65   66 2    
   133   67   68 2    
   134   67   69 am   BACKBONE|DICT|INTERRES
   135   69   70 1    
   136   69  190 1    
   137   70   71 1    
   138   70   72 1    
   139   70  191 1    
   140   71  192 1    
   141   71  193 1    
   142   71  194 1    
   143   72   73 2    
   144   72   74 am   BACKBONE|DICT|INTERRES
   145   74   75 1    
   146   74  195 1    
   147   75   76 1    
   148   75   77 1    
   149   75  196 1    
   150   76  197 1    
   151   76  198 1    
   152   76  199 1    
   153   77   78 2    
   154   77   79 am   BACKBONE|DICT|INTERRES
   155   79   80 1    
   156   79  200 1    
   157   80   81 1    
   158   80   82 1    
   159   80  201 1    
   160   81  202 1    
   161   81  203 1    
   162   81  204 1    
   163   82   83 2    
   164   82   84 am   BACKBONE|DICT|INTERRES
   165   84   85 1    
   166   84  205 1    
   167   85   86 1    
   168   85   87 1    
   169   85  206 1    
   170   86  207 1    
   171   86  208 1    
   172   86  209 1    
   173   87   88 2    
   174   87   89 am   BACKBONE|DICT|INTERRES
   175   89   90 1    
   176   89  210 1    
   177   90   91 1    
   178   90   92 1    
   179   90  211 1    
   180   91  212 1    
   181   91  213 1    
   182   91  214 1    
   183   92   93 2    
   184   92   94 am   BACKBONE|DICT|INTERRES
   185   94   95 1    
   186   94  215 1    
   187   95   96 1    
   188   95   97 1    
   189   95  216 1    
   190   96  217 1    
   191   96  218 1    
   192   96  219 1    
   193   97   98 2    
   194   97   99 am   BACKBONE|DICT|INTERRES
   195   99  100 1    
   196   99  220 1    
   197  100  101 1    
   198  100  102 1    
   199  100  221 1    
   200  101  222 1    
   201  101  223 1    
   202  101  224 1    
   203  102  103 2    
   204  102  104 am   BACKBONE|DICT|INTERRES
   205  104  105 1    
   206  104  225 1    
   207  105  106 1    
   208  105  107 1    
   209  105  226 1    
   210  106  227 1    
   211  106  228 1    
   212  106  229 1    
   213  107  108 2    
   214  107  109 am   BACKBONE|DICT|INTERRES
   215  109  110 1    
   216  109  230 1    
   217  110  111 1    
   218  110  112 1    
   219  110  231 1    
   220  111  232 1    
   221  111  233 1    
   222  111  234 1    
   223  112  113 2    
   224  112  114 am   BACKBONE|DICT|INTERRES
   225  114  115 1    
   226  114  235 1    
   227  115  116 1    
   228  115  117 1    
   229  115  236 1    
   230  116  237 1    
   231  116  238 1    
   232  116  239 1    
   233  117  118 2    
   234  117  119 am   BACKBONE|DICT|INTERRES
   235  119  120 1    
   236  119  240 1    
   237  120  121 1    
   238  120  124 1    
   239  120  241 1    
   240  121  122 am   BACKBONE|DICT|INTERRES
   241  121  123 2    
   242  122  242 1    
   243  122  243 1    
   244  124  125 1    
   245  124  244 1    
   246  124  245 1    
   247  125  126 1    
   248  126  246 1    
   249  126  247 1    
@<TRIPOS>SUBSTRUCTURE
     1 UNK         1 GROUP             0       ****    0 ROOT    
