@<TRIPOS>MOLECULE
3R540
247   249    1
SMALL
USER_CHARGES


@<TRIPOS>ATOM
      1 CA          4.5591   -9.2788  -48.0222 C.3       0 UNK        -0.1800 
      2 C           4.2937  -10.7336  -47.6634 C.2       0 UNK         0.5000 
      3 O           3.5511  -11.0049  -46.7207 O.2       0 UNK        -0.5000 
      4 N           4.8930  -11.6713  -48.4086 N.am      1 UNK        -0.5000 
      5 CA          4.7874  -13.1218  -48.2084 C.3       1 UNK         0.1400 
      6 C6          3.3619  -13.6592  -48.5338 C.3       23 UNK        -0.0398 
      7 S7          3.4104  -15.3176  -49.2888 S.3       23 UNK        -0.2404 
      8 C8          1.7348  -15.9230  -48.9295 C.3       23 UNK        -0.0205 
      9 C9          1.3809  -17.1196  -49.8026 C.ar      23 UNK        -0.0193 
     10 C10         0.4918  -16.9783  -50.8742 C.ar      23 UNK        -0.1150 
     11 C11         0.1730  -18.0755  -51.6815 C.ar      23 UNK        -0.0193 
     12 C12         0.7416  -19.3212  -51.4048 C.ar      23 UNK        -0.1150 
     13 C13         1.6419  -19.4737  -50.3479 C.ar      23 UNK        -0.0193 
     14 C14         1.9549  -18.3690  -49.5493 C.ar      23 UNK        -0.1150 
     15 C15         2.3126  -20.8202  -50.1101 C.3       23 UNK        -0.0205 
     16 S16         2.0083  -21.4796  -48.4437 S.3       23 UNK        -0.2404 
     17 C17         0.1969  -21.6737  -48.4481 C.3       23 UNK        -0.0398 
     18 CA         -0.2575  -22.7027  -47.3906 C.3       11 UNK         0.1400 
     19 N           0.1066  -22.2929  -46.0329 N.am      11 UNK        -0.5000 
     20 C           0.1607  -23.1056  -44.9712 C.2       10 UNK         0.5000 
     21 O          -0.1585  -24.2940  -45.0236 O.2       10 UNK        -0.5000 
     22 CA          0.5831  -22.4792  -43.6250 C.3       10 UNK         0.1400 
     23 CB          1.4467  -23.4322  -42.7746 C.3       10 UNK        -0.1800 
     24 N           1.2074  -21.1567  -43.7625 N.am      10 UNK        -0.5000 
     25 C           2.3893  -20.8468  -44.3221 C.2       9 UNK         0.5000 
     26 O           3.1930  -21.6825  -44.7350 O.2       9 UNK        -0.5000 
     27 CA          2.7206  -19.3469  -44.4821 C.3       9 UNK         0.1400 
     28 CB          2.7361  -18.9571  -45.9692 C.3       9 UNK        -0.1800 
     29 N           1.7681  -18.4769  -43.7928 N.am      9 UNK        -0.5000 
     30 C           1.7884  -18.1963  -42.4832 C.2       8 UNK         0.5000 
     31 O           2.6680  -18.5792  -41.7122 O.2       8 UNK        -0.5000 
     32 CA          0.6017  -17.3755  -41.9433 C.3       8 UNK         0.1400 
     33 CB          0.9384  -15.8771  -41.9519 C.3       8 UNK        -0.1800 
     34 N          -0.6340  -17.6021  -42.6999 N.am      8 UNK        -0.5000 
     35 C          -1.3224  -18.7544  -42.7060 C.2       7 UNK         0.5000 
     36 O          -1.0047  -19.7429  -42.0463 O.2       7 UNK        -0.5000 
     37 CA         -2.5262  -18.8419  -43.6616 C.3       7 UNK         0.1400 
     38 CB         -3.8014  -18.3191  -42.9853 C.3       7 UNK        -0.1800 
     39 N          -2.3008  -18.1091  -44.9075 N.am      7 UNK        -0.5000 
     40 C          -1.4058  -18.4553  -45.8439 C.2       6 UNK         0.5000 
     41 O          -0.7419  -19.4911  -45.7950 O.2       6 UNK        -0.5000 
     42 CA         -1.1864  -17.4626  -47.0005 C.3       6 UNK         0.1400 
     43 CB         -1.9447  -17.9047  -48.2550 C.3       6 UNK        -0.1800 
     44 N          -1.5989  -16.1008  -46.6554 N.am      6 UNK        -0.5000 
     45 C          -0.8723  -15.2568  -45.9152 C.2       5 UNK         0.5000 
     46 O           0.2571  -15.5086  -45.4866 O.2       5 UNK        -0.5000 
     47 CA         -1.5480  -13.9320  -45.5498 C.3       5 UNK         0.1400 
     48 CB         -2.2859  -14.0588  -44.2044 C.3       5 UNK        -0.1800 
     49 N          -0.5316  -12.8930  -45.4665 N.am      5 UNK        -0.5000 
     50 C          -0.7547  -11.5791  -45.5823 C.2       4 UNK         0.5000 
     51 O          -1.8729  -11.0984  -45.7776 O.2       4 UNK        -0.5000 
     52 CA          0.4752  -10.6498  -45.4882 C.3       4 UNK         0.1400 
     53 CB          0.1203   -9.2365  -44.9797 C.3       4 UNK        -0.1800 
     54 N           1.6013  -11.2082  -44.7275 N.am      4 UNK        -0.5000 
     55 C           1.6232  -11.5338  -43.4268 C.2       3 UNK         0.5000 
     56 O           0.6411  -11.4576  -42.6870 O.2       3 UNK        -0.5000 
     57 CA          2.9639  -12.0564  -42.8807 C.3       3 UNK         0.1400 
     58 CB          2.8683  -12.5088  -41.4065 C.3       3 UNK        -0.1800 
     59 N           3.4619  -13.1389  -43.7318 N.am      3 UNK        -0.5000 
     60 C           4.7139  -13.6151  -43.7226 C.2       2 UNK         0.5000 
     61 O           5.6107  -13.1838  -42.9969 O.2       2 UNK        -0.5000 
     62 CA          5.0177  -14.7614  -44.7051 C.3       2 UNK         0.1400 
     63 CB          4.2871  -16.0485  -44.2965 C.3       2 UNK        -0.1800 
     64 N           4.6699  -14.4107  -46.0834 N.am      2 UNK        -0.5000 
     65 C           5.3549  -13.5264  -46.8230 C.2       1 UNK         0.5000 
     66 O           6.4158  -13.0191  -46.4486 O.2       1 UNK        -0.5000 
     67 C          -1.7650  -22.9896  -47.5076 C.2       11 UNK         0.5000 
     68 O          -2.1634  -23.7936  -48.3502 O.2       11 UNK        -0.5000 
     69 N          -2.5767  -22.3538  -46.6506 N.am      12 UNK        -0.5000 
     70 CA         -4.0073  -22.6289  -46.5152 C.3       12 UNK         0.1400 
     71 CB         -4.6684  -21.5048  -45.7042 C.3       12 UNK        -0.1800 
     72 C          -4.2661  -24.0027  -45.8700 C.2       12 UNK         0.5000 
     73 O          -5.1554  -24.7248  -46.3187 O.2       12 UNK        -0.5000 
     74 N          -3.4525  -24.3582  -44.8640 N.am      13 UNK        -0.5000 
     75 CA         -3.4888  -25.6539  -44.1800 C.3       13 UNK         0.1400 
     76 CB         -2.6817  -25.5690  -42.8753 C.3       13 UNK        -0.1800 
     77 C          -2.9760  -26.7996  -45.0723 C.2       13 UNK         0.5000 
     78 O          -3.5200  -27.9027  -45.0211 O.2       13 UNK        -0.5000 
     79 N          -1.9713  -26.5018  -45.9084 N.am      14 UNK        -0.5000 
     80 CA         -1.4373  -27.3963  -46.9397 C.3       14 UNK         0.1400 
     81 CB         -0.0704  -26.8601  -47.3931 C.3       14 UNK        -0.1800 
     82 C          -2.3726  -27.5674  -48.1577 C.2       14 UNK         0.5000 
     83 O          -2.1013  -28.4181  -49.0048 O.2       14 UNK        -0.5000 
     84 N          -3.4284  -26.7431  -48.2373 N.am      15 UNK        -0.5000 
     85 CA         -4.4500  -26.6529  -49.2874 C.3       15 UNK         0.1400 
     86 CB         -5.1779  -27.9956  -49.4972 C.3       15 UNK        -0.1800 
     87 C          -3.9520  -26.0450  -50.6143 C.2       15 UNK         0.5000 
     88 O          -4.7344  -25.9345  -51.5598 O.2       15 UNK        -0.5000 
     89 N          -2.6965  -25.5815  -50.6572 N.am      16 UNK        -0.5000 
     90 CA         -2.1136  -24.8475  -51.7805 C.3       16 UNK         0.1400 
     91 CB         -0.6135  -24.6329  -51.5280 C.3       16 UNK        -0.1800 
     92 C          -2.8334  -23.5082  -52.0134 C.2       16 UNK         0.5000 
     93 O          -3.1794  -23.1903  -53.1496 O.2       16 UNK        -0.5000 
     94 N          -3.1248  -22.8000  -50.9149 N.am      17 UNK        -0.5000 
     95 CA         -3.9044  -21.5607  -50.8988 C.3       17 UNK         0.1400 
     96 CB         -3.3017  -20.6002  -49.8675 C.3       17 UNK        -0.1800 
     97 C          -5.4077  -21.8062  -50.6557 C.2       17 UNK         0.5000 
     98 O          -6.1340  -20.8630  -50.3407 O.2       17 UNK        -0.5000 
     99 N          -5.8533  -23.0598  -50.8107 N.am      18 UNK        -0.5000 
    100 CA        -7.2574  -23.4061  -51.0250 C.3       18 UNK         0.1400 
    101 CB        -7.6275  -24.6579  -50.2138 C.3       18 UNK        -0.1800 
    102 C         -7.4980  -23.6201  -52.5302 C.2       18 UNK         0.5000 
    103 O         -8.5255  -23.1792  -53.0457 O.2       18 UNK        -0.5000 
    104 N         -6.5375  -24.2663  -53.2120 N.am      19 UNK        -0.5000 
    105 CA        -6.5078  -24.4333  -54.6643 C.3       19 UNK         0.1400 
    106 CB        -5.4269  -25.4605  -55.0375 C.3       19 UNK        -0.1800 
    107 C         -6.2886  -23.0967  -55.3991 C.2       19 UNK         0.5000 
    108 O         -7.0909  -22.7412  -56.2640 O.2       19 UNK        -0.5000 
    109 N         -5.2241  -22.3716  -55.0299 N.am      20 UNK        -0.5000 
    110 CA        -4.9592  -21.0067  -55.4850 C.3       20 UNK         0.1400 
    111 CB        -3.4533  -20.7221  -55.3742 C.3       20 UNK        -0.1800 
    112 C         -5.7612  -19.9972  -54.6454 C.2       20 UNK         0.5000 
    113 O         -6.0502  -20.2664  -53.4790 O.2       20 UNK        -0.5000 
    114 N         -6.0972  -18.8474  -55.2438 N.am      21 UNK        -0.5000 
    115 CA        -6.8378  -17.7729  -54.5771 C.3       21 UNK         0.1400 
    116 CB        -7.4257  -16.8250  -55.6346 C.3       21 UNK        -0.1800 
    117 C         -5.9725  -16.9949  -53.5676 C.2       21 UNK         0.5000 
    118 O         -6.4423  -16.6938  -52.4700 O.2       21 UNK        -0.5000 
    119 N         -4.7302  -16.6870  -53.9678 N.am      22 UNK        -0.5000 
    120 CA        -3.7049  -15.9727  -53.1800 C.3       22 UNK         0.1400 
    121 C         -4.0703  -14.5088  -52.7789 C.2       22 UNK         0.5000 
    122 N         -5.0154  -13.8585  -53.4469 N.am      22 UNK        -0.7600 
    123 O         -3.4683  -13.9353  -51.8751 O.2       22 UNK        -0.5000 
    124 C124       -3.1645  -16.8097  -51.9845 C.3       23 UNK        -0.0398 
    125 S125       -2.4540  -18.3980  -52.5305 S.3       23 UNK        -0.2404 
    126 C126       -0.7369  -17.9190  -52.8903 C.3       23 UNK        -0.0205 
    127 H127        3.6218   -8.7748  -48.2579 H         1 UNK         0.0600 
    128 H128        5.0216   -8.7646  -47.1798 H         1 UNK         0.0600 
    129 H129        5.2215   -9.1875  -48.8832 H         1 UNK         0.0600 
    130 H130        5.5187  -11.3834  -49.1479 H         1 UNK         0.3000 
    131 H131        5.4818  -13.5437  -48.9368 H         1 UNK         0.0600 
    132 H132        2.8841  -13.0114  -49.2704 H         1 UNK         0.0800 
    133 H133        2.7001  -13.6367  -47.6665 H         1 UNK         0.0800 
    134 H134        1.0123  -15.1191  -49.0795 H         1 UNK         0.0800 
    135 H135        1.6801  -16.1989  -47.8762 H         1 UNK         0.0800 
    136 H136        0.0599  -16.0113  -51.0895 H         1 UNK         0.1150 
    137 H137        0.5017  -20.1664  -52.0348 H         1 UNK         0.1150 
    138 H138        2.6622  -18.4781  -48.7402 H         1 UNK         0.1150 
    139 H139        1.9872  -21.5565  -50.8466 H         1 UNK         0.0800 
    140 H140        3.3882  -20.7039  -50.2486 H         1 UNK         0.0800 
    141 H141       -0.2537  -20.6995  -48.2603 H         1 UNK         0.0800 
    142 H142       -0.1195  -21.9776  -49.4473 H         1 UNK         0.0800 
    143 H143        0.2578  -23.6410  -47.6023 H         1 UNK         0.0600 
    144 H144        0.3069  -21.3081  -45.9029 H         1 UNK         0.3000 
    145 H145       -0.3446  -22.3099  -43.0771 H         1 UNK         0.0600 
    146 H146        1.7351  -22.9675  -41.8317 H         1 UNK         0.0600 
    147 H147        0.8981  -24.3430  -42.5318 H         1 UNK         0.0600 
    148 H148        2.3562  -23.7323  -43.2951 H         1 UNK         0.0600 
    149 H149        0.6349  -20.3880  -43.4393 H         1 UNK         0.3000 
    150 H150        3.7183  -19.1801  -44.0709 H         1 UNK         0.0600 
    151 H151        2.9186  -17.8928  -46.1102 H         1 UNK         0.0600 
    152 H152        1.7904  -19.1926  -46.4562 H         1 UNK         0.0600 
    153 H153        3.5204  -19.4947  -46.5032 H         1 UNK         0.0600 
    154 H154        1.0095  -18.1121  -44.3500 H         1 UNK         0.3000 
    155 H155        0.4295  -17.6818  -40.9093 H         1 UNK         0.0600 
    156 H156        0.1350  -15.2866  -41.5114 H         1 UNK         0.0600 
    157 H157        1.1151  -15.5045  -42.9609 H         1 UNK         0.0600 
    158 H158        1.8408  -15.6840  -41.3707 H         1 UNK         0.0600 
    159 H159       -0.9479  -16.8454  -43.2882 H         1 UNK         0.3000 
    160 H160       -2.6746  -19.8949  -43.9067 H         1 UNK         0.0600 
    161 H161       -3.7218  -17.2605  -42.7349 H         1 UNK         0.0600 
    162 H162       -4.0029  -18.8614  -42.0605 H         1 UNK         0.0600 
    163 H163       -4.6700  -18.4478  -43.6315 H         1 UNK         0.0600 
    164 H164       -2.8245  -17.2568  -45.0347 H         1 UNK         0.3000 
    165 H165       -0.1207  -17.4668  -47.2298 H         1 UNK         0.0600 
    166 H166       -3.0068  -18.0576  -48.0598 H         1 UNK         0.0600 
    167 H167       -1.8508  -17.1719  -49.0563 H         1 UNK         0.0600 
    168 H168       -1.5320  -18.8372  -48.6317 H         1 UNK         0.0600 
    169 H169       -2.5110  -15.8124  -46.9802 H         1 UNK         0.3000 
    170 H170       -2.2610  -13.6748  -46.3362 H         1 UNK         0.0600 
    171 H171       -3.0369  -14.8489  -44.2374 H         1 UNK         0.0600 
    172 H172       -1.5975  -14.2889  -43.3900 H         1 UNK         0.0600 
    173 H173       -2.8035  -13.1342  -43.9485 H         1 UNK         0.0600 
    174 H174        0.4106  -13.2323  -45.3343 H         1 UNK         0.3000 
    175 H175        0.8349  -10.5412  -46.5122 H         1 UNK         0.0600 
    176 H176        1.0028   -8.5976  -44.9462 H         1 UNK         0.0600 
    177 H177       -0.6024   -8.7520  -45.6373 H         1 UNK         0.0600 
    178 H178       -0.3144   -9.2626  -43.9802 H         1 UNK         0.0600 
    179 H179        2.4624  -11.2818  -45.2682 H         1 UNK         0.3000 
    180 H180        3.6682  -11.2240  -42.9381 H         1 UNK         0.0600 
    181 H181        3.8320  -12.8340  -41.0160 H         1 UNK         0.0600 
    182 H182        2.5288  -11.6909  -40.7699 H         1 UNK         0.0600 
    183 H183        2.1633  -13.3300  -41.2855 H         1 UNK         0.0600 
    184 H184        2.7929  -13.5409  -44.3714 H         1 UNK         0.3000 
    185 H185        6.0905  -14.9618  -44.6572 H         1 UNK         0.0600 
    186 H186        4.6531  -16.8965  -44.8740 H         1 UNK         0.0600 
    187 H187        4.4552  -16.2815  -43.2441 H         1 UNK         0.0600 
    188 H188        3.2099  -15.9723  -44.4485 H         1 UNK         0.0600 
    189 H189        3.8331  -14.8266  -46.4635 H         1 UNK         0.3000 
    190 H190       -2.1695  -21.6802  -46.0174 H         1 UNK         0.3000 
    191 H191       -4.4558  -22.6405  -47.5109 H         1 UNK         0.0600 
    192 H192       -5.7492  -21.6446  -45.6586 H         1 UNK         0.0600 
    193 H193       -4.3003  -21.4750  -44.6785 H         1 UNK         0.0600 
    194 H194       -4.4860  -20.5297  -46.1569 H         1 UNK         0.0600 
    195 H195       -2.7231  -23.7218  -44.5823 H         1 UNK         0.3000 
    196 H196       -4.5271  -25.8732  -43.9218 H         1 UNK         0.0600 
    197 H197       -2.7327  -26.5097  -42.3257 H         1 UNK         0.0600 
    198 H198       -3.0712  -24.7896  -42.2201 H         1 UNK         0.0600 
    199 H199       -1.6287  -25.3568  -43.0605 H         1 UNK         0.0600 
    200 H200       -1.5200  -25.5981  -45.8147 H         1 UNK         0.3000 
    201 H201       -1.2897  -28.3830  -46.4962 H         1 UNK         0.0600 
    202 H202        0.6019  -26.7175  -46.5466 H         1 UNK         0.0600 
    203 H203       -0.1673  -25.9065  -47.9111 H         1 UNK         0.0600 
    204 H204        0.4144  -27.5557  -48.0792 H         1 UNK         0.0600 
    205 H205       -3.5365  -26.0704  -47.4904 H         1 UNK         0.3000 
    206 H206       -5.1861  -25.9457  -48.9038 H         1 UNK         0.0600 
    207 H207       -5.5396  -28.3998  -48.5517 H         1 UNK         0.0600 
    208 H208       -6.0440  -27.8721  -50.1483 H         1 UNK         0.0600 
    209 H209       -4.5323  -28.7425  -49.9592 H         1 UNK         0.0600 
    210 H210       -2.1493  -25.6273  -49.8092 H         1 UNK         0.3000 
    211 H211       -2.2298  -25.4531  -52.6818 H         1 UNK         0.0600 
    212 H212       -0.4323  -24.0824  -50.6049 H         1 UNK         0.0600 
    213 H213       -0.1560  -24.0702  -52.3428 H         1 UNK         0.0600 
    214 H214       -0.0882  -25.5854  -51.4554 H         1 UNK         0.0600 
    215 H215       -2.8368  -23.1712  -50.0133 H         1 UNK         0.3000 
    216 H216       -3.8263  -21.0763  -51.8740 H         1 UNK         0.0600 
    217 H217       -3.7592  -19.6136  -49.9470 H         1 UNK         0.0600 
    218 H218       -2.2330  -20.4767  -50.0400 H         1 UNK         0.0600 
    219 H219       -3.4502  -20.9444  -48.8471 H         1 UNK         0.0600 
    220 H220       -5.1779  -23.7689  -51.0558 H         1 UNK         0.3000 
    221 H221       -7.9057  -22.5923  -50.6932 H         1 UNK         0.0600 
    222 H222       -7.1166  -25.5494  -50.5744 H         1 UNK         0.0600 
    223 H223       -7.3839  -24.5315  -49.1587 H         1 UNK         0.0600 
    224 H224       -8.6983  -24.8535  -50.2791 H         1 UNK         0.0600 
    225 H225       -5.7687  -24.6872  -52.7026 H         1 UNK         0.3000 
    226 H226       -7.4744  -24.8331  -54.9782 H         1 UNK         0.0600 
    227 H227       -5.3853  -25.6092  -56.1172 H         1 UNK         0.0600 
    228 H228       -4.4358  -25.1449  -54.7098 H         1 UNK         0.0600 
    229 H229       -5.6329  -26.4297  -54.5827 H         1 UNK         0.0600 
    230 H230       -4.6106  -22.7222  -54.2987 H         1 UNK         0.3000 
    231 H231       -5.2530  -20.9112  -56.5324 H         1 UNK         0.0600 
    232 H232       -3.2138  -19.7235  -55.7412 H         1 UNK         0.0600 
    233 H233       -2.8727  -21.4341  -55.9607 H         1 UNK         0.0600 
    234 H234       -3.1078  -20.7806  -54.3418 H         1 UNK         0.0600 
    235 H235       -5.8317  -18.6914  -56.2055 H         1 UNK         0.3000 
    236 H236       -7.6707  -18.2169  -54.0270 H         1 UNK         0.0600 
    237 H237       -6.6480  -16.3651  -56.2455 H         1 UNK         0.0600 
    238 H238       -8.1067  -17.3541  -56.3015 H         1 UNK         0.0600 
    239 H239       -7.9934  -16.0208  -55.1647 H         1 UNK         0.0600 
    240 H240       -4.4417  -16.9826  -54.8883 H         1 UNK         0.3000 
    241 H241       -2.8705  -15.8403  -53.8690 H         1 UNK         0.0600 
    242 H242       -5.2393  -12.9095  -53.1912 H         1 UNK         0.3800 
    243 H243       -5.5134  -14.3060  -54.1994 H         1 UNK         0.3800 
    244 H244       -3.9626  -17.0148  -51.2700 H         1 UNK         0.0800 
    245 H245       -2.3991  -16.2635  -51.4321 H         1 UNK         0.0800 
    246 H246       -0.3684  -18.5489  -53.7014 H         1 UNK         0.0800 
    247 H247       -0.6998  -16.8967  -53.2687 H         1 UNK         0.0800 
@<TRIPOS>BOND
     1    1    2 1    
     2    1  127 1    
     3    1  128 1    
     4    1  129 1    
     5    2    3 2    
     6    2    4 am   BACKBONE|DICT|INTERRES
     7    4    5 1    
     8    4  130 1    
     9    5    6 1    
    10    5   65 1    
    11    5  131 1    
    12    6    7 1    
    13    6  132 1    
    14    6  133 1    
    15    7    8 1    
    16    8    9 1    
    17    8  134 1    
    18    8  135 1    
    19    9   10 ar   
    20    9   14 ar   
    21   10   11 ar   
    22   10  136 1    
    23   11   12 ar   
    24   11  126 1    
    25   12   13 ar   
    26   12  137 1    
    27   13   14 ar   
    28   13   15 1    
    29   14  138 1    
    30   15   16 1    
    31   15  139 1    
    32   15  140 1    
    33   16   17 1    
    34   17   18 1    
    35   17  141 1    
    36   17  142 1    
    37   18   19 1    
    38   18   67 1    
    39   18  143 1    
    40   19   20 am   BACKBONE|DICT|INTERRES
    41   19  144 1    
    42   20   21 2    
    43   20   22 1    
    44   22   23 1    
    45   22   24 1    
    46   22  145 1    
    47   23  146 1    
    48   23  147 1    
    49   23  148 1    
    50   24   25 am   BACKBONE|DICT|INTERRES
    51   24  149 1    
    52   25   26 2    
    53   25   27 1    
    54   27   28 1    
    55   27   29 1    
    56   27  150 1    
    57   28  151 1    
    58   28  152 1    
    59   28  153 1    
    60   29   30 am   BACKBONE|DICT|INTERRES
    61   29  154 1    
    62   30   31 2    
    63   30   32 1    
    64   32   33 1    
    65   32   34 1    
    66   32  155 1    
    67   33  156 1    
    68   33  157 1    
    69   33  158 1    
    70   34   35 am   BACKBONE|DICT|INTERRES
    71   34  159 1    
    72   35   36 2    
    73   35   37 1    
    74   37   38 1    
    75   37   39 1    
    76   37  160 1    
    77   38  161 1    
    78   38  162 1    
    79   38  163 1    
    80   39   40 am   BACKBONE|DICT|INTERRES
    81   39  164 1    
    82   40   41 2    
    83   40   42 1    
    84   42   43 1    
    85   42   44 1    
    86   42  165 1    
    87   43  166 1    
    88   43  167 1    
    89   43  168 1    
    90   44   45 am   BACKBONE|DICT|INTERRES
    91   44  169 1    
    92   45   46 2    
    93   45   47 1    
    94   47   48 1    
    95   47   49 1    
    96   47  170 1    
    97   48  171 1    
    98   48  172 1    
    99   48  173 1    
   100   49   50 am   BACKBONE|DICT|INTERRES
   101   49  174 1    
   102   50   51 2    
   103   50   52 1    
   104   52   53 1    
   105   52   54 1    
   106   52  175 1    
   107   53  176 1    
   108   53  177 1    
   109   53  178 1    
   110   54   55 am   BACKBONE|DICT|INTERRES
   111   54  179 1    
   112   55   56 2    
   113   55   57 1    
   114   57   58 1    
   115   57   59 1    
   116   57  180 1    
   117   58  181 1    
   118   58  182 1    
   119   58  183 1    
   120   59   60 am   BACKBONE|DICT|INTERRES
   121   59  184 1    
   122   60   61 2    
   123   60   62 1    
   124   62   63 1    
   125   62   64 1    
   126   62  185 1    
   127   63  186 1    
   128   63  187 1    
   129   63  188 1    
   130   64   65 am   BACKBONE|DICT|INTERRES
   131   64  189 1    
   132   65   66 2    
   133   67   68 2    
   134   67   69 am   BACKBONE|DICT|INTERRES
   135   69   70 1    
   136   69  190 1    
   137   70   71 1    
   138   70   72 1    
   139   70  191 1    
   140   71  192 1    
   141   71  193 1    
   142   71  194 1    
   143   72   73 2    
   144   72   74 am   BACKBONE|DICT|INTERRES
   145   74   75 1    
   146   74  195 1    
   147   75   76 1    
   148   75   77 1    
   149   75  196 1    
   150   76  197 1    
   151   76  198 1    
   152   76  199 1    
   153   77   78 2    
   154   77   79 am   BACKBONE|DICT|INTERRES
   155   79   80 1    
   156   79  200 1    
   157   80   81 1    
   158   80   82 1    
   159   80  201 1    
   160   81  202 1    
   161   81  203 1    
   162   81  204 1    
   163   82   83 2    
   164   82   84 am   BACKBONE|DICT|INTERRES
   165   84   85 1    
   166   84  205 1    
   167   85   86 1    
   168   85   87 1    
   169   85  206 1    
   170   86  207 1    
   171   86  208 1    
   172   86  209 1    
   173   87   88 2    
   174   87   89 am   BACKBONE|DICT|INTERRES
   175   89   90 1    
   176   89  210 1    
   177   90   91 1    
   178   90   92 1    
   179   90  211 1    
   180   91  212 1    
   181   91  213 1    
   182   91  214 1    
   183   92   93 2    
   184   92   94 am   BACKBONE|DICT|INTERRES
   185   94   95 1    
   186   94  215 1    
   187   95   96 1    
   188   95   97 1    
   189   95  216 1    
   190   96  217 1    
   191   96  218 1    
   192   96  219 1    
   193   97   98 2    
   194   97   99 am   BACKBONE|DICT|INTERRES
   195   99  100 1    
   196   99  220 1    
   197  100  101 1    
   198  100  102 1    
   199  100  221 1    
   200  101  222 1    
   201  101  223 1    
   202  101  224 1    
   203  102  103 2    
   204  102  104 am   BACKBONE|DICT|INTERRES
   205  104  105 1    
   206  104  225 1    
   207  105  106 1    
   208  105  107 1    
   209  105  226 1    
   210  106  227 1    
   211  106  228 1    
   212  106  229 1    
   213  107  108 2    
   214  107  109 am   BACKBONE|DICT|INTERRES
   215  109  110 1    
   216  109  230 1    
   217  110  111 1    
   218  110  112 1    
   219  110  231 1    
   220  111  232 1    
   221  111  233 1    
   222  111  234 1    
   223  112  113 2    
   224  112  114 am   BACKBONE|DICT|INTERRES
   225  114  115 1    
   226  114  235 1    
   227  115  116 1    
   228  115  117 1    
   229  115  236 1    
   230  116  237 1    
   231  116  238 1    
   232  116  239 1    
   233  117  118 2    
   234  117  119 am   BACKBONE|DICT|INTERRES
   235  119  120 1    
   236  119  240 1    
   237  120  121 1    
   238  120  124 1    
   239  120  241 1    
   240  121  122 am   BACKBONE|DICT|INTERRES
   241  121  123 2    
   242  122  242 1    
   243  122  243 1    
   244  124  125 1    
   245  124  244 1    
   246  124  245 1    
   247  125  126 1    
   248  126  246 1    
   249  126  247 1    
@<TRIPOS>SUBSTRUCTURE
     1 UNK         1 GROUP             0       ****    0 ROOT    
