@<TRIPOS>MOLECULE
3R540
247   249    1
SMALL
USER_CHARGES


@<TRIPOS>ATOM
      1 CA          5.0587   -8.9505  -48.7577 C.3       0 UNK        -0.1800 
      2 C           5.4353   -9.9863  -49.8154 C.2       0 UNK         0.5000 
      3 O           5.5638   -9.6351  -50.9861 O.2       0 UNK        -0.5000 
      4 N           5.6212  -11.2661  -49.4626 N.am      1 UNK        -0.5000 
      5 CA          5.4743  -11.8503  -48.1221 C.3       1 UNK         0.1400 
      6 C6          6.3603  -13.1111  -47.9415 C.3       23 UNK        -0.0398 
      7 S7          6.0251  -14.4392  -49.1511 S.3       23 UNK        -0.2404 
      8 C8          4.9618  -15.5455  -48.1703 C.3       23 UNK        -0.0205 
      9 C9          4.1351  -16.4409  -49.0750 C.ar      23 UNK        -0.0193 
     10 C10         3.0663  -15.9034  -49.7968 C.ar      23 UNK        -0.1150 
     11 C11         2.2973  -16.7098  -50.6392 C.ar      23 UNK        -0.0193 
     12 C12         2.6090  -18.0684  -50.7578 C.ar      23 UNK        -0.1150 
     13 C13         3.6745  -18.6183  -50.0378 C.ar      23 UNK        -0.0193 
     14 C14         4.4337  -17.7994  -49.1974 C.ar      23 UNK        -0.1150 
     15 C15         4.0295  -20.0901  -50.1803 C.3       23 UNK        -0.0205 
     16 S16         3.4087  -21.0728  -48.7811 S.3       23 UNK        -0.2404 
     17 C17         1.6550  -21.2842  -49.2333 C.3       23 UNK        -0.0398 
     18 CA          0.9959  -22.4126  -48.4070 C.3       11 UNK         0.1400 
     19 N           0.8668  -22.0579  -46.9922 N.am      11 UNK        -0.5000 
     20 C           0.6922  -22.9530  -46.0121 C.2       10 UNK         0.5000 
     21 O           0.6977  -24.1710  -46.1908 O.2       10 UNK        -0.5000 
     22 CA          0.4334  -22.3990  -44.5999 C.3       10 UNK         0.1400 
     23 CB          1.7593  -22.1066  -43.8822 C.3       10 UNK        -0.1800 
     24 N          -0.4142  -21.2034  -44.5961 N.am      10 UNK        -0.5000 
     25 C          -1.6845  -21.1789  -45.0266 C.2       9 UNK         0.5000 
     26 O          -2.2749  -22.1667  -45.4584 O.2       9 UNK        -0.5000 
     27 CA         -2.4184  -19.8287  -45.0027 C.3       9 UNK         0.1400 
     28 CB         -2.9783  -19.5468  -43.6009 C.3       9 UNK        -0.1800 
     29 N          -1.5829  -18.7115  -45.4383 N.am      9 UNK        -0.5000 
     30 C          -1.0725  -18.5677  -46.6705 C.2       8 UNK         0.5000 
     31 O          -1.2584  -19.3661  -47.5905 O.2       8 UNK        -0.5000 
     32 CA         -0.1533  -17.3514  -46.8903 C.3       8 UNK         0.1400 
     33 CB         -0.9654  -16.0484  -46.9446 C.3       8 UNK        -0.1800 
     34 N           0.8683  -17.2337  -45.8515 N.am      8 UNK        -0.5000 
     35 C           1.7803  -18.1730  -45.5632 C.2       7 UNK         0.5000 
     36 O           1.8938  -19.2387  -46.1689 O.2       7 UNK        -0.5000 
     37 CA          2.6727  -17.8922  -44.3444 C.3       7 UNK         0.1400 
     38 CB          3.8133  -16.9291  -44.7105 C.3       7 UNK        -0.1800 
     39 N           1.8986  -17.3498  -43.2252 N.am      7 UNK        -0.5000 
     40 C           1.0116  -18.0593  -42.5114 C.2       6 UNK         0.5000 
     41 O           0.7727  -19.2496  -42.7086 O.2       6 UNK        -0.5000 
     42 CA          0.2325  -17.3082  -41.4160 C.3       6 UNK         0.1400 
     43 CB          1.0747  -17.1864  -40.1373 C.3       6 UNK        -0.1800 
     44 N          -0.2027  -15.9779  -41.8392 N.am      6 UNK        -0.5000 
     45 C          -1.0845  -15.7440  -42.8213 C.2       5 UNK         0.5000 
     46 O          -1.6590  -16.6313  -43.4488 O.2       5 UNK        -0.5000 
     47 CA         -1.3347  -14.2719  -43.1974 C.3       5 UNK         0.1400 
     48 CB         -2.4990  -13.6974  -42.3773 C.3       5 UNK        -0.1800 
     49 N          -0.1609  -13.4099  -43.0392 N.am      5 UNK        -0.5000 
     50 C           1.0175  -13.5903  -43.6491 C.2       4 UNK         0.5000 
     51 O           1.2672  -14.5409  -44.3946 O.2       4 UNK        -0.5000 
     52 CA          2.0773  -12.5064  -43.3956 C.3       4 UNK         0.1400 
     53 CB          3.4979  -13.0940  -43.3326 C.3       4 UNK        -0.1800 
     54 N           1.9997  -11.5174  -44.4649 N.am      4 UNK        -0.5000 
     55 C           1.0877  -10.5350  -44.5294 C.2       3 UNK         0.5000 
     56 O           0.3150  -10.2667  -43.6081 O.2       3 UNK        -0.5000 
     57 CA          1.0004   -9.7281  -45.8430 C.3       3 UNK         0.1400 
     58 CB          1.8218   -8.4343  -45.7355 C.3       3 UNK        -0.1800 
     59 N           1.4538  -10.4786  -47.0144 N.am      3 UNK        -0.5000 
     60 C           0.8752  -11.5867  -47.4982 C.2       2 UNK         0.5000 
     61 O          -0.2080  -12.0160  -47.1009 O.2       2 UNK        -0.5000 
     62 CA          1.6458  -12.3650  -48.5867 C.3       2 UNK         0.1400 
     63 CB          0.9781  -12.1782  -49.9577 C.3       2 UNK        -0.1800 
     64 N           3.0746  -12.0377  -48.7121 N.am      2 UNK        -0.5000 
     65 C           4.0035  -12.1409  -47.7479 C.2       1 UNK         0.5000 
     66 O           3.7381  -12.4444  -46.5871 O.2       1 UNK        -0.5000 
     67 C          -0.3604  -22.8443  -49.0052 C.2       11 UNK         0.5000 
     68 O          -0.4040  -23.8105  -49.7678 O.2       11 UNK        -0.5000 
     69 N          -1.4466  -22.1481  -48.6377 N.am      12 UNK        -0.5000 
     70 CA         -2.8036  -22.4182  -49.1231 C.3       12 UNK         0.1400 
     71 CB         -3.7004  -21.2159  -48.7978 C.3       12 UNK        -0.1800 
     72 C          -3.4082  -23.7265  -48.5725 C.2       12 UNK         0.5000 
     73 O          -4.2919  -24.3079  -49.2060 O.2       12 UNK        -0.5000 
     74 N          -2.9146  -24.1923  -47.4157 N.am      13 UNK        -0.5000 
     75 CA         -3.3111  -25.4309  -46.7359 C.3       13 UNK         0.1400 
     76 CB         -2.5224  -25.5711  -45.4261 C.3       13 UNK        -0.1800 
     77 C          -3.1635  -26.7077  -47.5879 C.2       13 UNK         0.5000 
     78 O          -3.8558  -27.6899  -47.3187 O.2       13 UNK        -0.5000 
     79 N          -2.3260  -26.6560  -48.6345 N.am      14 UNK        -0.5000 
     80 CA         -2.1875  -27.6864  -49.6668 C.3       14 UNK         0.1400 
     81 CB         -1.0535  -27.2823  -50.6198 C.3       14 UNK        -0.1800 
     82 C          -3.4878  -27.9671  -50.4536 C.2       14 UNK         0.5000 
     83 O          -3.6437  -29.0723  -50.9741 O.2       14 UNK        -0.5000 
     84 N          -4.4055  -26.9910  -50.4943 N.am      15 UNK        -0.5000 
     85 CA         -5.7691  -27.1339  -51.0027 C.3       15 UNK         0.1400 
     86 CB         -5.9138  -26.3745  -52.3312 C.3       15 UNK        -0.1800 
     87 C          -6.7750  -26.6667  -49.9354 C.2       15 UNK         0.5000 
     88 O          -7.7522  -25.9908  -50.2600 O.2       15 UNK        -0.5000 
     89 N          -6.5025  -27.0126  -48.6667 N.am      16 UNK        -0.5000 
     90 CA         -7.3423  -26.7878  -47.4815 C.3       16 UNK         0.1400 
     91 CB         -8.5898  -27.6934  -47.5430 C.3       16 UNK        -0.1800 
     92 C          -7.7038  -25.3078  -47.2213 C.2       16 UNK         0.5000 
     93 O          -8.7507  -25.0270  -46.6364 O.2       16 UNK        -0.5000 
     94 N          -6.8373  -24.3917  -47.6779 N.am      17 UNK        -0.5000 
     95 CA         -6.9794  -22.9331  -47.6534 C.3       17 UNK         0.1400 
     96 CB         -7.0945  -22.3936  -46.2128 C.3       17 UNK        -0.1800 
     97 C          -8.0701  -22.3843  -48.5988 C.2       17 UNK         0.5000 
     98 O          -8.3994  -21.2005  -48.5112 O.2       17 UNK        -0.5000 
     99 N          -8.5935  -23.2248  -49.5031 N.am      18 UNK        -0.5000 
    100 CA        -9.5867  -22.8428  -50.5080 C.3       18 UNK         0.1400 
    101 CB       -10.5143  -24.0394  -50.7718 C.3       18 UNK        -0.1800 
    102 C         -8.9389  -22.3668  -51.8220 C.2       18 UNK         0.5000 
    103 O         -9.6002  -21.6791  -52.6014 O.2       18 UNK        -0.5000 
    104 N         -7.6738  -22.7381  -52.0530 N.am      19 UNK        -0.5000 
    105 CA        -6.8914  -22.4181  -53.2438 C.3       19 UNK         0.1400 
    106 CB        -7.3612  -23.2777  -54.4404 C.3       19 UNK        -0.1800 
    107 C         -5.3962  -22.5779  -52.9109 C.2       19 UNK         0.5000 
    108 O         -4.9949  -22.2768  -51.7867 O.2       19 UNK        -0.5000 
    109 N         -4.6027  -23.0490  -53.8834 N.am      20 UNK        -0.5000 
    110 CA        -3.1678  -23.3734  -53.8496 C.3       20 UNK         0.1400 
    111 CB        -2.8507  -24.4747  -52.8188 C.3       20 UNK        -0.1800 
    112 C         -2.2055  -22.1809  -53.6885 C.2       20 UNK         0.5000 
    113 O         -1.1100  -22.2282  -54.2502 O.2       20 UNK        -0.5000 
    114 N         -2.6045  -21.1406  -52.9524 N.am      21 UNK        -0.5000 
    115 CA        -1.8052  -19.9483  -52.6947 C.3       21 UNK         0.1400 
    116 CB        -0.8077  -20.2252  -51.5539 C.3       21 UNK        -0.1800 
    117 C         -2.7078  -18.7430  -52.3925 C.2       21 UNK         0.5000 
    118 O         -3.9260  -18.8088  -52.5717 O.2       21 UNK        -0.5000 
    119 N         -2.0674  -17.6574  -51.9497 N.am      22 UNK        -0.5000 
    120 CA        -2.6674  -16.3682  -51.5814 C.3       22 UNK         0.1400 
    121 C         -3.5726  -16.3826  -50.3124 C.2       22 UNK         0.5000 
    122 N         -3.5282  -17.4085  -49.4708 N.am      22 UNK        -0.7600 
    123 O         -4.3389  -15.4476  -50.0975 O.2       22 UNK        -0.5000 
    124 C124       -1.5760  -15.2666  -51.5001 C.3       23 UNK        -0.0398 
    125 S125       -0.2348  -15.6650  -50.3212 S.3       23 UNK        -0.2404 
    126 C126        1.1435  -16.1029  -51.4246 C.3       23 UNK        -0.0205 
    127 H127        4.9002   -7.9755  -49.2190 H         1 UNK         0.0600 
    128 H128        4.1387   -9.2240  -48.2436 H         1 UNK         0.0600 
    129 H129        5.8559   -8.8423  -48.0224 H         1 UNK         0.0600 
    130 H130        5.8775  -11.9304  -50.1801 H         1 UNK         0.3000 
    131 H131        5.8303  -11.1223  -47.3914 H         1 UNK         0.0600 
    132 H132        7.4080  -12.8280  -48.0504 H         1 UNK         0.0800 
    133 H133        6.2751  -13.5052  -46.9268 H         1 UNK         0.0800 
    134 H134        5.5850  -16.1371  -47.4980 H         1 UNK         0.0800 
    135 H135        4.2853  -14.9731  -47.5357 H         1 UNK         0.0800 
    136 H136        2.8374  -14.8517  -49.7093 H         1 UNK         0.1150 
    137 H137        2.0347  -18.6986  -51.4193 H         1 UNK         0.1150 
    138 H138        5.2594  -18.2223  -48.6424 H         1 UNK         0.1150 
    139 H139        3.6511  -20.4942  -51.1205 H         1 UNK         0.0800 
    140 H140        5.1146  -20.1937  -50.2240 H         1 UNK         0.0800 
    141 H141        1.6133  -21.5187  -50.2978 H         1 UNK         0.0800 
    142 H142        1.1302  -20.3368  -49.0947 H         1 UNK         0.0800 
    143 H143        1.6482  -23.2866  -48.4736 H         1 UNK         0.0600 
    144 H144        0.9143  -21.0718  -46.7586 H         1 UNK         0.3000 
    145 H145       -0.0902  -23.1746  -44.0370 H         1 UNK         0.0600 
    146 H146        1.5915  -21.8349  -42.8402 H         1 UNK         0.0600 
    147 H147        2.4087  -22.9829  -43.8868 H         1 UNK         0.0600 
    148 H148        2.3040  -21.2915  -44.3592 H         1 UNK         0.0600 
    149 H149       -0.0056  -20.3593  -44.2082 H         1 UNK         0.3000 
    150 H150       -3.2609  -19.8982  -45.6932 H         1 UNK         0.0600 
    151 H151       -3.6095  -20.3678  -43.2587 H         1 UNK         0.0600 
    152 H152       -3.5891  -18.6440  -43.5955 H         1 UNK         0.0600 
    153 H153       -2.1807  -19.4161  -42.8685 H         1 UNK         0.0600 
    154 H154       -1.4079  -17.9877  -44.7458 H         1 UNK         0.3000 
    155 H155        0.3576  -17.4836  -47.8464 H         1 UNK         0.0600 
    156 H156       -0.3240  -15.1907  -47.1498 H         1 UNK         0.0600 
    157 H157       -1.4897  -15.8568  -46.0100 H         1 UNK         0.0600 
    158 H158       -1.7169  -16.0887  -47.7325 H         1 UNK         0.0600 
    159 H159        0.8683  -16.3801  -45.3034 H         1 UNK         0.3000 
    160 H160        3.1169  -18.8378  -44.0262 H         1 UNK         0.0600 
    161 H161        3.4378  -15.9711  -45.0711 H         1 UNK         0.0600 
    162 H162        4.4357  -17.3521  -45.4999 H         1 UNK         0.0600 
    163 H163        4.4594  -16.7361  -43.8541 H         1 UNK         0.0600 
    164 H164        1.9774  -16.3566  -43.0594 H         1 UNK         0.3000 
    165 H165       -0.6587  -17.8946  -41.1823 H         1 UNK         0.0600 
    166 H166        1.9684  -16.5821  -40.2976 H         1 UNK         0.0600 
    167 H167        0.5014  -16.7310  -39.3296 H         1 UNK         0.0600 
    168 H168        1.3999  -18.1680  -39.7900 H         1 UNK         0.0600 
    169 H169        0.2212  -15.1875  -41.3769 H         1 UNK         0.3000 
    170 H170       -1.6163  -14.2452  -44.2515 H         1 UNK         0.0600 
    171 H171       -3.3969  -14.3059  -42.4947 H         1 UNK         0.0600 
    172 H172       -2.2631  -13.6616  -41.3130 H         1 UNK         0.0600 
    173 H173       -2.7487  -12.6868  -42.7009 H         1 UNK         0.0600 
    174 H174       -0.2907  -12.5738  -42.4863 H         1 UNK         0.3000 
    175 H175        1.8750  -12.0248  -42.4365 H         1 UNK         0.0600 
    176 H176        3.5847  -13.8119  -42.5164 H         1 UNK         0.0600 
    177 H177        4.2390  -12.3134  -43.1612 H         1 UNK         0.0600 
    178 H178        3.7691  -13.6136  -44.2516 H         1 UNK         0.0600 
    179 H179        2.5717  -11.7157  -45.2818 H         1 UNK         0.3000 
    180 H180       -0.0470   -9.4610  -45.9979 H         1 UNK         0.0600 
    181 H181        2.8839   -8.6420  -45.5986 H         1 UNK         0.0600 
    182 H182        1.4930   -7.8326  -44.8871 H         1 UNK         0.0600 
    183 H183        1.7114   -7.8204  -46.6296 H         1 UNK         0.0600 
    184 H184        2.3383  -10.2026  -47.4106 H         1 UNK         0.3000 
    185 H185        1.5770  -13.4203  -48.3151 H         1 UNK         0.0600 
    186 H186        1.4414  -12.8130  -50.7131 H         1 UNK         0.0600 
    187 H187       -0.0788  -12.4459  -49.9188 H         1 UNK         0.0600 
    188 H188        1.0436  -11.1443  -50.2987 H         1 UNK         0.0600 
    189 H189        3.3902  -11.7780  -49.6357 H         1 UNK         0.3000 
    190 H190       -1.3358  -21.3415  -48.0310 H         1 UNK         0.3000 
    191 H191       -2.7533  -22.5124  -50.2089 H         1 UNK         0.0600 
    192 H192       -3.2590  -20.2862  -49.1520 H         1 UNK         0.0600 
    193 H193       -4.6670  -21.3057  -49.2921 H         1 UNK         0.0600 
    194 H194       -3.8752  -21.1194  -47.7261 H         1 UNK         0.0600 
    195 H195       -2.2678  -23.5961  -46.9100 H         1 UNK         0.3000 
    196 H196       -4.3680  -25.3346  -46.4825 H         1 UNK         0.0600 
    197 H197       -2.8229  -26.4676  -44.8821 H         1 UNK         0.0600 
    198 H198       -2.6947  -24.7220  -44.7652 H         1 UNK         0.0600 
    199 H199       -1.4507  -25.6442  -45.6099 H         1 UNK         0.0600 
    200 H200       -1.8045  -25.8023  -48.7815 H         1 UNK         0.3000 
    201 H201       -1.9028  -28.6158  -49.1695 H         1 UNK         0.0600 
    202 H202       -0.1061  -27.1900  -50.0885 H         1 UNK         0.0600 
    203 H203       -1.2585  -26.3268  -51.1022 H         1 UNK         0.0600 
    204 H204       -0.9149  -28.0263  -51.4054 H         1 UNK         0.0600 
    205 H205       -4.2019  -26.1045  -50.0406 H         1 UNK         0.3000 
    206 H206       -5.9994  -28.1845  -51.1894 H         1 UNK         0.0600 
    207 H207       -5.2367  -26.7717  -53.0867 H         1 UNK         0.0600 
    208 H208       -6.9252  -26.4610  -52.7299 H         1 UNK         0.0600 
    209 H209       -5.6985  -25.3157  -52.2011 H         1 UNK         0.0600 
    210 H210       -5.6436  -27.5212  -48.4885 H         1 UNK         0.3000 
    211 H211       -6.7462  -27.1044  -46.6245 H         1 UNK         0.0600 
    212 H212       -9.2637  -27.3960  -48.3472 H         1 UNK         0.0600 
    213 H213       -9.1538  -27.6524  -46.6104 H         1 UNK         0.0600 
    214 H214       -8.3131  -28.7351  -47.7052 H         1 UNK         0.0600 
    215 H215       -6.0259  -24.7204  -48.1902 H         1 UNK         0.3000 
    216 H216       -6.0449  -22.5507  -48.0520 H         1 UNK         0.0600 
    217 H217       -6.2984  -22.7871  -45.5805 H         1 UNK         0.0600 
    218 H218       -8.0494  -22.6514  -45.7549 H         1 UNK         0.0600 
    219 H219       -7.0107  -21.3064  -46.1960 H         1 UNK         0.0600 
    220 H220       -8.2726  -24.1879  -49.5349 H         1 UNK         0.3000 
    221 H221      -10.2001  -22.0244  -50.1251 H         1 UNK         0.0600 
    222 H222       -9.9768  -24.8779  -51.2156 H         1 UNK         0.0600 
    223 H223      -10.9798  -24.3892  -49.8502 H         1 UNK         0.0600 
    224 H224      -11.3163  -23.7662  -51.4586 H         1 UNK         0.0600 
    225 H225       -7.1738  -23.2439  -51.3344 H         1 UNK         0.3000 
    226 H226       -7.0447  -21.3647  -53.4864 H         1 UNK         0.0600 
    227 H227       -8.4287  -23.1562  -54.6236 H         1 UNK         0.0600 
    228 H228       -6.8556  -22.9913  -55.3630 H         1 UNK         0.0600 
    229 H229       -7.1770  -24.3390  -54.2700 H         1 UNK         0.0600 
    230 H230       -5.0441  -23.2321  -54.7736 H         1 UNK         0.3000 
    231 H231       -2.9483  -23.7913  -54.8334 H         1 UNK         0.0600 
    232 H232       -1.7770  -24.6575  -52.7626 H         1 UNK         0.0600 
    233 H233       -3.3168  -25.4178  -53.0971 H         1 UNK         0.0600 
    234 H234       -3.1861  -24.2164  -51.8155 H         1 UNK         0.0600 
    235 H235       -3.5269  -21.1629  -52.5268 H         1 UNK         0.3000 
    236 H236       -1.2463  -19.6993  -53.5992 H         1 UNK         0.0600 
    237 H237       -0.0756  -19.4255  -51.4636 H         1 UNK         0.0600 
    238 H238       -1.3155  -20.3059  -50.5950 H         1 UNK         0.0600 
    239 H239       -0.2546  -21.1484  -51.7236 H         1 UNK         0.0600 
    240 H240       -1.0724  -17.7151  -51.7988 H         1 UNK         0.3000 
    241 H241       -3.3337  -16.0948  -52.4017 H         1 UNK         0.0600 
    242 H242       -2.8861  -18.1686  -49.6200 H         1 UNK         0.3800 
    243 H243       -4.1316  -17.4079  -48.6651 H         1 UNK         0.3800 
    244 H244       -1.1458  -15.1030  -52.4889 H         1 UNK         0.0800 
    245 H245       -2.0145  -14.3090  -51.2141 H         1 UNK         0.0800 
    246 H246        1.4874  -15.2082  -51.9455 H         1 UNK         0.0800 
    247 H247        0.7992  -16.7959  -52.1930 H         1 UNK         0.0800 
@<TRIPOS>BOND
     1    1    2 1    
     2    1  127 1    
     3    1  128 1    
     4    1  129 1    
     5    2    3 2    
     6    2    4 am   BACKBONE|DICT|INTERRES
     7    4    5 1    
     8    4  130 1    
     9    5    6 1    
    10    5   65 1    
    11    5  131 1    
    12    6    7 1    
    13    6  132 1    
    14    6  133 1    
    15    7    8 1    
    16    8    9 1    
    17    8  134 1    
    18    8  135 1    
    19    9   10 ar   
    20    9   14 ar   
    21   10   11 ar   
    22   10  136 1    
    23   11   12 ar   
    24   11  126 1    
    25   12   13 ar   
    26   12  137 1    
    27   13   14 ar   
    28   13   15 1    
    29   14  138 1    
    30   15   16 1    
    31   15  139 1    
    32   15  140 1    
    33   16   17 1    
    34   17   18 1    
    35   17  141 1    
    36   17  142 1    
    37   18   19 1    
    38   18   67 1    
    39   18  143 1    
    40   19   20 am   BACKBONE|DICT|INTERRES
    41   19  144 1    
    42   20   21 2    
    43   20   22 1    
    44   22   23 1    
    45   22   24 1    
    46   22  145 1    
    47   23  146 1    
    48   23  147 1    
    49   23  148 1    
    50   24   25 am   BACKBONE|DICT|INTERRES
    51   24  149 1    
    52   25   26 2    
    53   25   27 1    
    54   27   28 1    
    55   27   29 1    
    56   27  150 1    
    57   28  151 1    
    58   28  152 1    
    59   28  153 1    
    60   29   30 am   BACKBONE|DICT|INTERRES
    61   29  154 1    
    62   30   31 2    
    63   30   32 1    
    64   32   33 1    
    65   32   34 1    
    66   32  155 1    
    67   33  156 1    
    68   33  157 1    
    69   33  158 1    
    70   34   35 am   BACKBONE|DICT|INTERRES
    71   34  159 1    
    72   35   36 2    
    73   35   37 1    
    74   37   38 1    
    75   37   39 1    
    76   37  160 1    
    77   38  161 1    
    78   38  162 1    
    79   38  163 1    
    80   39   40 am   BACKBONE|DICT|INTERRES
    81   39  164 1    
    82   40   41 2    
    83   40   42 1    
    84   42   43 1    
    85   42   44 1    
    86   42  165 1    
    87   43  166 1    
    88   43  167 1    
    89   43  168 1    
    90   44   45 am   BACKBONE|DICT|INTERRES
    91   44  169 1    
    92   45   46 2    
    93   45   47 1    
    94   47   48 1    
    95   47   49 1    
    96   47  170 1    
    97   48  171 1    
    98   48  172 1    
    99   48  173 1    
   100   49   50 am   BACKBONE|DICT|INTERRES
   101   49  174 1    
   102   50   51 2    
   103   50   52 1    
   104   52   53 1    
   105   52   54 1    
   106   52  175 1    
   107   53  176 1    
   108   53  177 1    
   109   53  178 1    
   110   54   55 am   BACKBONE|DICT|INTERRES
   111   54  179 1    
   112   55   56 2    
   113   55   57 1    
   114   57   58 1    
   115   57   59 1    
   116   57  180 1    
   117   58  181 1    
   118   58  182 1    
   119   58  183 1    
   120   59   60 am   BACKBONE|DICT|INTERRES
   121   59  184 1    
   122   60   61 2    
   123   60   62 1    
   124   62   63 1    
   125   62   64 1    
   126   62  185 1    
   127   63  186 1    
   128   63  187 1    
   129   63  188 1    
   130   64   65 am   BACKBONE|DICT|INTERRES
   131   64  189 1    
   132   65   66 2    
   133   67   68 2    
   134   67   69 am   BACKBONE|DICT|INTERRES
   135   69   70 1    
   136   69  190 1    
   137   70   71 1    
   138   70   72 1    
   139   70  191 1    
   140   71  192 1    
   141   71  193 1    
   142   71  194 1    
   143   72   73 2    
   144   72   74 am   BACKBONE|DICT|INTERRES
   145   74   75 1    
   146   74  195 1    
   147   75   76 1    
   148   75   77 1    
   149   75  196 1    
   150   76  197 1    
   151   76  198 1    
   152   76  199 1    
   153   77   78 2    
   154   77   79 am   BACKBONE|DICT|INTERRES
   155   79   80 1    
   156   79  200 1    
   157   80   81 1    
   158   80   82 1    
   159   80  201 1    
   160   81  202 1    
   161   81  203 1    
   162   81  204 1    
   163   82   83 2    
   164   82   84 am   BACKBONE|DICT|INTERRES
   165   84   85 1    
   166   84  205 1    
   167   85   86 1    
   168   85   87 1    
   169   85  206 1    
   170   86  207 1    
   171   86  208 1    
   172   86  209 1    
   173   87   88 2    
   174   87   89 am   BACKBONE|DICT|INTERRES
   175   89   90 1    
   176   89  210 1    
   177   90   91 1    
   178   90   92 1    
   179   90  211 1    
   180   91  212 1    
   181   91  213 1    
   182   91  214 1    
   183   92   93 2    
   184   92   94 am   BACKBONE|DICT|INTERRES
   185   94   95 1    
   186   94  215 1    
   187   95   96 1    
   188   95   97 1    
   189   95  216 1    
   190   96  217 1    
   191   96  218 1    
   192   96  219 1    
   193   97   98 2    
   194   97   99 am   BACKBONE|DICT|INTERRES
   195   99  100 1    
   196   99  220 1    
   197  100  101 1    
   198  100  102 1    
   199  100  221 1    
   200  101  222 1    
   201  101  223 1    
   202  101  224 1    
   203  102  103 2    
   204  102  104 am   BACKBONE|DICT|INTERRES
   205  104  105 1    
   206  104  225 1    
   207  105  106 1    
   208  105  107 1    
   209  105  226 1    
   210  106  227 1    
   211  106  228 1    
   212  106  229 1    
   213  107  108 2    
   214  107  109 am   BACKBONE|DICT|INTERRES
   215  109  110 1    
   216  109  230 1    
   217  110  111 1    
   218  110  112 1    
   219  110  231 1    
   220  111  232 1    
   221  111  233 1    
   222  111  234 1    
   223  112  113 2    
   224  112  114 am   BACKBONE|DICT|INTERRES
   225  114  115 1    
   226  114  235 1    
   227  115  116 1    
   228  115  117 1    
   229  115  236 1    
   230  116  237 1    
   231  116  238 1    
   232  116  239 1    
   233  117  118 2    
   234  117  119 am   BACKBONE|DICT|INTERRES
   235  119  120 1    
   236  119  240 1    
   237  120  121 1    
   238  120  124 1    
   239  120  241 1    
   240  121  122 am   BACKBONE|DICT|INTERRES
   241  121  123 2    
   242  122  242 1    
   243  122  243 1    
   244  124  125 1    
   245  124  244 1    
   246  124  245 1    
   247  125  126 1    
   248  126  246 1    
   249  126  247 1    
@<TRIPOS>SUBSTRUCTURE
     1 UNK         1 GROUP             0       ****    0 ROOT    
