@<TRIPOS>MOLECULE
3R540
247   249    1
SMALL
USER_CHARGES


@<TRIPOS>ATOM
      1 CA          3.0817  -10.7201  -48.6928 C.3       0 UNK        -0.1800 
      2 C           2.2346  -11.8495  -48.1271 C.2       0 UNK         0.5000 
      3 O           1.4559  -11.6263  -47.2008 O.2       0 UNK        -0.5000 
      4 N           2.3643  -13.0579  -48.6898 N.am      1 UNK        -0.5000 
      5 CA          1.6826  -14.2859  -48.2495 C.3       1 UNK         0.1400 
      6 C6          2.2203  -15.5404  -48.9812 C.3       23 UNK        -0.0398 
      7 S7          4.0023  -15.7845  -48.6704 S.3       23 UNK        -0.2404 
      8 C8          4.5487  -16.5811  -50.2121 C.3       23 UNK        -0.0205 
      9 C9          4.1927  -18.0594  -50.2369 C.ar      23 UNK        -0.0193 
     10 C10         3.0762  -18.5115  -50.9474 C.ar      23 UNK        -0.1150 
     11 C11         2.7626  -19.8742  -50.9813 C.ar      23 UNK        -0.0193 
     12 C12         3.5759  -20.7814  -50.2970 C.ar      23 UNK        -0.1150 
     13 C13         4.6948  -20.3443  -49.5856 C.ar      23 UNK        -0.0193 
     14 C14         5.0002  -18.9807  -49.5629 C.ar      23 UNK        -0.1150 
     15 C15         5.5858  -21.3551  -48.8749 C.3       23 UNK        -0.0205 
     16 S16         5.7220  -21.0570  -47.0831 S.3       23 UNK        -0.2404 
     17 C17         4.0046  -21.2788  -46.5133 C.3       23 UNK        -0.0398 
     18 CA          3.7339  -22.6971  -45.9456 C.3       11 UNK         0.1400 
     19 N           2.8722  -22.6604  -44.7638 N.am      11 UNK        -0.5000 
     20 C           2.6835  -23.6733  -43.9068 C.2       10 UNK         0.5000 
     21 O           3.2548  -24.7608  -43.9903 O.2       10 UNK        -0.5000 
     22 CA          1.6818  -23.4311  -42.7616 C.3       10 UNK         0.1400 
     23 CB          2.3931  -22.8629  -41.5241 C.3       10 UNK        -0.1800 
     24 N           0.6005  -22.5279  -43.1534 N.am      10 UNK        -0.5000 
     25 C          -0.3909  -22.8630  -43.9895 C.2       9 UNK         0.5000 
     26 O          -0.5401  -23.9856  -44.4727 O.2       9 UNK        -0.5000 
     27 CA         -1.3482  -21.7338  -44.3992 C.3       9 UNK         0.1400 
     28 CB         -2.4042  -21.4869  -43.3129 C.3       9 UNK        -0.1800 
     29 N          -0.6618  -20.4784  -44.7181 N.am      9 UNK        -0.5000 
     30 C           0.2782  -20.3220  -45.6624 C.2       8 UNK         0.5000 
     31 O           0.6424  -21.2188  -46.4197 O.2       8 UNK        -0.5000 
     32 CA          0.9625  -18.9505  -45.7637 C.3       8 UNK         0.1400 
     33 CB          0.1671  -18.0314  -46.6921 C.3       8 UNK        -0.1800 
     34 N           1.1536  -18.3049  -44.4659 N.am      8 UNK        -0.5000 
     35 C           1.8825  -18.8119  -43.4607 C.2       7 UNK         0.5000 
     36 O           2.4793  -19.8871  -43.5223 O.2       7 UNK        -0.5000 
     37 CA          1.9021  -18.0038  -42.1543 C.3       7 UNK         0.1400 
     38 CB          2.9127  -16.8496  -42.2360 C.3       7 UNK        -0.1800 
     39 N           0.5718  -17.4790  -41.8482 N.am      7 UNK        -0.5000 
     40 C          -0.4214  -18.2149  -41.3292 C.2       6 UNK         0.5000 
     41 O          -0.2892  -19.3864  -40.9741 O.2       6 UNK        -0.5000 
     42 CA         -1.8010  -17.5385  -41.2128 C.3       6 UNK         0.1400 
     43 CB         -1.9242  -16.7883  -39.8782 C.3       6 UNK        -0.1800 
     44 N          -2.0796  -16.6136  -42.3135 N.am      6 UNK        -0.5000 
     45 C          -2.2578  -16.9844  -43.5893 C.2       5 UNK         0.5000 
     46 O          -2.2378  -18.1547  -43.9673 O.2       5 UNK        -0.5000 
     47 CA         -2.4459  -15.8587  -44.6232 C.3       5 UNK         0.1400 
     48 CB         -3.9336  -15.5296  -44.8092 C.3       5 UNK        -0.1800 
     49 N          -1.7158  -14.6301  -44.3080 N.am      5 UNK        -0.5000 
     50 C          -0.3861  -14.5239  -44.1892 C.2       4 UNK         0.5000 
     51 O           0.3748  -15.4935  -44.2159 O.2       4 UNK        -0.5000 
     52 CA          0.1731  -13.0962  -44.0131 C.3       4 UNK         0.1400 
     53 CB          1.7118  -13.0594  -44.0223 C.3       4 UNK        -0.1800 
     54 N          -0.3241  -12.1863  -45.0467 N.am      4 UNK        -0.5000 
     55 C          -1.5230  -11.5880  -45.0575 C.2       3 UNK         0.5000 
     56 O          -2.3634  -11.7336  -44.1691 O.2       3 UNK        -0.5000 
     57 CA         -1.8540  -10.7323  -46.2898 C.3       3 UNK         0.1400 
     58 CB         -1.0916   -9.3981  -46.2586 C.3       3 UNK        -0.1800 
     59 N          -1.5268  -11.4579  -47.5160 N.am      3 UNK        -0.5000 
     60 C          -2.3682  -12.2837  -48.1547 C.2       2 UNK         0.5000 
     61 O          -3.5427  -12.4509  -47.8248 O.2       2 UNK        -0.5000 
     62 CA         -1.8061  -13.0617  -49.3624 C.3       2 UNK         0.1400 
     63 CB         -2.0584  -12.2935  -50.6681 C.3       2 UNK        -0.1800 
     64 N          -0.3758  -13.3510  -49.2445 N.am      2 UNK        -0.5000 
     65 C           0.1436  -14.2059  -48.3523 C.2       1 UNK         0.5000 
     66 O          -0.5448  -14.8909  -47.6004 O.2       1 UNK        -0.5000 
     67 C           3.1876  -23.6613  -47.0210 C.2       11 UNK         0.5000 
     68 O           3.9129  -24.5658  -47.4384 O.2       11 UNK        -0.5000 
     69 N           1.9204  -23.4750  -47.4230 N.am      12 UNK        -0.5000 
     70 CA          1.2200  -24.3299  -48.3866 C.3       12 UNK         0.1400 
     71 CB          1.8027  -24.1683  -49.8053 C.3       12 UNK        -0.1800 
     72 C          -0.2980  -24.0931  -48.4628 C.2       12 UNK         0.5000 
     73 O          -0.9948  -24.9944  -48.9296 O.2       12 UNK        -0.5000 
     74 N          -0.8071  -22.9131  -48.0692 N.am      13 UNK        -0.5000 
     75 CA         -2.1737  -22.4514  -48.3717 C.3       13 UNK         0.1400 
     76 CB         -2.3457  -20.9650  -48.0162 C.3       13 UNK        -0.1800 
     77 C          -3.3178  -23.2811  -47.7584 C.2       13 UNK         0.5000 
     78 O          -4.4632  -23.1086  -48.1715 O.2       13 UNK        -0.5000 
     79 N          -3.0037  -24.1830  -46.8180 N.am      14 UNK        -0.5000 
     80 CA         -3.9257  -25.2075  -46.3238 C.3       14 UNK         0.1400 
     81 CB         -3.2946  -25.9085  -45.1120 C.3       14 UNK        -0.1800 
     82 C          -4.3141  -26.2362  -47.4091 C.2       14 UNK         0.5000 
     83 O          -5.4108  -26.7929  -47.3453 O.2       14 UNK        -0.5000 
     84 N          -3.4220  -26.4516  -48.3861 N.am      15 UNK        -0.5000 
     85 CA         -3.6480  -27.2707  -49.5746 C.3       15 UNK         0.1400 
     86 CB         -2.4908  -28.2707  -49.7268 C.3       15 UNK        -0.1800 
     87 C          -3.7643  -26.3829  -50.8249 C.2       15 UNK         0.5000 
     88 O          -4.6894  -26.5642  -51.6171 O.2       15 UNK        -0.5000 
     89 N          -2.8491  -25.4143  -50.9716 N.am      16 UNK        -0.5000 
     90 CA         -2.7523  -24.4774  -52.0946 C.3       16 UNK         0.1400 
     91 CB         -1.2902  -24.0122  -52.2280 C.3       16 UNK        -0.1800 
     92 C          -3.7344  -23.2933  -51.9681 C.2       16 UNK         0.5000 
     93 O          -3.3486  -22.1402  -52.1773 O.2       16 UNK        -0.5000 
     94 N          -4.9935  -23.5942  -51.6324 N.am      17 UNK        -0.5000 
     95 CA         -6.0882  -22.6428  -51.4484 C.3       17 UNK         0.1400 
     96 CB         -7.1365  -23.2753  -50.5146 C.3       17 UNK        -0.1800 
     97 C          -6.6903  -22.2075  -52.8016 C.2       17 UNK         0.5000 
     98 O          -7.8781  -22.4234  -53.0491 O.2       17 UNK        -0.5000 
     99 N          -5.8503  -21.6335  -53.6726 N.am      18 UNK        -0.5000 
    100 CA        -6.1902  -21.2309  -55.0410 C.3       18 UNK         0.1400 
    101 CB        -4.9040  -20.8210  -55.7741 C.3       18 UNK        -0.1800 
    102 C         -7.2350  -20.1007  -55.1087 C.2       18 UNK         0.5000 
    103 O         -8.0805  -20.0997  -56.0042 O.2       18 UNK        -0.5000 
    104 N         -7.1632  -19.1789  -54.1451 N.am      19 UNK        -0.5000 
    105 CA        -8.0829  -18.0640  -53.9349 C.3       19 UNK         0.1400 
    106 CB        -7.8446  -16.9563  -54.9819 C.3       19 UNK        -0.1800 
    107 C         -7.8684  -17.5933  -52.4900 C.2       19 UNK         0.5000 
    108 O         -7.4987  -16.4415  -52.2580 O.2       19 UNK        -0.5000 
    109 N         -7.9956  -18.5515  -51.5581 N.am      20 UNK        -0.5000 
    110 CA        -7.3906  -18.5485  -50.2220 C.3       20 UNK         0.1400 
    111 CB        -7.9577  -17.4202  -49.3309 C.3       20 UNK        -0.1800 
    112 C         -5.8509  -18.5567  -50.3529 C.2       20 UNK         0.5000 
    113 O         -5.3380  -19.2184  -51.2598 O.2       20 UNK        -0.5000 
    114 N         -5.1406  -17.8412  -49.4725 N.am      21 UNK        -0.5000 
    115 CA        -3.6914  -17.6622  -49.5425 C.3       21 UNK         0.1400 
    116 CB        -3.2060  -16.9804  -48.2551 C.3       21 UNK        -0.1800 
    117 C         -3.2949  -16.8425  -50.7933 C.2       21 UNK         0.5000 
    118 O         -3.7581  -15.7096  -50.9195 O.2       21 UNK        -0.5000 
    119 N         -2.4701  -17.3541  -51.7148 N.am      22 UNK        -0.5000 
    120 CA        -1.8746  -18.6932  -51.7903 C.3       22 UNK         0.1400 
    121 C         -1.6039  -19.0312  -53.2795 C.2       22 UNK         0.5000 
    122 N         -1.9251  -20.2389  -53.7208 N.am      22 UNK        -0.7600 
    123 O         -1.0839  -18.2092  -54.0314 O.2       22 UNK        -0.5000 
    124 C124       -0.5911  -18.7787  -50.9223 C.3       23 UNK        -0.0398 
    125 S125        0.0655  -20.4744  -50.7595 S.3       23 UNK        -0.2404 
    126 C126        1.5696  -20.3821  -51.7781 C.3       23 UNK        -0.0205 
    127 H127        3.7265  -10.3115  -47.9149 H         1 UNK         0.0600 
    128 H128        2.4403   -9.9194  -49.0608 H         1 UNK         0.0600 
    129 H129        3.7120  -11.0585  -49.5155 H         1 UNK         0.0600 
    130 H130        3.0294  -13.1798  -49.4402 H         1 UNK         0.3000 
    131 H131        1.9035  -14.4063  -47.1869 H         1 UNK         0.0600 
    132 H132        1.7015  -16.4423  -48.6548 H         1 UNK         0.0800 
    133 H133        2.0414  -15.4573  -50.0544 H         1 UNK         0.0800 
    134 H134        4.1277  -16.0625  -51.0747 H         1 UNK         0.0800 
    135 H135        5.6310  -16.4717  -50.2955 H         1 UNK         0.0800 
    136 H136        2.4613  -17.8034  -51.4834 H         1 UNK         0.1150 
    137 H137        3.3483  -21.8352  -50.3316 H         1 UNK         0.1150 
    138 H138        5.8680  -18.6360  -49.0180 H         1 UNK         0.1150 
    139 H139        5.2291  -22.3735  -49.0372 H         1 UNK         0.0800 
    140 H140        6.5834  -21.3090  -49.3132 H         1 UNK         0.0800 
    141 H141        3.2964  -20.9998  -47.2952 H         1 UNK         0.0800 
    142 H142        3.8688  -20.5342  -45.7287 H         1 UNK         0.0800 
    143 H143        4.6846  -23.1107  -45.6012 H         1 UNK         0.0600 
    144 H144        2.3933  -21.7880  -44.5791 H         1 UNK         0.3000 
    145 H145        1.2454  -24.3950  -42.4906 H         1 UNK         0.0600 
    146 H146        1.6979  -22.7332  -40.6945 H         1 UNK         0.0600 
    147 H147        3.1821  -23.5355  -41.1855 H         1 UNK         0.0600 
    148 H148        2.8531  -21.8959  -41.7300 H         1 UNK         0.0600 
    149 H149        0.6633  -21.5726  -42.8292 H         1 UNK         0.3000 
    150 H150       -1.8669  -22.0770  -45.2912 H         1 UNK         0.0600 
    151 H151       -2.9271  -22.4098  -43.0582 H         1 UNK         0.0600 
    152 H152       -3.1548  -20.7721  -43.6503 H         1 UNK         0.0600 
    153 H153       -1.9581  -21.0967  -42.3978 H         1 UNK         0.0600 
    154 H154       -0.9685  -19.6561  -44.2073 H         1 UNK         0.3000 
    155 H155        1.9510  -19.0948  -46.2023 H         1 UNK         0.0600 
    156 H156       -0.8819  -17.9797  -46.4047 H         1 UNK         0.0600 
    157 H157        0.5726  -17.0215  -46.6762 H         1 UNK         0.0600 
    158 H158        0.2083  -18.3912  -47.7202 H         1 UNK         0.0600 
    159 H159        0.7324  -17.3880  -44.3451 H         1 UNK         0.3000 
    160 H160        2.2158  -18.6706  -41.3480 H         1 UNK         0.0600 
    161 H161        2.6790  -16.1589  -43.0463 H         1 UNK         0.0600 
    162 H162        3.9199  -17.2291  -42.4122 H         1 UNK         0.0600 
    163 H163        2.9375  -16.2805  -41.3067 H         1 UNK         0.0600 
    164 H164        0.3677  -16.5456  -42.1779 H         1 UNK         0.3000 
    165 H165       -2.5575  -18.3261  -41.2334 H         1 UNK         0.0600 
    166 H166       -2.9236  -16.3718  -39.7506 H         1 UNK         0.0600 
    167 H167       -1.7425  -17.4577  -39.0363 H         1 UNK         0.0600 
    168 H168       -1.2068  -15.9697  -39.8076 H         1 UNK         0.0600 
    169 H169       -2.1098  -15.6296  -42.0910 H         1 UNK         0.3000 
    170 H170       -2.0621  -16.2200  -45.5773 H         1 UNK         0.0600 
    171 H171       -4.5015  -16.4229  -45.0731 H         1 UNK         0.0600 
    172 H172       -4.3714  -15.1161  -43.8999 H         1 UNK         0.0600 
    173 H173       -4.0777  -14.8056  -45.6119 H         1 UNK         0.0600 
    174 H174       -2.2565  -13.7736  -44.2640 H         1 UNK         0.3000 
    175 H175       -0.1609  -12.7379  -43.0374 H         1 UNK         0.0600 
    176 H176        2.1179  -13.4319  -44.9630 H         1 UNK         0.0600 
    177 H177        2.0824  -12.0444  -43.8783 H         1 UNK         0.0600 
    178 H178        2.1240  -13.6714  -43.2193 H         1 UNK         0.0600 
    179 H179        0.3038  -12.0202  -45.8302 H         1 UNK         0.3000 
    180 H180       -2.9222  -10.5058  -46.2688 H         1 UNK         0.0600 
    181 H181       -0.0111   -9.5430  -46.2741 H         1 UNK         0.0600 
    182 H182       -1.3333   -8.8336  -45.3572 H         1 UNK         0.0600 
    183 H183       -1.3567   -8.7750  -47.1129 H         1 UNK         0.0600 
    184 H184       -0.5579  -11.4267  -47.8080 H         1 UNK         0.3000 
    185 H185       -2.3410  -14.0114  -49.4155 H         1 UNK         0.0600 
    186 H186       -3.1212  -12.0845  -50.7971 H         1 UNK         0.0600 
    187 H187       -1.5304  -11.3393  -50.6839 H         1 UNK         0.0600 
    188 H188       -1.7366  -12.8730  -51.5337 H         1 UNK         0.0600 
    189 H189        0.2521  -12.8169  -49.8272 H         1 UNK         0.3000 
    190 H190        1.3901  -22.7124  -47.0061 H         1 UNK         0.3000 
    191 H191        1.3607  -25.3650  -48.0690 H         1 UNK         0.0600 
    192 H192        1.5860  -23.1795  -50.2080 H         1 UNK         0.0600 
    193 H193        1.3603  -24.8940  -50.4890 H         1 UNK         0.0600 
    194 H194        2.8806  -24.3215  -49.8373 H         1 UNK         0.0600 
    195 H195       -0.1953  -22.2206  -47.6466 H         1 UNK         0.3000 
    196 H196       -2.2865  -22.5304  -49.4540 H         1 UNK         0.0600 
    197 H197       -3.2723  -20.5879  -48.4480 H         1 UNK         0.0600 
    198 H198       -1.5312  -20.3542  -48.3989 H         1 UNK         0.0600 
    199 H199       -2.4143  -20.7905  -46.9461 H         1 UNK         0.0600 
    200 H200       -2.0403  -24.2575  -46.5213 H         1 UNK         0.3000 
    201 H201       -4.8414  -24.7120  -45.9946 H         1 UNK         0.0600 
    202 H202       -3.1019  -25.2013  -44.3050 H         1 UNK         0.0600 
    203 H203       -2.3491  -26.3866  -45.3713 H         1 UNK         0.0600 
    204 H204       -3.9569  -26.6795  -44.7164 H         1 UNK         0.0600 
    205 H205       -2.5515  -25.9287  -48.3686 H         1 UNK         0.3000 
    206 H206       -4.5760  -27.8384  -49.4810 H         1 UNK         0.0600 
    207 H207       -2.4377  -28.9410  -48.8688 H         1 UNK         0.0600 
    208 H208       -2.6229  -28.8892  -50.6155 H         1 UNK         0.0600 
    209 H209       -1.5275  -27.7665  -49.8158 H         1 UNK         0.0600 
    210 H210       -2.1348  -25.3119  -50.2539 H         1 UNK         0.3000 
    211 H211       -3.0133  -25.0076  -53.0126 H         1 UNK         0.0600 
    212 H212       -0.9726  -23.4251  -51.3663 H         1 UNK         0.0600 
    213 H213       -1.1544  -23.3898  -53.1133 H         1 UNK         0.0600 
    214 H214       -0.6122  -24.8604  -52.3228 H         1 UNK         0.0600 
    215 H215       -5.2240  -24.5756  -51.5284 H         1 UNK         0.3000 
    216 H216       -5.6973  -21.7543  -50.9515 H         1 UNK         0.0600 
    217 H217       -7.5707  -24.1772  -50.9479 H         1 UNK         0.0600 
    218 H218       -7.9515  -22.5792  -50.3126 H         1 UNK         0.0600 
    219 H219       -6.6994  -23.5466  -49.5541 H         1 UNK         0.0600 
    220 H220       -4.8902  -21.5011  -53.3748 H         1 UNK         0.3000 
    221 H221       -6.6111  -22.1008  -55.5493 H         1 UNK         0.0600 
    222 H222       -4.1823  -21.6378  -55.7926 H         1 UNK         0.0600 
    223 H223       -4.4275  -19.9624  -55.2990 H         1 UNK         0.0600 
    224 H224       -5.1140  -20.5489  -56.8093 H         1 UNK         0.0600 
    225 H225       -6.4391  -19.2778  -53.4427 H         1 UNK         0.3000 
    226 H226       -9.1113  -18.4205  -54.0204 H         1 UNK         0.0600 
    227 H227       -8.0422  -17.3131  -55.9926 H         1 UNK         0.0600 
    228 H228       -8.5040  -16.1056  -54.8066 H         1 UNK         0.0600 
    229 H229       -6.8175  -16.5907  -54.9517 H         1 UNK         0.0600 
    230 H230       -8.3074  -19.4582  -51.8771 H         1 UNK         0.3000 
    231 H231       -7.6616  -19.5002  -49.7628 H         1 UNK         0.0600 
    232 H232       -7.6209  -16.4326  -49.6474 H         1 UNK         0.0600 
    233 H233       -7.6580  -17.5533  -48.2909 H         1 UNK         0.0600 
    234 H234       -9.0475  -17.4196  -49.3498 H         1 UNK         0.0600 
    235 H235       -5.6314  -17.2892  -48.7851 H         1 UNK         0.3000 
    236 H236       -3.2398  -18.6489  -49.5640 H         1 UNK         0.0600 
    237 H237       -2.1230  -16.8643  -48.2715 H         1 UNK         0.0600 
    238 H238       -3.6397  -15.9875  -48.1283 H         1 UNK         0.0600 
    239 H239       -3.4542  -17.5732  -47.3744 H         1 UNK         0.0600 
    240 H240       -2.2591  -16.7919  -52.5280 H         1 UNK         0.3000 
    241 H241       -2.5994  -19.4271  -51.4359 H         1 UNK         0.0600 
    242 H242       -1.7374  -20.4757  -54.6810 H         1 UNK         0.3800 
    243 H243       -2.3548  -20.9277  -53.1057 H         1 UNK         0.3800 
    244 H244       -0.7993  -18.4232  -49.9139 H         1 UNK         0.0800 
    245 H245        0.1753  -18.1094  -51.3126 H         1 UNK         0.0800 
    246 H246        1.3957  -19.7550  -52.6539 H         1 UNK         0.0800 
    247 H247        1.7853  -21.3793  -52.1644 H         1 UNK         0.0800 
@<TRIPOS>BOND
     1    1    2 1    
     2    1  127 1    
     3    1  128 1    
     4    1  129 1    
     5    2    3 2    
     6    2    4 am   BACKBONE|DICT|INTERRES
     7    4    5 1    
     8    4  130 1    
     9    5    6 1    
    10    5   65 1    
    11    5  131 1    
    12    6    7 1    
    13    6  132 1    
    14    6  133 1    
    15    7    8 1    
    16    8    9 1    
    17    8  134 1    
    18    8  135 1    
    19    9   10 ar   
    20    9   14 ar   
    21   10   11 ar   
    22   10  136 1    
    23   11   12 ar   
    24   11  126 1    
    25   12   13 ar   
    26   12  137 1    
    27   13   14 ar   
    28   13   15 1    
    29   14  138 1    
    30   15   16 1    
    31   15  139 1    
    32   15  140 1    
    33   16   17 1    
    34   17   18 1    
    35   17  141 1    
    36   17  142 1    
    37   18   19 1    
    38   18   67 1    
    39   18  143 1    
    40   19   20 am   BACKBONE|DICT|INTERRES
    41   19  144 1    
    42   20   21 2    
    43   20   22 1    
    44   22   23 1    
    45   22   24 1    
    46   22  145 1    
    47   23  146 1    
    48   23  147 1    
    49   23  148 1    
    50   24   25 am   BACKBONE|DICT|INTERRES
    51   24  149 1    
    52   25   26 2    
    53   25   27 1    
    54   27   28 1    
    55   27   29 1    
    56   27  150 1    
    57   28  151 1    
    58   28  152 1    
    59   28  153 1    
    60   29   30 am   BACKBONE|DICT|INTERRES
    61   29  154 1    
    62   30   31 2    
    63   30   32 1    
    64   32   33 1    
    65   32   34 1    
    66   32  155 1    
    67   33  156 1    
    68   33  157 1    
    69   33  158 1    
    70   34   35 am   BACKBONE|DICT|INTERRES
    71   34  159 1    
    72   35   36 2    
    73   35   37 1    
    74   37   38 1    
    75   37   39 1    
    76   37  160 1    
    77   38  161 1    
    78   38  162 1    
    79   38  163 1    
    80   39   40 am   BACKBONE|DICT|INTERRES
    81   39  164 1    
    82   40   41 2    
    83   40   42 1    
    84   42   43 1    
    85   42   44 1    
    86   42  165 1    
    87   43  166 1    
    88   43  167 1    
    89   43  168 1    
    90   44   45 am   BACKBONE|DICT|INTERRES
    91   44  169 1    
    92   45   46 2    
    93   45   47 1    
    94   47   48 1    
    95   47   49 1    
    96   47  170 1    
    97   48  171 1    
    98   48  172 1    
    99   48  173 1    
   100   49   50 am   BACKBONE|DICT|INTERRES
   101   49  174 1    
   102   50   51 2    
   103   50   52 1    
   104   52   53 1    
   105   52   54 1    
   106   52  175 1    
   107   53  176 1    
   108   53  177 1    
   109   53  178 1    
   110   54   55 am   BACKBONE|DICT|INTERRES
   111   54  179 1    
   112   55   56 2    
   113   55   57 1    
   114   57   58 1    
   115   57   59 1    
   116   57  180 1    
   117   58  181 1    
   118   58  182 1    
   119   58  183 1    
   120   59   60 am   BACKBONE|DICT|INTERRES
   121   59  184 1    
   122   60   61 2    
   123   60   62 1    
   124   62   63 1    
   125   62   64 1    
   126   62  185 1    
   127   63  186 1    
   128   63  187 1    
   129   63  188 1    
   130   64   65 am   BACKBONE|DICT|INTERRES
   131   64  189 1    
   132   65   66 2    
   133   67   68 2    
   134   67   69 am   BACKBONE|DICT|INTERRES
   135   69   70 1    
   136   69  190 1    
   137   70   71 1    
   138   70   72 1    
   139   70  191 1    
   140   71  192 1    
   141   71  193 1    
   142   71  194 1    
   143   72   73 2    
   144   72   74 am   BACKBONE|DICT|INTERRES
   145   74   75 1    
   146   74  195 1    
   147   75   76 1    
   148   75   77 1    
   149   75  196 1    
   150   76  197 1    
   151   76  198 1    
   152   76  199 1    
   153   77   78 2    
   154   77   79 am   BACKBONE|DICT|INTERRES
   155   79   80 1    
   156   79  200 1    
   157   80   81 1    
   158   80   82 1    
   159   80  201 1    
   160   81  202 1    
   161   81  203 1    
   162   81  204 1    
   163   82   83 2    
   164   82   84 am   BACKBONE|DICT|INTERRES
   165   84   85 1    
   166   84  205 1    
   167   85   86 1    
   168   85   87 1    
   169   85  206 1    
   170   86  207 1    
   171   86  208 1    
   172   86  209 1    
   173   87   88 2    
   174   87   89 am   BACKBONE|DICT|INTERRES
   175   89   90 1    
   176   89  210 1    
   177   90   91 1    
   178   90   92 1    
   179   90  211 1    
   180   91  212 1    
   181   91  213 1    
   182   91  214 1    
   183   92   93 2    
   184   92   94 am   BACKBONE|DICT|INTERRES
   185   94   95 1    
   186   94  215 1    
   187   95   96 1    
   188   95   97 1    
   189   95  216 1    
   190   96  217 1    
   191   96  218 1    
   192   96  219 1    
   193   97   98 2    
   194   97   99 am   BACKBONE|DICT|INTERRES
   195   99  100 1    
   196   99  220 1    
   197  100  101 1    
   198  100  102 1    
   199  100  221 1    
   200  101  222 1    
   201  101  223 1    
   202  101  224 1    
   203  102  103 2    
   204  102  104 am   BACKBONE|DICT|INTERRES
   205  104  105 1    
   206  104  225 1    
   207  105  106 1    
   208  105  107 1    
   209  105  226 1    
   210  106  227 1    
   211  106  228 1    
   212  106  229 1    
   213  107  108 2    
   214  107  109 am   BACKBONE|DICT|INTERRES
   215  109  110 1    
   216  109  230 1    
   217  110  111 1    
   218  110  112 1    
   219  110  231 1    
   220  111  232 1    
   221  111  233 1    
   222  111  234 1    
   223  112  113 2    
   224  112  114 am   BACKBONE|DICT|INTERRES
   225  114  115 1    
   226  114  235 1    
   227  115  116 1    
   228  115  117 1    
   229  115  236 1    
   230  116  237 1    
   231  116  238 1    
   232  116  239 1    
   233  117  118 2    
   234  117  119 am   BACKBONE|DICT|INTERRES
   235  119  120 1    
   236  119  240 1    
   237  120  121 1    
   238  120  124 1    
   239  120  241 1    
   240  121  122 am   BACKBONE|DICT|INTERRES
   241  121  123 2    
   242  122  242 1    
   243  122  243 1    
   244  124  125 1    
   245  124  244 1    
   246  124  245 1    
   247  125  126 1    
   248  126  246 1    
   249  126  247 1    
@<TRIPOS>SUBSTRUCTURE
     1 UNK         1 GROUP             0       ****    0 ROOT    
