@<TRIPOS>MOLECULE
3R540
247   249    1
SMALL
USER_CHARGES


@<TRIPOS>ATOM
      1 CA         -2.1654  -11.0391  -47.9593 C.3       0 UNK        -0.1800 
      2 C          -1.6012  -12.2475  -47.2150 C.2       0 UNK         0.5000 
      3 O          -2.2592  -12.7499  -46.3078 O.2       0 UNK        -0.5000 
      4 N          -0.4082  -12.7503  -47.5606 N.am      1 UNK        -0.5000 
      5 CA          0.5060  -12.2197  -48.5768 C.3       1 UNK         0.1400 
      6 C6          1.2523  -13.3589  -49.3224 C.3       23 UNK        -0.0398 
      7 S7          2.4882  -14.2542  -48.3135 S.3       23 UNK        -0.2404 
      8 C8          1.8134  -15.9451  -48.3005 C.3       23 UNK        -0.0205 
      9 C9          2.2316  -16.8291  -49.4722 C.ar      23 UNK        -0.0193 
     10 C10         2.4258  -16.3153  -50.7577 C.ar      23 UNK        -0.1150 
     11 C11         2.7402  -17.1568  -51.8253 C.ar      23 UNK        -0.0193 
     12 C12         2.8845  -18.5281  -51.5963 C.ar      23 UNK        -0.1150 
     13 C13         2.7158  -19.0650  -50.3152 C.ar      23 UNK        -0.0193 
     14 C14         2.3820  -18.2028  -49.2614 C.ar      23 UNK        -0.1150 
     15 C15         2.9438  -20.5677  -50.1239 C.3       23 UNK        -0.0205 
     16 S16         2.4838  -21.2565  -48.4934 S.3       23 UNK        -0.2404 
     17 C17         0.6673  -21.3303  -48.6286 C.3       23 UNK        -0.0398 
     18 CA          0.0808  -22.4430  -47.7290 C.3       11 UNK         0.1400 
     19 N           0.0921  -22.0773  -46.3088 N.am      11 UNK        -0.5000 
     20 C          -0.1657  -22.9283  -45.3061 C.2       10 UNK         0.5000 
     21 O          -0.4200  -24.1212  -45.4715 O.2       10 UNK        -0.5000 
     22 CA         -0.1866  -22.3460  -43.8817 C.3       10 UNK         0.1400 
     23 CB          1.2393  -22.1001  -43.3665 C.3       10 UNK        -0.1800 
     24 N          -0.9716  -21.1150  -43.7841 N.am      10 UNK        -0.5000 
     25 C          -2.2885  -21.0346  -44.0245 C.2       9 UNK         0.5000 
     26 O          -2.9893  -21.9994  -44.3265 O.2       9 UNK        -0.5000 
     27 CA         -2.9269  -19.6358  -43.9655 C.3       9 UNK         0.1400 
     28 CB         -3.1936  -19.2138  -42.5132 C.3       9 UNK        -0.1800 
     29 N          -2.1208  -18.6162  -44.6342 N.am      9 UNK        -0.5000 
     30 C          -1.7836  -18.6385  -45.9313 C.2       8 UNK         0.5000 
     31 O          -2.1377  -19.5135  -46.7192 O.2       8 UNK        -0.5000 
     32 CA         -0.8355  -17.5290  -46.4113 C.3       8 UNK         0.1400 
     33 CB         -1.5866  -16.1989  -46.5743 C.3       8 UNK        -0.1800 
     34 N           0.3083  -17.3605  -45.5141 N.am      8 UNK        -0.5000 
     35 C           1.2199  -18.3156  -45.2722 C.2       7 UNK         0.5000 
     36 O           1.2169  -19.4188  -45.8164 O.2       7 UNK        -0.5000 
     37 CA          2.2820  -18.0050  -44.2050 C.3       7 UNK         0.1400 
     38 CB          3.4391  -17.1835  -44.7953 C.3       7 UNK        -0.1800 
     39 N           1.7068  -17.3053  -43.0568 N.am      7 UNK        -0.5000 
     40 C           0.8354  -17.8552  -42.1977 C.2       6 UNK         0.5000 
     41 O           0.4762  -19.0312  -42.2446 O.2       6 UNK        -0.5000 
     42 CA          0.2240  -16.9144  -41.1437 C.3       6 UNK         0.1400 
     43 CB          1.1571  -16.7784  -39.9314 C.3       6 UNK        -0.1800 
     44 N          -0.0632  -15.5859  -41.6879 N.am      6 UNK        -0.5000 
     45 C          -0.9729  -15.3362  -42.6417 C.2       5 UNK         0.5000 
     46 O          -1.7175  -16.1958  -43.1099 O.2       5 UNK        -0.5000 
     47 CA         -1.0205  -13.9015  -43.1994 C.3       5 UNK         0.1400 
     48 CB         -2.0350  -13.0492  -42.4238 C.3       5 UNK        -0.1800 
     49 N           0.2924  -13.2525  -43.1645 N.am      5 UNK        -0.5000 
     50 C           1.3095  -13.5738  -43.9734 C.2       4 UNK         0.5000 
     51 O           1.2186  -14.3731  -44.9098 O.2       4 UNK        -0.5000 
     52 CA          2.6715  -12.9731  -43.6029 C.3       4 UNK         0.1400 
     53 CB          3.3291  -13.8360  -42.5035 C.3       4 UNK        -0.1800 
     54 N           3.5209  -12.9027  -44.7885 N.am      4 UNK        -0.5000 
     55 C           4.7232  -12.3144  -44.8494 C.2       3 UNK         0.5000 
     56 O           5.2694  -11.7609  -43.8941 O.2       3 UNK        -0.5000 
     57 CA          5.4230  -12.3128  -46.2189 C.3       3 UNK         0.1400 
     58 CB          5.7755  -13.7383  -46.6774 C.3       3 UNK        -0.1800 
     59 N           4.6065  -11.6368  -47.2274 N.am      3 UNK        -0.5000 
     60 C           4.4380  -10.3059  -47.2854 C.2       2 UNK         0.5000 
     61 O           5.0180   -9.5127  -46.5427 O.2       2 UNK        -0.5000 
     62 CA          3.4650   -9.7536  -48.3480 C.3       2 UNK         0.1400 
     63 CB          4.2372   -9.2915  -49.5934 C.3       2 UNK        -0.1800 
     64 N           2.4291  -10.7038  -48.7583 N.am      2 UNK        -0.5000 
     65 C           1.4552  -11.1642  -47.9610 C.2       1 UNK         0.5000 
     66 O           1.3074  -10.7946  -46.7930 O.2       1 UNK        -0.5000 
     67 C          -1.3217  -22.8697  -48.2060 C.2       11 UNK         0.5000 
     68 O          -1.4318  -23.8685  -48.9174 O.2       11 UNK        -0.5000 
     69 N          -2.3686  -22.1473  -47.7819 N.am      12 UNK        -0.5000 
     70 CA         -3.7635  -22.4832  -48.0689 C.3       12 UNK         0.1400 
     71 CB         -4.6846  -21.3450  -47.6080 C.3       12 UNK        -0.1800 
     72 C          -4.1860  -23.8228  -47.4407 C.2       12 UNK         0.5000 
     73 O          -4.8285  -24.6253  -48.1166 O.2       12 UNK        -0.5000 
     74 N          -3.7855  -24.0626  -46.1836 N.am      13 UNK        -0.5000 
     75 CA         -4.0143  -25.3172  -45.4656 C.3       13 UNK         0.1400 
     76 CB         -3.6118  -25.1606  -43.9917 C.3       13 UNK        -0.1800 
     77 C          -3.2847  -26.5090  -46.1088 C.2       13 UNK         0.5000 
     78 O          -3.8945  -27.5643  -46.2821 O.2       13 UNK        -0.5000 
     79 N          -2.0165  -26.3107  -46.4978 N.am      14 UNK        -0.5000 
     80 CA         -1.1968  -27.2983  -47.2068 C.3       14 UNK         0.1400 
     81 CB          0.2420  -26.7760  -47.3340 C.3       14 UNK        -0.1800 
     82 C          -1.7638  -27.6706  -48.5903 C.2       14 UNK         0.5000 
     83 O          -1.6930  -28.8347  -48.9853 O.2       14 UNK        -0.5000 
     84 N          -2.3522  -26.6847  -49.2794 N.am      15 UNK        -0.5000 
     85 CA         -3.0602  -26.8508  -50.5483 C.3       15 UNK         0.1400 
     86 CB         -3.0778  -25.4994  -51.2797 C.3       15 UNK        -0.1800 
     87 C          -4.4972  -27.3887  -50.3895 C.2       15 UNK         0.5000 
     88 O          -5.1674  -27.5848  -51.4022 O.2       15 UNK        -0.5000 
     89 N          -4.9731  -27.5750  -49.1481 N.am      16 UNK        -0.5000 
     90 CA         -6.3323  -27.9882  -48.7749 C.3       16 UNK         0.1400 
     91 CB         -6.5757  -29.4611  -49.1634 C.3       16 UNK        -0.1800 
     92 C          -7.4194  -27.0318  -49.3160 C.2       16 UNK         0.5000 
     93 O          -8.4867  -27.4774  -49.7407 O.2       16 UNK        -0.5000 
     94 N          -7.0991  -25.7295  -49.3136 N.am      17 UNK        -0.5000 
     95 CA         -7.8772  -24.5967  -49.8229 C.3       17 UNK         0.1400 
     96 CB         -9.2063  -24.4473  -49.0542 C.3       17 UNK        -0.1800 
     97 C          -8.0748  -24.5851  -51.3555 C.2       17 UNK         0.5000 
     98 O          -8.8770  -23.7902  -51.8483 O.2       17 UNK        -0.5000 
     99 N          -7.3369  -25.4266  -52.0975 N.am      18 UNK        -0.5000 
    100 CA        -7.3739  -25.4706  -53.5631 C.3       18 UNK         0.1400 
    101 CB        -6.8420  -26.8266  -54.0506 C.3       18 UNK        -0.1800 
    102 C         -6.5849  -24.3196  -54.2178 C.2       18 UNK         0.5000 
    103 O         -6.8363  -24.0059  -55.3822 O.2       18 UNK        -0.5000 
    104 N         -5.6556  -23.7152  -53.4671 N.am      19 UNK        -0.5000 
    105 CA        -4.8776  -22.5459  -53.8635 C.3       19 UNK         0.1400 
    106 CB        -3.3807  -22.8593  -53.7092 C.3       19 UNK        -0.1800 
    107 C         -5.2613  -21.3582  -52.9703 C.2       19 UNK         0.5000 
    108 O         -5.6028  -21.5506  -51.8006 O.2       19 UNK        -0.5000 
    109 N         -5.1553  -20.1492  -53.5330 N.am      20 UNK        -0.5000 
    110 CA        -5.4465  -18.8801  -52.8598 C.3       20 UNK         0.1400 
    111 CB        -5.8668  -17.8524  -53.9243 C.3       20 UNK        -0.1800 
    112 C         -4.2656  -18.3392  -52.0268 C.2       20 UNK         0.5000 
    113 O         -4.4151  -17.2945  -51.3910 O.2       20 UNK        -0.5000 
    114 N         -3.1087  -19.0215  -52.0772 N.am      21 UNK        -0.5000 
    115 CA        -1.8503  -18.6872  -51.3944 C.3       21 UNK         0.1400 
    116 CB        -1.9819  -18.9242  -49.8801 C.3       21 UNK        -0.1800 
    117 C         -1.3377  -17.2729  -51.7394 C.2       21 UNK         0.5000 
    118 O         -0.8949  -16.5326  -50.8607 O.2       21 UNK        -0.5000 
    119 N         -1.4597  -16.9236  -53.0267 N.am      22 UNK        -0.5000 
    120 CA        -1.1029  -15.6251  -53.6222 C.3       22 UNK         0.1400 
    121 C         -1.9783  -14.4224  -53.1469 C.2       22 UNK         0.5000 
    122 N         -3.0909  -14.6342  -52.4520 N.am      22 UNK        -0.7600 
    123 O         -1.6647  -13.2728  -53.4440 O.2       22 UNK        -0.5000 
    124 C124        0.4200  -15.3168  -53.5526 C.3       23 UNK        -0.0398 
    125 S125        1.4532  -16.6577  -54.2490 S.3       23 UNK        -0.2404 
    126 C126        2.9531  -16.5771  -53.2173 C.3       23 UNK        -0.0205 
    127 H127       -2.3885  -11.2949  -48.9951 H         1 UNK         0.0600 
    128 H128       -1.4645  -10.2046  -47.9420 H         1 UNK         0.0600 
    129 H129       -3.0912  -10.7016  -47.4928 H         1 UNK         0.0600 
    130 H130       -0.0232  -13.4988  -47.0012 H         1 UNK         0.3000 
    131 H131       -0.0730  -11.6961  -49.3384 H         1 UNK         0.0600 
    132 H132        1.7635  -12.9638  -50.2012 H         1 UNK         0.0800 
    133 H133        0.5214  -14.0649  -49.7209 H         1 UNK         0.0800 
    134 H134        0.7266  -15.9037  -48.2762 H         1 UNK         0.0800 
    135 H135        2.1336  -16.4056  -47.3676 H         1 UNK         0.0800 
    136 H136        2.3227  -15.2577  -50.9388 H         1 UNK         0.1150 
    137 H137        3.1428  -19.1790  -52.4201 H         1 UNK         0.1150 
    138 H138        2.2388  -18.5899  -48.2637 H         1 UNK         0.1150 
    139 H139        2.4195  -21.1199  -50.9052 H         1 UNK         0.0800 
    140 H140        4.0059  -20.7638  -50.2761 H         1 UNK         0.0800 
    141 H141        0.4093  -21.4984  -49.6759 H         1 UNK         0.0800 
    142 H142        0.2535  -20.3591  -48.3573 H         1 UNK         0.0800 
    143 H143        0.7136  -23.3270  -47.8358 H         1 UNK         0.0600 
    144 H144        0.3321  -21.1132  -46.0916 H         1 UNK         0.3000 
    145 H145       -0.6553  -23.0867  -43.2305 H         1 UNK         0.0600 
    146 H146        1.2310  -21.7698  -42.3277 H         1 UNK         0.0600 
    147 H147        1.7565  -21.3415  -43.9540 H         1 UNK         0.0600 
    148 H148        1.8338  -23.0133  -43.4131 H         1 UNK         0.0600 
    149 H149       -0.4723  -20.2780  -43.5004 H         1 UNK         0.3000 
    150 H150       -3.8857  -19.6879  -44.4852 H         1 UNK         0.0600 
    151 H151       -3.8180  -19.9475  -42.0019 H         1 UNK         0.0600 
    152 H152       -3.7137  -18.2566  -42.4705 H         1 UNK         0.0600 
    153 H153       -2.2685  -19.1160  -41.9450 H         1 UNK         0.0600 
    154 H154       -1.8153  -17.8312  -44.0646 H         1 UNK         0.3000 
    155 H155       -0.4400  -17.8202  -47.3848 H         1 UNK         0.0600 
    156 H156       -2.1514  -15.9314  -45.6819 H         1 UNK         0.0600 
    157 H157       -2.2956  -16.2569  -47.4010 H         1 UNK         0.0600 
    158 H158       -0.9061  -15.3772  -46.7855 H         1 UNK         0.0600 
    159 H159        0.3983  -16.4679  -45.0461 H         1 UNK         0.3000 
    160 H160        2.6884  -18.9563  -43.8549 H         1 UNK         0.0600 
    161 H161        3.1154  -16.1964  -45.1242 H         1 UNK         0.0600 
    162 H162        3.8736  -17.6886  -45.6591 H         1 UNK         0.0600 
    163 H163        4.2370  -17.0471  -44.0654 H         1 UNK         0.0600 
    164 H164        1.9246  -16.3259  -42.9645 H         1 UNK         0.3000 
    165 H165       -0.7164  -17.3553  -40.8063 H         1 UNK         0.0600 
    166 H166        0.7020  -16.1693  -39.1501 H         1 UNK         0.0600 
    167 H167        1.3738  -17.7547  -39.4956 H         1 UNK         0.0600 
    168 H168        2.1096  -16.3211  -40.2023 H         1 UNK         0.0600 
    169 H169        0.4913  -14.8200  -41.3374 H         1 UNK         0.3000 
    170 H170       -1.3482  -13.9678  -44.2371 H         1 UNK         0.0600 
    171 H171       -3.0257  -13.5049  -42.4494 H         1 UNK         0.0600 
    172 H172       -1.7519  -12.9347  -41.3768 H         1 UNK         0.0600 
    173 H173       -2.1257  -12.0544  -42.8603 H         1 UNK         0.0600 
    174 H174        0.4419  -12.5787  -42.4271 H         1 UNK         0.3000 
    175 H175        2.5135  -11.9589  -43.2306 H         1 UNK         0.0600 
    176 H176        3.5967  -14.8247  -42.8760 H         1 UNK         0.0600 
    177 H177        4.2359  -13.3738  -42.1150 H         1 UNK         0.0600 
    178 H178        2.6626  -13.9730  -41.6515 H         1 UNK         0.0600 
    179 H179        3.1171  -13.3222  -45.6168 H         1 UNK         0.3000 
    180 H180        6.3615  -11.7634  -46.1160 H         1 UNK         0.0600 
    181 H181        6.2593  -13.7311  -47.6541 H         1 UNK         0.0600 
    182 H182        4.8999  -14.3831  -46.7417 H         1 UNK         0.0600 
    183 H183        6.4671  -14.2067  -45.9763 H         1 UNK         0.0600 
    184 H184        4.0847  -12.2226  -47.8633 H         1 UNK         0.3000 
    185 H185        2.9684   -8.8834  -47.9133 H         1 UNK         0.0600 
    186 H186        4.7397  -10.1242  -50.0873 H         1 UNK         0.0600 
    187 H187        3.5731   -8.8206  -50.3184 H         1 UNK         0.0600 
    188 H188        5.0003   -8.5576  -49.3303 H         1 UNK         0.0600 
    189 H189        2.4902  -11.0382  -49.7086 H         1 UNK         0.3000 
    190 H190       -2.2078  -21.3069  -47.2304 H         1 UNK         0.3000 
    191 H191       -3.8667  -22.5790  -49.1521 H         1 UNK         0.0600 
    192 H192       -4.4447  -20.4137  -48.1217 H         1 UNK         0.0600 
    193 H193       -4.5995  -21.1670  -46.5356 H         1 UNK         0.0600 
    194 H194       -5.7286  -21.5755  -47.8239 H         1 UNK         0.0600 
    195 H195       -3.2993  -23.3310  -45.6716 H         1 UNK         0.3000 
    196 H196       -5.0851  -25.5280  -45.5012 H         1 UNK         0.0600 
    197 H197       -4.2013  -24.3842  -43.5040 H         1 UNK         0.0600 
    198 H198       -2.5593  -24.8963  -43.8863 H         1 UNK         0.0600 
    199 H199       -3.7758  -26.0873  -43.4404 H         1 UNK         0.0600 
    200 H200       -1.5685  -25.4248  -46.2764 H         1 UNK         0.3000 
    201 H201       -1.1767  -28.2075  -46.6026 H         1 UNK         0.0600 
    202 H202        0.6806  -26.5868  -46.3541 H         1 UNK         0.0600 
    203 H203        0.2834  -25.8474  -47.9038 H         1 UNK         0.0600 
    204 H204        0.8787  -27.5021  -47.8408 H         1 UNK         0.0600 
    205 H205       -2.3091  -25.7407  -48.9092 H         1 UNK         0.3000 
    206 H206       -2.5129  -27.5645  -51.1672 H         1 UNK         0.0600 
    207 H207       -3.6331  -24.7464  -50.7191 H         1 UNK         0.0600 
    208 H208       -2.0669  -25.1222  -51.4347 H         1 UNK         0.0600 
    209 H209       -3.5424  -25.5902  -52.2623 H         1 UNK         0.0600 
    210 H210       -4.3594  -27.3692  -48.3691 H         1 UNK         0.3000 
    211 H211       -6.3837  -27.9203  -47.6874 H         1 UNK         0.0600 
    212 H212       -6.5919  -29.5979  -50.2451 H         1 UNK         0.0600 
    213 H213       -7.5308  -29.8157  -48.7744 H         1 UNK         0.0600 
    214 H214       -5.7998  -30.1085  -48.7549 H         1 UNK         0.0600 
    215 H215       -6.1927  -25.4707  -48.9238 H         1 UNK         0.3000 
    216 H216       -7.2761  -23.7131  -49.6025 H         1 UNK         0.0600 
    217 H217       -9.7033  -23.5106  -49.3089 H         1 UNK         0.0600 
    218 H218       -9.0399  -24.4405  -47.9770 H         1 UNK         0.0600 
    219 H219       -9.9010  -25.2557  -49.2827 H         1 UNK         0.0600 
    220 H220       -6.7108  -26.0794  -51.6400 H         1 UNK         0.3000 
    221 H221       -8.4137  -25.3853  -53.8857 H         1 UNK         0.0600 
    222 H222       -5.7731  -26.9312  -53.8627 H         1 UNK         0.0600 
    223 H223       -7.3540  -27.6549  -53.5604 H         1 UNK         0.0600 
    224 H224       -6.9940  -26.9389  -55.1248 H         1 UNK         0.0600 
    225 H225       -5.5775  -23.9845  -52.4974 H         1 UNK         0.3000 
    226 H226       -5.0754  -22.2853  -54.9054 H         1 UNK         0.0600 
    227 H227       -3.1056  -23.7570  -54.2632 H         1 UNK         0.0600 
    228 H228       -2.7693  -22.0421  -54.0932 H         1 UNK         0.0600 
    229 H229       -3.1040  -23.0102  -52.6653 H         1 UNK         0.0600 
    230 H230       -4.8620  -20.0823  -54.4976 H         1 UNK         0.3000 
    231 H231       -6.2857  -19.0231  -52.1757 H         1 UNK         0.0600 
    232 H232       -6.1471  -16.9029  -53.4662 H         1 UNK         0.0600 
    233 H233       -6.7299  -18.2022  -54.4910 H         1 UNK         0.0600 
    234 H234       -5.0602  -17.6499  -54.6300 H         1 UNK         0.0600 
    235 H235       -3.0910  -19.8545  -52.6461 H         1 UNK         0.3000 
    236 H236       -1.0961  -19.3806  -51.7697 H         1 UNK         0.0600 
    237 H237       -2.7047  -18.2489  -49.4214 H         1 UNK         0.0600 
    238 H238       -2.2927  -19.9459  -49.6643 H         1 UNK         0.0600 
    239 H239       -1.0253  -18.7619  -49.3869 H         1 UNK         0.0600 
    240 H240       -1.8578  -17.5971  -53.6639 H         1 UNK         0.3000 
    241 H241       -1.3515  -15.7284  -54.6788 H         1 UNK         0.0600 
    242 H242       -3.6497  -13.8462  -52.1669 H         1 UNK         0.3800 
    243 H243       -3.3612  -15.5669  -52.1658 H         1 UNK         0.3800 
    244 H244        0.7068  -15.1173  -52.5222 H         1 UNK         0.0800 
    245 H245        0.6507  -14.4074  -54.1094 H         1 UNK         0.0800 
    246 H246        3.7502  -17.1278  -53.7189 H         1 UNK         0.0800 
    247 H247        3.2965  -15.5433  -53.1541 H         1 UNK         0.0800 
@<TRIPOS>BOND
     1    1    2 1    
     2    1  127 1    
     3    1  128 1    
     4    1  129 1    
     5    2    3 2    
     6    2    4 am   BACKBONE|DICT|INTERRES
     7    4    5 1    
     8    4  130 1    
     9    5    6 1    
    10    5   65 1    
    11    5  131 1    
    12    6    7 1    
    13    6  132 1    
    14    6  133 1    
    15    7    8 1    
    16    8    9 1    
    17    8  134 1    
    18    8  135 1    
    19    9   10 ar   
    20    9   14 ar   
    21   10   11 ar   
    22   10  136 1    
    23   11   12 ar   
    24   11  126 1    
    25   12   13 ar   
    26   12  137 1    
    27   13   14 ar   
    28   13   15 1    
    29   14  138 1    
    30   15   16 1    
    31   15  139 1    
    32   15  140 1    
    33   16   17 1    
    34   17   18 1    
    35   17  141 1    
    36   17  142 1    
    37   18   19 1    
    38   18   67 1    
    39   18  143 1    
    40   19   20 am   BACKBONE|DICT|INTERRES
    41   19  144 1    
    42   20   21 2    
    43   20   22 1    
    44   22   23 1    
    45   22   24 1    
    46   22  145 1    
    47   23  146 1    
    48   23  147 1    
    49   23  148 1    
    50   24   25 am   BACKBONE|DICT|INTERRES
    51   24  149 1    
    52   25   26 2    
    53   25   27 1    
    54   27   28 1    
    55   27   29 1    
    56   27  150 1    
    57   28  151 1    
    58   28  152 1    
    59   28  153 1    
    60   29   30 am   BACKBONE|DICT|INTERRES
    61   29  154 1    
    62   30   31 2    
    63   30   32 1    
    64   32   33 1    
    65   32   34 1    
    66   32  155 1    
    67   33  156 1    
    68   33  157 1    
    69   33  158 1    
    70   34   35 am   BACKBONE|DICT|INTERRES
    71   34  159 1    
    72   35   36 2    
    73   35   37 1    
    74   37   38 1    
    75   37   39 1    
    76   37  160 1    
    77   38  161 1    
    78   38  162 1    
    79   38  163 1    
    80   39   40 am   BACKBONE|DICT|INTERRES
    81   39  164 1    
    82   40   41 2    
    83   40   42 1    
    84   42   43 1    
    85   42   44 1    
    86   42  165 1    
    87   43  166 1    
    88   43  167 1    
    89   43  168 1    
    90   44   45 am   BACKBONE|DICT|INTERRES
    91   44  169 1    
    92   45   46 2    
    93   45   47 1    
    94   47   48 1    
    95   47   49 1    
    96   47  170 1    
    97   48  171 1    
    98   48  172 1    
    99   48  173 1    
   100   49   50 am   BACKBONE|DICT|INTERRES
   101   49  174 1    
   102   50   51 2    
   103   50   52 1    
   104   52   53 1    
   105   52   54 1    
   106   52  175 1    
   107   53  176 1    
   108   53  177 1    
   109   53  178 1    
   110   54   55 am   BACKBONE|DICT|INTERRES
   111   54  179 1    
   112   55   56 2    
   113   55   57 1    
   114   57   58 1    
   115   57   59 1    
   116   57  180 1    
   117   58  181 1    
   118   58  182 1    
   119   58  183 1    
   120   59   60 am   BACKBONE|DICT|INTERRES
   121   59  184 1    
   122   60   61 2    
   123   60   62 1    
   124   62   63 1    
   125   62   64 1    
   126   62  185 1    
   127   63  186 1    
   128   63  187 1    
   129   63  188 1    
   130   64   65 am   BACKBONE|DICT|INTERRES
   131   64  189 1    
   132   65   66 2    
   133   67   68 2    
   134   67   69 am   BACKBONE|DICT|INTERRES
   135   69   70 1    
   136   69  190 1    
   137   70   71 1    
   138   70   72 1    
   139   70  191 1    
   140   71  192 1    
   141   71  193 1    
   142   71  194 1    
   143   72   73 2    
   144   72   74 am   BACKBONE|DICT|INTERRES
   145   74   75 1    
   146   74  195 1    
   147   75   76 1    
   148   75   77 1    
   149   75  196 1    
   150   76  197 1    
   151   76  198 1    
   152   76  199 1    
   153   77   78 2    
   154   77   79 am   BACKBONE|DICT|INTERRES
   155   79   80 1    
   156   79  200 1    
   157   80   81 1    
   158   80   82 1    
   159   80  201 1    
   160   81  202 1    
   161   81  203 1    
   162   81  204 1    
   163   82   83 2    
   164   82   84 am   BACKBONE|DICT|INTERRES
   165   84   85 1    
   166   84  205 1    
   167   85   86 1    
   168   85   87 1    
   169   85  206 1    
   170   86  207 1    
   171   86  208 1    
   172   86  209 1    
   173   87   88 2    
   174   87   89 am   BACKBONE|DICT|INTERRES
   175   89   90 1    
   176   89  210 1    
   177   90   91 1    
   178   90   92 1    
   179   90  211 1    
   180   91  212 1    
   181   91  213 1    
   182   91  214 1    
   183   92   93 2    
   184   92   94 am   BACKBONE|DICT|INTERRES
   185   94   95 1    
   186   94  215 1    
   187   95   96 1    
   188   95   97 1    
   189   95  216 1    
   190   96  217 1    
   191   96  218 1    
   192   96  219 1    
   193   97   98 2    
   194   97   99 am   BACKBONE|DICT|INTERRES
   195   99  100 1    
   196   99  220 1    
   197  100  101 1    
   198  100  102 1    
   199  100  221 1    
   200  101  222 1    
   201  101  223 1    
   202  101  224 1    
   203  102  103 2    
   204  102  104 am   BACKBONE|DICT|INTERRES
   205  104  105 1    
   206  104  225 1    
   207  105  106 1    
   208  105  107 1    
   209  105  226 1    
   210  106  227 1    
   211  106  228 1    
   212  106  229 1    
   213  107  108 2    
   214  107  109 am   BACKBONE|DICT|INTERRES
   215  109  110 1    
   216  109  230 1    
   217  110  111 1    
   218  110  112 1    
   219  110  231 1    
   220  111  232 1    
   221  111  233 1    
   222  111  234 1    
   223  112  113 2    
   224  112  114 am   BACKBONE|DICT|INTERRES
   225  114  115 1    
   226  114  235 1    
   227  115  116 1    
   228  115  117 1    
   229  115  236 1    
   230  116  237 1    
   231  116  238 1    
   232  116  239 1    
   233  117  118 2    
   234  117  119 am   BACKBONE|DICT|INTERRES
   235  119  120 1    
   236  119  240 1    
   237  120  121 1    
   238  120  124 1    
   239  120  241 1    
   240  121  122 am   BACKBONE|DICT|INTERRES
   241  121  123 2    
   242  122  242 1    
   243  122  243 1    
   244  124  125 1    
   245  124  244 1    
   246  124  245 1    
   247  125  126 1    
   248  126  246 1    
   249  126  247 1    
@<TRIPOS>SUBSTRUCTURE
     1 UNK         1 GROUP             0       ****    0 ROOT    
