@<TRIPOS>MOLECULE
3R540
247   249    1
SMALL
USER_CHARGES


@<TRIPOS>ATOM
      1 CA          6.6717  -13.2115  -49.0629 C.3       0 UNK        -0.1800 
      2 C           5.5560  -13.4761  -48.0621 C.2       0 UNK         0.5000 
      3 O           5.7064  -13.1665  -46.8804 O.2       0 UNK        -0.5000 
      4 N           4.4377  -14.0447  -48.5305 N.am      1 UNK        -0.5000 
      5 CA          3.2513  -14.3608  -47.7245 C.3       1 UNK         0.1400 
      6 C6          2.3829  -15.4613  -48.3864 C.3       23 UNK        -0.0398 
      7 S7          1.8236  -15.0693  -50.0811 S.3       23 UNK        -0.2404 
      8 C8          0.0435  -14.7751  -49.8132 C.3       23 UNK        -0.0205 
      9 C9         -0.8704  -16.0010  -49.7867 C.ar      23 UNK        -0.0193 
     10 C10        -2.2323  -15.7873  -49.5492 C.ar      23 UNK        -0.1150 
     11 C11        -3.1394  -16.8486  -49.5526 C.ar      23 UNK        -0.0193 
     12 C12        -2.6714  -18.1458  -49.7736 C.ar      23 UNK        -0.1150 
     13 C13        -1.3161  -18.3826  -50.0120 C.ar      23 UNK        -0.0193 
     14 C14        -0.4202  -17.3087  -50.0173 C.ar      23 UNK        -0.1150 
     15 C15        -0.8268  -19.7949  -50.3001 C.3       23 UNK        -0.0205 
     16 S16         0.0265  -20.5260  -48.8759 S.3       23 UNK        -0.2404 
     17 C17        -1.3281  -20.7377  -47.6742 C.3       23 UNK        -0.0398 
     18 CA         -1.4377  -22.1862  -47.1532 C.3       11 UNK         0.1400 
     19 N          -0.1967  -22.6506  -46.5315 N.am      11 UNK        -0.5000 
     20 C           0.1009  -23.9330  -46.2885 C.2       10 UNK         0.5000 
     21 O          -0.6152  -24.8738  -46.6294 O.2       10 UNK        -0.5000 
     22 CA          1.4070  -24.2096  -45.5221 C.3       10 UNK         0.1400 
     23 CB          2.5605  -24.4527  -46.5047 C.3       10 UNK        -0.1800 
     24 N           1.7707  -23.1257  -44.6072 N.am      10 UNK        -0.5000 
     25 C           1.0525  -22.7373  -43.5463 C.2       9 UNK         0.5000 
     26 O           0.0081  -23.2886  -43.1999 O.2       9 UNK        -0.5000 
     27 CA          1.5349  -21.4888  -42.7871 C.3       9 UNK         0.1400 
     28 CB          2.6683  -21.8243  -41.8008 C.3       9 UNK        -0.1800 
     29 N           1.8844  -20.3655  -43.6653 N.am      9 UNK        -0.5000 
     30 C           2.9175  -20.2266  -44.5097 C.2       8 UNK         0.5000 
     31 O           3.7743  -21.0900  -44.7011 O.2       8 UNK        -0.5000 
     32 CA          2.9831  -18.9051  -45.2968 C.3       8 UNK         0.1400 
     33 CB          2.1851  -19.0319  -46.5990 C.3       8 UNK        -0.1800 
     34 N           2.4619  -17.7755  -44.5278 N.am      8 UNK        -0.5000 
     35 C           3.1130  -17.1905  -43.5125 C.2       7 UNK         0.5000 
     36 O           4.2684  -17.4656  -43.1877 O.2       7 UNK        -0.5000 
     37 CA          2.3250  -16.1442  -42.7053 C.3       7 UNK         0.1400 
     38 CB          2.4411  -14.7577  -43.3527 C.3       7 UNK        -0.1800 
     39 N           0.9129  -16.5088  -42.5746 N.am      7 UNK        -0.5000 
     40 C           0.4618  -17.4887  -41.7769 C.2       6 UNK         0.5000 
     41 O           1.1829  -18.1419  -41.0232 O.2       6 UNK        -0.5000 
     42 CA         -1.0419  -17.8142  -41.8419 C.3       6 UNK         0.1400 
     43 CB         -1.8028  -17.0698  -40.7349 C.3       6 UNK        -0.1800 
     44 N          -1.6488  -17.4946  -43.1345 N.am      6 UNK        -0.5000 
     45 C          -1.4143  -18.1526  -44.2781 C.2       5 UNK         0.5000 
     46 O          -0.6620  -19.1240  -44.3661 O.2       5 UNK        -0.5000 
     47 CA         -2.1309  -17.6220  -45.5346 C.3       5 UNK         0.1400 
     48 CB         -3.4738  -18.3432  -45.7171 C.3       5 UNK        -0.1800 
     49 N          -2.3558  -16.1740  -45.4986 N.am      5 UNK        -0.5000 
     50 C          -1.3722  -15.2672  -45.5536 C.2       4 UNK         0.5000 
     51 O          -0.1826  -15.5675  -45.6657 O.2       4 UNK        -0.5000 
     52 CA         -1.7818  -13.7961  -45.3972 C.3       4 UNK         0.1400 
     53 CB         -1.1426  -13.1896  -44.1374 C.3       4 UNK        -0.1800 
     54 N          -1.3492  -13.0329  -46.5644 N.am      4 UNK        -0.5000 
     55 C          -2.1759  -12.4723  -47.4593 C.2       3 UNK         0.5000 
     56 O          -3.4023  -12.5648  -47.3877 O.2       3 UNK        -0.5000 
     57 CA         -1.5603  -11.7131  -48.6595 C.3       3 UNK         0.1400 
     58 CB         -2.3359  -10.4222  -48.9970 C.3       3 UNK        -0.1800 
     59 N          -0.1187  -11.4532  -48.5545 N.am      3 UNK        -0.5000 
     60 C           0.5107  -10.6464  -47.6879 C.2       2 UNK         0.5000 
     61 O          -0.0657   -9.9485  -46.8521 O.2       2 UNK        -0.5000 
     62 CA          2.0550  -10.6569  -47.7671 C.3       2 UNK         0.1400 
     63 CB          2.7173  -10.0539  -46.5108 C.3       2 UNK        -0.1800 
     64 N           2.6274  -11.9841  -48.0455 N.am      2 UNK        -0.5000 
     65 C           2.4276  -13.1098  -47.3389 C.2       1 UNK         0.5000 
     66 O           1.6280  -13.1843  -46.4089 O.2       1 UNK        -0.5000 
     67 C          -2.6209  -22.3244  -46.1770 C.2       11 UNK         0.5000 
     68 O          -3.6829  -22.7916  -46.5819 O.2       11 UNK        -0.5000 
     69 N          -2.4107  -21.9652  -44.9007 N.am      12 UNK        -0.5000 
     70 CA         -3.4011  -22.1207  -43.8298 C.3       12 UNK         0.1400 
     71 CB         -2.9376  -21.3583  -42.5797 C.3       12 UNK        -0.1800 
     72 C          -3.6933  -23.5983  -43.5036 C.2       12 UNK         0.5000 
     73 O          -4.8384  -23.9446  -43.2132 O.2       12 UNK        -0.5000 
     74 N          -2.6616  -24.4468  -43.6082 N.am      13 UNK        -0.5000 
     75 CA         -2.7544  -25.9049  -43.5074 C.3       13 UNK         0.1400 
     76 CB         -1.3447  -26.4678  -43.2667 C.3       13 UNK        -0.1800 
     77 C          -3.3891  -26.5728  -44.7475 C.2       13 UNK         0.5000 
     78 O          -3.7160  -27.7583  -44.6835 O.2       13 UNK        -0.5000 
     79 N          -3.5285  -25.8179  -45.8490 N.am      14 UNK        -0.5000 
     80 CA         -4.0184  -26.2302  -47.1697 C.3       14 UNK         0.1400 
     81 CB         -5.5040  -26.6402  -47.1072 C.3       14 UNK        -0.1800 
     82 C          -3.1232  -27.2846  -47.8574 C.2       14 UNK         0.5000 
     83 O          -3.6087  -28.0754  -48.6683 O.2       14 UNK        -0.5000 
     84 N          -1.8254  -27.2656  -47.5298 N.am      15 UNK        -0.5000 
     85 CA         -0.7846  -28.0648  -48.1717 C.3       15 UNK         0.1400 
     86 CB          0.3549  -28.3006  -47.1678 C.3       15 UNK        -0.1800 
     87 C          -0.2597  -27.3642  -49.4372 C.2       15 UNK         0.5000 
     88 O           0.0357  -28.0337  -50.4281 O.2       15 UNK        -0.5000 
     89 N          -0.1702  -26.0292  -49.3799 N.am      16 UNK        -0.5000 
     90 CA          0.1563  -25.1561  -50.5053 C.3       16 UNK         0.1400 
     91 CB          0.9363  -23.9455  -49.9694 C.3       16 UNK        -0.1800 
     92 C          -1.1187  -24.7282  -51.2610 C.2       16 UNK         0.5000 
     93 O          -2.2257  -25.1415  -50.9036 O.2       16 UNK        -0.5000 
     94 N          -0.9374  -23.9056  -52.3031 N.am      17 UNK        -0.5000 
     95 CA         -1.9656  -23.4084  -53.2237 C.3       17 UNK         0.1400 
     96 CB         -1.2635  -22.8586  -54.4789 C.3       17 UNK        -0.1800 
     97 C          -2.9328  -22.3798  -52.5934 C.2       17 UNK         0.5000 
     98 O          -3.0422  -21.2485  -53.0716 O.2       17 UNK        -0.5000 
     99 N          -3.6291  -22.7958  -51.5298 N.am      18 UNK        -0.5000 
    100 CA        -4.6893  -22.0543  -50.8478 C.3       18 UNK         0.1400 
    101 CB        -5.2214  -22.9131  -49.6928 C.3       18 UNK        -0.1800 
    102 C         -5.8330  -21.6675  -51.8051 C.2       18 UNK         0.5000 
    103 O         -6.1551  -22.4360  -52.7149 O.2       18 UNK        -0.5000 
    104 N         -6.3980  -20.4706  -51.6009 N.am      19 UNK        -0.5000 
    105 CA        -7.4032  -19.7804  -52.4239 C.3       19 UNK         0.1400 
    106 CB        -8.6913  -20.6107  -52.5861 C.3       19 UNK        -0.1800 
    107 C         -6.8683  -19.2962  -53.7882 C.2       19 UNK         0.5000 
    108 O         -7.1668  -18.1701  -54.1852 O.2       19 UNK        -0.5000 
    109 N         -6.0851  -20.1368  -54.4742 N.am      20 UNK        -0.5000 
    110 CA        -5.4992  -19.8725  -55.7865 C.3       20 UNK         0.1400 
    111 CB        -4.9607  -21.1879  -56.3699 C.3       20 UNK        -0.1800 
    112 C         -4.3980  -18.7979  -55.7543 C.2       20 UNK         0.5000 
    113 O         -4.3842  -17.9211  -56.6191 O.2       20 UNK        -0.5000 
    114 N         -3.4954  -18.8833  -54.7678 N.am      21 UNK        -0.5000 
    115 CA        -2.3587  -17.9706  -54.6152 C.3       21 UNK         0.1400 
    116 CB        -1.2504  -18.6896  -53.8348 C.3       21 UNK        -0.1800 
    117 C         -2.7154  -16.6373  -53.9295 C.2       21 UNK         0.5000 
    118 O         -1.8941  -15.7190  -53.9523 O.2       21 UNK        -0.5000 
    119 N         -3.9037  -16.5533  -53.3181 N.am      22 UNK        -0.5000 
    120 CA        -4.3930  -15.3718  -52.5928 C.3       22 UNK         0.1400 
    121 C         -4.5956  -14.1268  -53.5027 C.2       22 UNK         0.5000 
    122 N         -4.3640  -12.9279  -52.9843 N.am      22 UNK        -0.7600 
    123 O         -5.0068  -14.2313  -54.6562 O.2       22 UNK        -0.5000 
    124 C124       -5.6922  -15.6645  -51.7997 C.3       23 UNK        -0.0398 
    125 S125       -5.6284  -17.1483  -50.7389 S.3       23 UNK        -0.2404 
    126 C126       -4.6241  -16.5977  -49.3247 C.3       23 UNK        -0.0205 
    127 H127        6.8989  -12.1461  -49.0985 H         1 UNK         0.0600 
    128 H128        6.4003  -13.5352  -50.0681 H         1 UNK         0.0600 
    129 H129        7.5754  -13.7443  -48.7668 H         1 UNK         0.0600 
    130 H130        4.3686  -14.2800  -49.5112 H         1 UNK         0.3000 
    131 H131        3.6060  -14.7774  -46.7788 H         1 UNK         0.0600 
    132 H132        1.5287  -15.7153  -47.7558 H         1 UNK         0.0800 
    133 H133        2.9744  -16.3739  -48.4567 H         1 UNK         0.0800 
    134 H134       -0.0773  -14.2365  -48.8749 H         1 UNK         0.0800 
    135 H135       -0.3032  -14.1141  -50.6086 H         1 UNK         0.0800 
    136 H136       -2.5941  -14.7837  -49.3791 H         1 UNK         0.1150 
    137 H137       -3.3714  -18.9680  -49.7812 H         1 UNK         0.1150 
    138 H138        0.6232  -17.5067  -50.2124 H         1 UNK         0.1150 
    139 H139       -1.6514  -20.4410  -50.6034 H         1 UNK         0.0800 
    140 H140       -0.1323  -19.7722  -51.1408 H         1 UNK         0.0800 
    141 H141       -1.1418  -20.0533  -46.8494 H         1 UNK         0.0800 
    142 H142       -2.2716  -20.4298  -48.1262 H         1 UNK         0.0800 
    143 H143       -1.6519  -22.8313  -48.0087 H         1 UNK         0.0600 
    144 H144        0.4621  -21.9413  -46.2483 H         1 UNK         0.3000 
    145 H145        1.2611  -25.1157  -44.9317 H         1 UNK         0.0600 
    146 H146        3.4770  -24.7183  -45.9777 H         1 UNK         0.0600 
    147 H147        2.3288  -25.2732  -47.1853 H         1 UNK         0.0600 
    148 H148        2.7662  -23.5689  -47.1101 H         1 UNK         0.0600 
    149 H149        2.6176  -22.6027  -44.8136 H         1 UNK         0.3000 
    150 H150        0.6870  -21.1377  -42.1967 H         1 UNK         0.0600 
    151 H151        2.3452  -22.5789  -41.0828 H         1 UNK         0.0600 
    152 H152        2.9672  -20.9423  -41.2340 H         1 UNK         0.0600 
    153 H153        3.5519  -22.2149  -42.3059 H         1 UNK         0.0600 
    154 H154        1.1854  -19.6314  -43.6888 H         1 UNK         0.3000 
    155 H155        4.0277  -18.7107  -45.5490 H         1 UNK         0.0600 
    156 H156        2.2557  -18.1281  -47.1990 H         1 UNK         0.0600 
    157 H157        1.1289  -19.2147  -46.4042 H         1 UNK         0.0600 
    158 H158        2.5579  -19.8563  -47.2083 H         1 UNK         0.0600 
    159 H159        1.5214  -17.4723  -44.7382 H         1 UNK         0.3000 
    160 H160        2.7641  -16.0893  -41.7068 H         1 UNK         0.0600 
    161 H161        2.0195  -14.7515  -44.3570 H         1 UNK         0.0600 
    162 H162        3.4841  -14.4494  -43.4348 H         1 UNK         0.0600 
    163 H163        1.9225  -14.0004  -42.7649 H         1 UNK         0.0600 
    164 H164        0.2630  -16.0349  -43.1849 H         1 UNK         0.3000 
    165 H165       -1.1507  -18.8869  -41.6690 H         1 UNK         0.0600 
    166 H166       -1.7466  -15.9882  -40.8645 H         1 UNK         0.0600 
    167 H167       -2.8553  -17.3533  -40.7209 H         1 UNK         0.0600 
    168 H168       -1.3916  -17.3047  -39.7522 H         1 UNK         0.0600 
    169 H169       -2.2908  -16.7164  -43.1530 H         1 UNK         0.3000 
    170 H170       -1.4977  -17.8388  -46.3972 H         1 UNK         0.0600 
    171 H171       -3.3481  -19.4250  -45.7053 H         1 UNK         0.0600 
    172 H172       -4.1801  -18.0901  -44.9256 H         1 UNK         0.0600 
    173 H173       -3.9296  -18.0867  -46.6706 H         1 UNK         0.0600 
    174 H174       -3.3131  -15.8639  -45.4128 H         1 UNK         0.3000 
    175 H175       -2.8654  -13.7445  -45.2748 H         1 UNK         0.0600 
    176 H176       -1.4712  -12.1608  -43.9893 H         1 UNK         0.0600 
    177 H177       -1.4186  -13.7523  -43.2448 H         1 UNK         0.0600 
    178 H178       -0.0540  -13.1825  -44.2003 H         1 UNK         0.0600 
    179 H179       -0.3424  -12.9624  -46.6818 H         1 UNK         0.3000 
    180 H180       -1.6778  -12.3780  -49.5151 H         1 UNK         0.0600 
    181 H181       -3.3713  -10.6440  -49.2583 H         1 UNK         0.0600 
    182 H182       -2.3569   -9.7279  -48.1569 H         1 UNK         0.0600 
    183 H183       -1.8932   -9.9063  -49.8490 H         1 UNK         0.0600 
    184 H184        0.4657  -11.9743  -49.1924 H         1 UNK         0.3000 
    185 H185        2.3182  -10.0230  -48.6149 H         1 UNK         0.0600 
    186 H186        2.4564  -10.6122  -45.6109 H         1 UNK         0.0600 
    187 H187        3.8037  -10.0529  -46.6002 H         1 UNK         0.0600 
    188 H188        2.4045   -9.0202  -46.3584 H         1 UNK         0.0600 
    189 H189        3.2899  -12.0263  -48.8069 H         1 UNK         0.3000 
    190 H190       -1.5077  -21.6023  -44.6307 H         1 UNK         0.3000 
    191 H191       -4.3368  -21.6709  -44.1689 H         1 UNK         0.0600 
    192 H192       -3.6440  -21.4877  -41.7588 H         1 UNK         0.0600 
    193 H193       -2.8694  -20.2898  -42.7779 H         1 UNK         0.0600 
    194 H194       -1.9634  -21.7011  -42.2312 H         1 UNK         0.0600 
    195 H195       -1.7345  -24.0601  -43.7559 H         1 UNK         0.3000 
    196 H196       -3.3757  -26.1529  -42.6445 H         1 UNK         0.0600 
    197 H197       -1.3754  -27.5461  -43.1060 H         1 UNK         0.0600 
    198 H198       -0.8842  -26.0206  -42.3855 H         1 UNK         0.0600 
    199 H199       -0.6898  -26.2832  -44.1182 H         1 UNK         0.0600 
    200 H200       -3.2364  -24.8514  -45.7901 H         1 UNK         0.3000 
    201 H201       -3.9545  -25.3413  -47.7983 H         1 UNK         0.0600 
    202 H202       -6.1049  -25.8668  -46.6287 H         1 UNK         0.0600 
    203 H203       -5.6463  -27.5685  -46.5536 H         1 UNK         0.0600 
    204 H204       -5.9100  -26.7912  -48.1080 H         1 UNK         0.0600 
    205 H205       -1.5059  -26.5334  -46.9026 H         1 UNK         0.3000 
    206 H206       -1.1938  -29.0351  -48.4609 H         1 UNK         0.0600 
    207 H207       -0.0035  -28.8296  -46.2845 H         1 UNK         0.0600 
    208 H208        1.1466  -28.9054  -47.6114 H         1 UNK         0.0600 
    209 H209        0.8031  -27.3634  -46.8360 H         1 UNK         0.0600 
    210 H210       -0.4672  -25.5713  -48.5264 H         1 UNK         0.3000 
    211 H211        0.7960  -25.6900  -51.2109 H         1 UNK         0.0600 
    212 H212        0.3381  -23.3714  -49.2660 H         1 UNK         0.0600 
    213 H213        1.2419  -23.2704  -50.7691 H         1 UNK         0.0600 
    214 H214        1.8443  -24.2607  -49.4563 H         1 UNK         0.0600 
    215 H215        0.0025  -23.5975  -52.5043 H         1 UNK         0.3000 
    216 H216       -2.5765  -24.2579  -53.5358 H         1 UNK         0.0600 
    217 H217       -1.9867  -22.5044  -55.2140 H         1 UNK         0.0600 
    218 H218       -0.6639  -23.6285  -54.9646 H         1 UNK         0.0600 
    219 H219       -0.6051  -22.0239  -54.2366 H         1 UNK         0.0600 
    220 H220       -3.4418  -23.7381  -51.1988 H         1 UNK         0.3000 
    221 H221       -4.2434  -21.1466  -50.4379 H         1 UNK         0.0600 
    222 H222       -5.7174  -23.8141  -50.0565 H         1 UNK         0.0600 
    223 H223       -4.4126  -23.2248  -49.0339 H         1 UNK         0.0600 
    224 H224       -5.9412  -22.3592  -49.0890 H         1 UNK         0.0600 
    225 H225       -6.0433  -19.9101  -50.8384 H         1 UNK         0.3000 
    226 H226       -7.6788  -18.8865  -51.8636 H         1 UNK         0.0600 
    227 H227       -9.0787  -20.9310  -51.6189 H         1 UNK         0.0600 
    228 H228       -9.4709  -20.0207  -53.0693 H         1 UNK         0.0600 
    229 H229       -8.5361  -21.4994  -53.1979 H         1 UNK         0.0600 
    230 H230       -5.9053  -21.0472  -54.0621 H         1 UNK         0.3000 
    231 H231       -6.2939  -19.5124  -56.4432 H         1 UNK         0.0600 
    232 H232       -4.5089  -21.0269  -57.3496 H         1 UNK         0.0600 
    233 H233       -5.7598  -21.9185  -56.4962 H         1 UNK         0.0600 
    234 H234       -4.2018  -21.6317  -55.7253 H         1 UNK         0.0600 
    235 H235       -3.5398  -19.6622  -54.1156 H         1 UNK         0.3000 
    236 H236       -1.9651  -17.7288  -55.6047 H         1 UNK         0.0600 
    237 H237       -1.6004  -18.9757  -52.8449 H         1 UNK         0.0600 
    238 H238       -0.9240  -19.5916  -54.3515 H         1 UNK         0.0600 
    239 H239       -0.3754  -18.0515  -53.7043 H         1 UNK         0.0600 
    240 H240       -4.5288  -17.3434  -53.3648 H         1 UNK         0.3000 
    241 H241       -3.6163  -15.1151  -51.8720 H         1 UNK         0.0600 
    242 H242       -4.0399  -12.8102  -52.0377 H         1 UNK         0.3800 
    243 H243       -4.5086  -12.1128  -53.5601 H         1 UNK         0.3800 
    244 H244       -5.9618  -14.8085  -51.1787 H         1 UNK         0.0800 
    245 H245       -6.5246  -15.8052  -52.4920 H         1 UNK         0.0800 
    246 H246       -4.8227  -15.5462  -49.1120 H         1 UNK         0.0800 
    247 H247       -4.9472  -17.1512  -48.4444 H         1 UNK         0.0800 
@<TRIPOS>BOND
     1    1    2 1    
     2    1  127 1    
     3    1  128 1    
     4    1  129 1    
     5    2    3 2    
     6    2    4 am   BACKBONE|DICT|INTERRES
     7    4    5 1    
     8    4  130 1    
     9    5    6 1    
    10    5   65 1    
    11    5  131 1    
    12    6    7 1    
    13    6  132 1    
    14    6  133 1    
    15    7    8 1    
    16    8    9 1    
    17    8  134 1    
    18    8  135 1    
    19    9   10 ar   
    20    9   14 ar   
    21   10   11 ar   
    22   10  136 1    
    23   11   12 ar   
    24   11  126 1    
    25   12   13 ar   
    26   12  137 1    
    27   13   14 ar   
    28   13   15 1    
    29   14  138 1    
    30   15   16 1    
    31   15  139 1    
    32   15  140 1    
    33   16   17 1    
    34   17   18 1    
    35   17  141 1    
    36   17  142 1    
    37   18   19 1    
    38   18   67 1    
    39   18  143 1    
    40   19   20 am   BACKBONE|DICT|INTERRES
    41   19  144 1    
    42   20   21 2    
    43   20   22 1    
    44   22   23 1    
    45   22   24 1    
    46   22  145 1    
    47   23  146 1    
    48   23  147 1    
    49   23  148 1    
    50   24   25 am   BACKBONE|DICT|INTERRES
    51   24  149 1    
    52   25   26 2    
    53   25   27 1    
    54   27   28 1    
    55   27   29 1    
    56   27  150 1    
    57   28  151 1    
    58   28  152 1    
    59   28  153 1    
    60   29   30 am   BACKBONE|DICT|INTERRES
    61   29  154 1    
    62   30   31 2    
    63   30   32 1    
    64   32   33 1    
    65   32   34 1    
    66   32  155 1    
    67   33  156 1    
    68   33  157 1    
    69   33  158 1    
    70   34   35 am   BACKBONE|DICT|INTERRES
    71   34  159 1    
    72   35   36 2    
    73   35   37 1    
    74   37   38 1    
    75   37   39 1    
    76   37  160 1    
    77   38  161 1    
    78   38  162 1    
    79   38  163 1    
    80   39   40 am   BACKBONE|DICT|INTERRES
    81   39  164 1    
    82   40   41 2    
    83   40   42 1    
    84   42   43 1    
    85   42   44 1    
    86   42  165 1    
    87   43  166 1    
    88   43  167 1    
    89   43  168 1    
    90   44   45 am   BACKBONE|DICT|INTERRES
    91   44  169 1    
    92   45   46 2    
    93   45   47 1    
    94   47   48 1    
    95   47   49 1    
    96   47  170 1    
    97   48  171 1    
    98   48  172 1    
    99   48  173 1    
   100   49   50 am   BACKBONE|DICT|INTERRES
   101   49  174 1    
   102   50   51 2    
   103   50   52 1    
   104   52   53 1    
   105   52   54 1    
   106   52  175 1    
   107   53  176 1    
   108   53  177 1    
   109   53  178 1    
   110   54   55 am   BACKBONE|DICT|INTERRES
   111   54  179 1    
   112   55   56 2    
   113   55   57 1    
   114   57   58 1    
   115   57   59 1    
   116   57  180 1    
   117   58  181 1    
   118   58  182 1    
   119   58  183 1    
   120   59   60 am   BACKBONE|DICT|INTERRES
   121   59  184 1    
   122   60   61 2    
   123   60   62 1    
   124   62   63 1    
   125   62   64 1    
   126   62  185 1    
   127   63  186 1    
   128   63  187 1    
   129   63  188 1    
   130   64   65 am   BACKBONE|DICT|INTERRES
   131   64  189 1    
   132   65   66 2    
   133   67   68 2    
   134   67   69 am   BACKBONE|DICT|INTERRES
   135   69   70 1    
   136   69  190 1    
   137   70   71 1    
   138   70   72 1    
   139   70  191 1    
   140   71  192 1    
   141   71  193 1    
   142   71  194 1    
   143   72   73 2    
   144   72   74 am   BACKBONE|DICT|INTERRES
   145   74   75 1    
   146   74  195 1    
   147   75   76 1    
   148   75   77 1    
   149   75  196 1    
   150   76  197 1    
   151   76  198 1    
   152   76  199 1    
   153   77   78 2    
   154   77   79 am   BACKBONE|DICT|INTERRES
   155   79   80 1    
   156   79  200 1    
   157   80   81 1    
   158   80   82 1    
   159   80  201 1    
   160   81  202 1    
   161   81  203 1    
   162   81  204 1    
   163   82   83 2    
   164   82   84 am   BACKBONE|DICT|INTERRES
   165   84   85 1    
   166   84  205 1    
   167   85   86 1    
   168   85   87 1    
   169   85  206 1    
   170   86  207 1    
   171   86  208 1    
   172   86  209 1    
   173   87   88 2    
   174   87   89 am   BACKBONE|DICT|INTERRES
   175   89   90 1    
   176   89  210 1    
   177   90   91 1    
   178   90   92 1    
   179   90  211 1    
   180   91  212 1    
   181   91  213 1    
   182   91  214 1    
   183   92   93 2    
   184   92   94 am   BACKBONE|DICT|INTERRES
   185   94   95 1    
   186   94  215 1    
   187   95   96 1    
   188   95   97 1    
   189   95  216 1    
   190   96  217 1    
   191   96  218 1    
   192   96  219 1    
   193   97   98 2    
   194   97   99 am   BACKBONE|DICT|INTERRES
   195   99  100 1    
   196   99  220 1    
   197  100  101 1    
   198  100  102 1    
   199  100  221 1    
   200  101  222 1    
   201  101  223 1    
   202  101  224 1    
   203  102  103 2    
   204  102  104 am   BACKBONE|DICT|INTERRES
   205  104  105 1    
   206  104  225 1    
   207  105  106 1    
   208  105  107 1    
   209  105  226 1    
   210  106  227 1    
   211  106  228 1    
   212  106  229 1    
   213  107  108 2    
   214  107  109 am   BACKBONE|DICT|INTERRES
   215  109  110 1    
   216  109  230 1    
   217  110  111 1    
   218  110  112 1    
   219  110  231 1    
   220  111  232 1    
   221  111  233 1    
   222  111  234 1    
   223  112  113 2    
   224  112  114 am   BACKBONE|DICT|INTERRES
   225  114  115 1    
   226  114  235 1    
   227  115  116 1    
   228  115  117 1    
   229  115  236 1    
   230  116  237 1    
   231  116  238 1    
   232  116  239 1    
   233  117  118 2    
   234  117  119 am   BACKBONE|DICT|INTERRES
   235  119  120 1    
   236  119  240 1    
   237  120  121 1    
   238  120  124 1    
   239  120  241 1    
   240  121  122 am   BACKBONE|DICT|INTERRES
   241  121  123 2    
   242  122  242 1    
   243  122  243 1    
   244  124  125 1    
   245  124  244 1    
   246  124  245 1    
   247  125  126 1    
   248  126  246 1    
   249  126  247 1    
@<TRIPOS>SUBSTRUCTURE
     1 UNK         1 GROUP             0       ****    0 ROOT    
