@<TRIPOS>MOLECULE
3R540
247   249    1
SMALL
USER_CHARGES


@<TRIPOS>ATOM
      1 CA         -3.5087  -11.4935  -50.7798 C.3       0 UNK        -0.1800 
      2 C          -2.5126  -12.5725  -50.3812 C.2       0 UNK         0.5000 
      3 O          -2.2125  -13.4517  -51.1854 O.2       0 UNK        -0.5000 
      4 N          -1.9900  -12.4998  -49.1493 N.am      1 UNK        -0.5000 
      5 CA         -1.1005  -13.5036  -48.5460 C.3       1 UNK         0.1400 
      6 C6         -0.9895  -13.3388  -47.0065 C.3       23 UNK        -0.0398 
      7 S7         -2.5989  -13.4439  -46.1469 S.3       23 UNK        -0.2404 
      8 C8         -2.6363  -15.1868  -45.6046 C.3       23 UNK        -0.0205 
      9 C9         -2.4925  -16.1418  -46.7780 C.ar      23 UNK        -0.0193 
     10 C10        -3.5152  -16.2286  -47.7262 C.ar      23 UNK        -0.1150 
     11 C11        -3.3457  -16.9859  -48.8879 C.ar      23 UNK        -0.0193 
     12 C12        -2.1538  -17.6935  -49.0676 C.ar      23 UNK        -0.1150 
     13 C13        -1.1515  -17.6749  -48.0948 C.ar      23 UNK        -0.0193 
     14 C14        -1.3211  -16.8877  -46.9521 C.ar      23 UNK        -0.1150 
     15 C15         0.1258  -18.4754  -48.3098 C.3       23 UNK        -0.0205 
     16 S16        -0.1913  -20.2662  -48.4591 S.3       23 UNK        -0.2404 
     17 C17        -0.4772  -20.7158  -46.7187 C.3       23 UNK        -0.0398 
     18 CA         -0.5228  -22.2508  -46.4905 C.3       11 UNK         0.1400 
     19 N           0.0334  -22.6161  -45.1846 N.am      11 UNK        -0.5000 
     20 C           0.2073  -23.8623  -44.7226 C.2       10 UNK         0.5000 
     21 O          -0.0404  -24.8781  -45.3697 O.2       10 UNK        -0.5000 
     22 CA          0.6840  -23.9916  -43.2662 C.3       10 UNK         0.1400 
     23 CB          2.2109  -23.8545  -43.1692 C.3       10 UNK        -0.1800 
     24 N           0.0391  -23.0061  -42.3980 N.am      10 UNK        -0.5000 
     25 C          -1.2578  -23.0350  -42.0594 C.2       9 UNK         0.5000 
     26 O          -2.0341  -23.9260  -42.4026 O.2       9 UNK        -0.5000 
     27 CA         -1.7851  -21.8415  -41.2428 C.3       9 UNK         0.1400 
     28 CB         -1.4468  -22.0080  -39.7539 C.3       9 UNK        -0.1800 
     29 N          -1.2650  -20.5594  -41.7212 N.am      9 UNK        -0.5000 
     30 C          -1.5407  -20.0330  -42.9228 C.2       8 UNK         0.5000 
     31 O          -2.2859  -20.5624  -43.7466 O.2       8 UNK        -0.5000 
     32 CA         -0.8281  -18.7163  -43.2837 C.3       8 UNK         0.1400 
     33 CB         -1.6288  -17.5213  -42.7494 C.3       8 UNK        -0.1800 
     34 N           0.5583  -18.6275  -42.8094 N.am      8 UNK        -0.5000 
     35 C           1.5338  -19.5031  -43.1008 C.2       7 UNK         0.5000 
     36 O           1.3368  -20.5377  -43.7374 O.2       7 UNK        -0.5000 
     37 CA          2.9574  -19.1867  -42.6047 C.3       7 UNK         0.1400 
     38 CB          4.0240  -19.6296  -43.6224 C.3       7 UNK        -0.1800 
     39 N           3.1239  -17.7580  -42.3507 N.am      7 UNK        -0.5000 
     40 C           3.4557  -17.2011  -41.1784 C.2       6 UNK         0.5000 
     41 O           3.6572  -17.8463  -40.1491 O.2       6 UNK        -0.5000 
     42 CA          3.5890  -15.6628  -41.1391 C.3       6 UNK         0.1400 
     43 CB          5.0698  -15.2540  -41.1056 C.3       6 UNK        -0.1800 
     44 N           2.9428  -14.9879  -42.2671 N.am      6 UNK        -0.5000 
     45 C           1.6199  -14.9310  -42.4707 C.2       5 UNK         0.5000 
     46 O           0.7916  -15.3866  -41.6830 O.2       5 UNK        -0.5000 
     47 CA          1.1456  -14.3109  -43.7997 C.3       5 UNK         0.1400 
     48 CB          0.7894  -12.8304  -43.6024 C.3       5 UNK        -0.1800 
     49 N           2.1095  -14.4326  -44.8993 N.am      5 UNK        -0.5000 
     50 C           2.5808  -15.5821  -45.4077 C.2       4 UNK         0.5000 
     51 O           2.2520  -16.6884  -44.9790 O.2       4 UNK        -0.5000 
     52 CA          3.6000  -15.4814  -46.5613 C.3       4 UNK         0.1400 
     53 CB          3.3970  -16.5923  -47.6057 C.3       4 UNK        -0.1800 
     54 N           3.5455  -14.1779  -47.2289 N.am      4 UNK        -0.5000 
     55 C           4.3558  -13.1409  -46.9710 C.2       3 UNK         0.5000 
     56 O           5.2533  -13.1873  -46.1291 O.2       3 UNK        -0.5000 
     57 CA          4.0974  -11.8122  -47.7187 C.3       3 UNK         0.1400 
     58 CB          5.4027  -11.1598  -48.2207 C.3       3 UNK        -0.1800 
     59 N           3.0928  -11.8952  -48.7873 N.am      3 UNK        -0.5000 
     60 C           3.1818  -12.5448  -49.9582 C.2       2 UNK         0.5000 
     61 O           4.1863  -13.1491  -50.3365 O.2       2 UNK        -0.5000 
     62 CA          1.9036  -12.5336  -50.8274 C.3       2 UNK         0.1400 
     63 CB          1.9076  -13.6337  -51.9102 C.3       2 UNK        -0.1800 
     64 N           0.6606  -12.6042  -50.0439 N.am      2 UNK        -0.5000 
     65 C           0.3081  -13.5685  -49.1776 C.2       1 UNK         0.5000 
     66 O           1.0617  -14.4816  -48.8437 O.2       1 UNK        -0.5000 
     67 C          -1.9455  -22.8197  -46.6869 C.2       11 UNK         0.5000 
     68 O          -2.2431  -23.3835  -47.7415 O.2       11 UNK        -0.5000 
     69 N          -2.7825  -22.7010  -45.6469 N.am      12 UNK        -0.5000 
     70 CA         -4.1198  -23.2836  -45.5826 C.3       12 UNK         0.1400 
     71 CB         -4.8795  -22.6978  -44.3832 C.3       12 UNK        -0.1800 
     72 C          -4.0931  -24.8209  -45.5275 C.2       12 UNK         0.5000 
     73 O          -4.8041  -25.4601  -46.3028 O.2       12 UNK        -0.5000 
     74 N          -3.2641  -25.3889  -44.6386 N.am      13 UNK        -0.5000 
     75 CA         -3.1310  -26.8348  -44.4263 C.3       13 UNK         0.1400 
     76 CB         -2.2199  -27.0980  -43.2184 C.3       13 UNK        -0.1800 
     77 C          -2.6212  -27.6009  -45.6614 C.2       13 UNK         0.5000 
     78 O          -3.1008  -28.7019  -45.9344 O.2       13 UNK        -0.5000 
     79 N          -1.6833  -26.9954  -46.4008 N.am      14 UNK        -0.5000 
     80 CA         -1.1413  -27.5188  -47.6564 C.3       14 UNK         0.1400 
     81 CB          0.2015  -26.8238  -47.9361 C.3       14 UNK        -0.1800 
     82 C          -2.0894  -27.3372  -48.8595 C.2       14 UNK         0.5000 
     83 O          -1.8067  -27.8813  -49.9271 O.2       14 UNK        -0.5000 
     84 N          -3.1588  -26.5442  -48.6849 N.am      15 UNK        -0.5000 
     85 CA         -4.1170  -26.0811  -49.6970 C.3       15 UNK         0.1400 
     86 CB         -4.8658  -27.2566  -50.3562 C.3       15 UNK        -0.1800 
     87 C          -3.5026  -25.1173  -50.7343 C.2       15 UNK         0.5000 
     88 O          -4.1486  -24.7989  -51.7340 O.2       15 UNK        -0.5000 
     89 N          -2.2936  -24.6111  -50.4569 N.am      16 UNK        -0.5000 
     90 CA         -1.5900  -23.6089  -51.2542 C.3       16 UNK         0.1400 
     91 CB         -0.1690  -23.4275  -50.7020 C.3       16 UNK        -0.1800 
     92 C          -2.3436  -22.2691  -51.2960 C.2       16 UNK         0.5000 
     93 O          -2.3354  -21.6063  -52.3300 O.2       16 UNK        -0.5000 
     94 N          -3.0348  -21.9377  -50.1968 N.am      17 UNK        -0.5000 
     95 CA         -3.9073  -20.7711  -50.0738 C.3       17 UNK         0.1400 
     96 CB         -4.2678  -20.5745  -48.5935 C.3       17 UNK        -0.1800 
     97 C          -5.1811  -20.8446  -50.9372 C.2       17 UNK         0.5000 
     98 O          -5.7496  -19.8014  -51.2586 O.2       17 UNK        -0.5000 
     99 N          -5.6140  -22.0611  -51.2930 N.am      18 UNK        -0.5000 
    100 CA        -6.7183  -22.2877  -52.2230 C.3       18 UNK         0.1400 
    101 CB        -7.4342  -23.5987  -51.8601 C.3       18 UNK        -0.1800 
    102 C         -6.2134  -22.3213  -53.6753 C.2       18 UNK         0.5000 
    103 O         -6.8864  -21.8011  -54.5658 O.2       18 UNK        -0.5000 
    104 N         -5.0458  -22.9427  -53.8877 N.am      19 UNK        -0.5000 
    105 CA        -4.4394  -23.1439  -55.2011 C.3       19 UNK         0.1400 
    106 CB        -3.3776  -24.2491  -55.0918 C.3       19 UNK        -0.1800 
    107 C         -3.8226  -21.8736  -55.8160 C.2       19 UNK         0.5000 
    108 O         -3.8408  -21.7399  -57.0409 O.2       19 UNK        -0.5000 
    109 N         -3.2585  -20.9876  -54.9859 N.am      20 UNK        -0.5000 
    110 CA        -2.4578  -19.8449  -55.4201 C.3       20 UNK         0.1400 
    111 CB        -1.0049  -20.3172  -55.6379 C.3       20 UNK        -0.1800 
    112 C         -2.5306  -18.6803  -54.4161 C.2       20 UNK         0.5000 
    113 O         -3.2119  -18.7728  -53.3921 O.2       20 UNK        -0.5000 
    114 N         -1.8111  -17.5981  -54.7503 N.am      21 UNK        -0.5000 
    115 CA        -1.6447  -16.3309  -54.0284 C.3       21 UNK         0.1400 
    116 CB        -1.0436  -16.5459  -52.6242 C.3       21 UNK        -0.1800 
    117 C         -2.9265  -15.4795  -53.9904 C.2       21 UNK         0.5000 
    118 O         -2.9459  -14.3867  -54.5594 O.2       21 UNK        -0.5000 
    119 N         -3.9700  -16.0022  -53.3442 N.am      22 UNK        -0.5000 
    120 CA        -5.2850  -15.3665  -53.2076 C.3       22 UNK         0.1400 
    121 C         -6.1655  -15.5664  -54.4714 C.2       22 UNK         0.5000 
    122 N         -7.1012  -14.6617  -54.7267 N.am      22 UNK        -0.7600 
    123 O         -6.0364  -16.5429  -55.2072 O.2       22 UNK        -0.5000 
    124 C124       -6.0171  -15.8564  -51.9339 C.3       23 UNK        -0.0398 
    125 S125       -5.0968  -15.4259  -50.4169 S.3       23 UNK        -0.2404 
    126 C126       -4.4425  -17.0581  -49.9440 C.3       23 UNK        -0.0205 
    127 H127       -3.1451  -10.9500  -51.6518 H         1 UNK         0.0600 
    128 H128       -3.6755  -10.7771  -49.9751 H         1 UNK         0.0600 
    129 H129       -4.4662  -11.9481  -51.0349 H         1 UNK         0.0600 
    130 H130       -2.2831  -11.7553  -48.5329 H         1 UNK         0.3000 
    131 H131       -1.5460  -14.4775  -48.7507 H         1 UNK         0.0600 
    132 H132       -0.3234  -14.0915  -46.5813 H         1 UNK         0.0800 
    133 H133       -0.5436  -12.3726  -46.7663 H         1 UNK         0.0800 
    134 H134       -1.8475  -15.3493  -44.8737 H         1 UNK         0.0800 
    135 H135       -3.5785  -15.3828  -45.0910 H         1 UNK         0.0800 
    136 H136       -4.4234  -15.6602  -47.5837 H         1 UNK         0.1150 
    137 H137       -1.9966  -18.2740  -49.9637 H         1 UNK         0.1150 
    138 H138       -0.5295  -16.8301  -46.2178 H         1 UNK         0.1150 
    139 H139        0.8377  -18.3001  -47.5018 H         1 UNK         0.0800 
    140 H140        0.6058  -18.1251  -49.2245 H         1 UNK         0.0800 
    141 H141       -1.3789  -20.2183  -46.3567 H         1 UNK         0.0800 
    142 H142        0.3470  -20.2802  -46.1536 H         1 UNK         0.0800 
    143 H143        0.1218  -22.7336  -47.2277 H         1 UNK         0.0600 
    144 H144        0.3268  -21.8466  -44.5876 H         1 UNK         0.3000 
    145 H145        0.4135  -24.9877  -42.9110 H         1 UNK         0.0600 
    146 H146        2.7069  -24.6128  -43.7763 H         1 UNK         0.0600 
    147 H147        2.5540  -23.9850  -42.1428 H         1 UNK         0.0600 
    148 H148        2.5566  -22.8813  -43.5174 H         1 UNK         0.0600 
    149 H149        0.5918  -22.2030  -42.1367 H         1 UNK         0.3000 
    150 H150       -2.8723  -21.8242  -41.3456 H         1 UNK         0.0600 
    151 H151       -0.3701  -22.0024  -39.5803 H         1 UNK         0.0600 
    152 H152       -1.8368  -22.9512  -39.3690 H         1 UNK         0.0600 
    153 H153       -1.8873  -21.2084  -39.1580 H         1 UNK         0.0600 
    154 H154       -0.6375  -20.0596  -41.1086 H         1 UNK         0.3000 
    155 H155       -0.8006  -18.6466  -44.3726 H         1 UNK         0.0600 
    156 H156       -1.6817  -17.5261  -41.6600 H         1 UNK         0.0600 
    157 H157       -2.6507  -17.5320  -43.1310 H         1 UNK         0.0600 
    158 H158       -1.1788  -16.5789  -43.0539 H         1 UNK         0.0600 
    159 H159        0.8004  -17.8018  -42.2790 H         1 UNK         0.3000 
    160 H160        3.1008  -19.7614  -41.6880 H         1 UNK         0.0600 
    161 H161        3.8884  -19.1330  -44.5843 H         1 UNK         0.0600 
    162 H162        3.9825  -20.7052  -43.7976 H         1 UNK         0.0600 
    163 H163        5.0279  -19.4000  -43.2653 H         1 UNK         0.0600 
    164 H164        2.9357  -17.1596  -43.1490 H         1 UNK         0.3000 
    165 H165        3.1159  -15.3168  -40.2177 H         1 UNK         0.0600 
    166 H166        5.1794  -14.1739  -41.0067 H         1 UNK         0.0600 
    167 H167        5.5828  -15.7096  -40.2575 H         1 UNK         0.0600 
    168 H168        5.5931  -15.5643  -42.0109 H         1 UNK         0.0600 
    169 H169        3.5523  -14.5877  -42.9653 H         1 UNK         0.3000 
    170 H170        0.2438  -14.8446  -44.0988 H         1 UNK         0.0600 
    171 H171        0.3683  -12.3971  -44.5086 H         1 UNK         0.0600 
    172 H172        1.6631  -12.2405  -43.3229 H         1 UNK         0.0600 
    173 H173        0.0457  -12.7099  -42.8134 H         1 UNK         0.0600 
    174 H174        2.4482  -13.5712  -45.2998 H         1 UNK         0.3000 
    175 H175        4.5864  -15.6301  -46.1181 H         1 UNK         0.0600 
    176 H176        3.5078  -17.5809  -47.1583 H         1 UNK         0.0600 
    177 H177        2.4067  -16.5453  -48.0560 H         1 UNK         0.0600 
    178 H178        4.1312  -16.5162  -48.4078 H         1 UNK         0.0600 
    179 H179        2.8094  -14.0755  -47.9210 H         1 UNK         0.3000 
    180 H180        3.6711  -11.1394  -46.9733 H         1 UNK         0.0600 
    181 H181        5.9481  -11.8110  -48.9040 H         1 UNK         0.0600 
    182 H182        6.0710  -10.9331  -47.3892 H         1 UNK         0.0600 
    183 H183        5.2022  -10.2214  -48.7376 H         1 UNK         0.0600 
    184 H184        2.2131  -11.4413  -48.5848 H         1 UNK         0.3000 
    185 H185        1.8931  -11.5694  -51.3372 H         1 UNK         0.0600 
    186 H186        2.7563  -13.5186  -52.5853 H         1 UNK         0.0600 
    187 H187        1.9690  -14.6309  -51.4726 H         1 UNK         0.0600 
    188 H188        1.0031  -13.5915  -52.5173 H         1 UNK         0.0600 
    189 H189       -0.0255  -11.8896  -50.2418 H         1 UNK         0.3000 
    190 H190       -2.4828  -22.1648  -44.8377 H         1 UNK         0.3000 
    191 H191       -4.6564  -22.9994  -46.4888 H         1 UNK         0.0600 
    192 H192       -4.9729  -21.6150  -44.4696 H         1 UNK         0.0600 
    193 H193       -5.8880  -23.1082  -44.3203 H         1 UNK         0.0600 
    194 H194       -4.3764  -22.9134  -43.4403 H         1 UNK         0.0600 
    195 H195       -2.7315  -24.7918  -44.0123 H         1 UNK         0.3000 
    196 H196       -4.1239  -27.2222  -44.1894 H         1 UNK         0.0600 
    197 H197       -2.1248  -28.1672  -43.0251 H         1 UNK         0.0600 
    198 H198       -2.6203  -26.6396  -42.3142 H         1 UNK         0.0600 
    199 H199       -1.2170  -26.7030  -43.3803 H         1 UNK         0.0600 
    200 H200       -1.2891  -26.1173  -46.0700 H         1 UNK         0.3000 
    201 H201       -0.9566  -28.5887  -47.5407 H         1 UNK         0.0600 
    202 H202        0.6659  -27.2120  -48.8435 H         1 UNK         0.0600 
    203 H203        0.9053  -26.9831  -47.1189 H         1 UNK         0.0600 
    204 H204        0.0771  -25.7475  -48.0647 H         1 UNK         0.0600 
    205 H205       -3.3094  -26.1622  -47.7588 H         1 UNK         0.3000 
    206 H206       -4.8554  -25.4918  -49.1518 H         1 UNK         0.0600 
    207 H207       -5.2892  -27.9245  -49.6061 H         1 UNK         0.0600 
    208 H208       -5.6912  -26.8960  -50.9713 H         1 UNK         0.0600 
    209 H209       -4.2145  -27.8445  -51.0030 H         1 UNK         0.0600 
    210 H210       -1.8803  -24.8490  -49.5664 H         1 UNK         0.3000 
    211 H211       -1.5148  -23.9834  -52.2763 H         1 UNK         0.0600 
    212 H212       -0.1807  -23.1020  -49.6621 H         1 UNK         0.0600 
    213 H213        0.3801  -22.6786  -51.2743 H         1 UNK         0.0600 
    214 H214        0.3960  -24.3582  -50.7547 H         1 UNK         0.0600 
    215 H215       -2.9359  -22.5287  -49.3769 H         1 UNK         0.3000 
    216 H216       -3.3475  -19.9052  -50.4217 H         1 UNK         0.0600 
    217 H217       -4.9190  -19.7121  -48.4535 H         1 UNK         0.0600 
    218 H218       -3.3773  -20.4053  -47.9889 H         1 UNK         0.0600 
    219 H219       -4.7906  -21.4427  -48.1943 H         1 UNK         0.0600 
    220 H220       -5.0757  -22.8711  -51.0191 H         1 UNK         0.3000 
    221 H221       -7.4466  -21.4783  -52.1373 H         1 UNK         0.0600 
    222 H222       -6.7766  -24.4634  -51.9508 H         1 UNK         0.0600 
    223 H223       -7.8117  -23.5711  -50.8378 H         1 UNK         0.0600 
    224 H224       -8.2879  -23.7685  -52.5172 H         1 UNK         0.0600 
    225 H225       -4.5859  -23.3952  -53.1053 H         1 UNK         0.3000 
    226 H226       -5.2181  -23.4943  -55.8819 H         1 UNK         0.0600 
    227 H227       -3.8071  -25.1748  -54.7078 H         1 UNK         0.0600 
    228 H228       -2.9426  -24.4712  -56.0670 H         1 UNK         0.0600 
    229 H229       -2.5635  -23.9565  -54.4286 H         1 UNK         0.0600 
    230 H230       -3.2662  -21.1462  -53.9808 H         1 UNK         0.3000 
    231 H231       -2.8545  -19.4649  -56.3639 H         1 UNK         0.0600 
    232 H232       -0.5612  -20.6725  -54.7067 H         1 UNK         0.0600 
    233 H233       -0.3709  -19.5179  -56.0218 H         1 UNK         0.0600 
    234 H234       -0.9569  -21.1321  -56.3604 H         1 UNK         0.0600 
    235 H235       -1.3209  -17.6316  -55.6330 H         1 UNK         0.3000 
    236 H236       -0.9108  -15.7624  -54.6017 H         1 UNK         0.0600 
    237 H237       -1.7236  -17.0851  -51.9666 H         1 UNK         0.0600 
    238 H238       -0.1106  -17.1069  -52.6743 H         1 UNK         0.0600 
    239 H239       -0.8232  -15.5911  -52.1457 H         1 UNK         0.0600 
    240 H240       -3.8858  -16.9578  -53.0137 H         1 UNK         0.3000 
    241 H241       -5.1216  -14.2920  -53.0988 H         1 UNK         0.0600 
    242 H242       -7.6892  -14.7825  -55.5371 H         1 UNK         0.3800 
    243 H243       -7.2321  -13.8521  -54.1396 H         1 UNK         0.3800 
    244 H244       -6.1909  -16.9335  -51.9763 H         1 UNK         0.0800 
    245 H245       -7.0023  -15.3934  -51.8577 H         1 UNK         0.0800 
    246 H246       -5.2639  -17.6657  -49.5650 H         1 UNK         0.0800 
    247 H247       -4.0679  -17.5577  -50.8384 H         1 UNK         0.0800 
@<TRIPOS>BOND
     1    1    2 1    
     2    1  127 1    
     3    1  128 1    
     4    1  129 1    
     5    2    3 2    
     6    2    4 am   BACKBONE|DICT|INTERRES
     7    4    5 1    
     8    4  130 1    
     9    5    6 1    
    10    5   65 1    
    11    5  131 1    
    12    6    7 1    
    13    6  132 1    
    14    6  133 1    
    15    7    8 1    
    16    8    9 1    
    17    8  134 1    
    18    8  135 1    
    19    9   10 ar   
    20    9   14 ar   
    21   10   11 ar   
    22   10  136 1    
    23   11   12 ar   
    24   11  126 1    
    25   12   13 ar   
    26   12  137 1    
    27   13   14 ar   
    28   13   15 1    
    29   14  138 1    
    30   15   16 1    
    31   15  139 1    
    32   15  140 1    
    33   16   17 1    
    34   17   18 1    
    35   17  141 1    
    36   17  142 1    
    37   18   19 1    
    38   18   67 1    
    39   18  143 1    
    40   19   20 am   BACKBONE|DICT|INTERRES
    41   19  144 1    
    42   20   21 2    
    43   20   22 1    
    44   22   23 1    
    45   22   24 1    
    46   22  145 1    
    47   23  146 1    
    48   23  147 1    
    49   23  148 1    
    50   24   25 am   BACKBONE|DICT|INTERRES
    51   24  149 1    
    52   25   26 2    
    53   25   27 1    
    54   27   28 1    
    55   27   29 1    
    56   27  150 1    
    57   28  151 1    
    58   28  152 1    
    59   28  153 1    
    60   29   30 am   BACKBONE|DICT|INTERRES
    61   29  154 1    
    62   30   31 2    
    63   30   32 1    
    64   32   33 1    
    65   32   34 1    
    66   32  155 1    
    67   33  156 1    
    68   33  157 1    
    69   33  158 1    
    70   34   35 am   BACKBONE|DICT|INTERRES
    71   34  159 1    
    72   35   36 2    
    73   35   37 1    
    74   37   38 1    
    75   37   39 1    
    76   37  160 1    
    77   38  161 1    
    78   38  162 1    
    79   38  163 1    
    80   39   40 am   BACKBONE|DICT|INTERRES
    81   39  164 1    
    82   40   41 2    
    83   40   42 1    
    84   42   43 1    
    85   42   44 1    
    86   42  165 1    
    87   43  166 1    
    88   43  167 1    
    89   43  168 1    
    90   44   45 am   BACKBONE|DICT|INTERRES
    91   44  169 1    
    92   45   46 2    
    93   45   47 1    
    94   47   48 1    
    95   47   49 1    
    96   47  170 1    
    97   48  171 1    
    98   48  172 1    
    99   48  173 1    
   100   49   50 am   BACKBONE|DICT|INTERRES
   101   49  174 1    
   102   50   51 2    
   103   50   52 1    
   104   52   53 1    
   105   52   54 1    
   106   52  175 1    
   107   53  176 1    
   108   53  177 1    
   109   53  178 1    
   110   54   55 am   BACKBONE|DICT|INTERRES
   111   54  179 1    
   112   55   56 2    
   113   55   57 1    
   114   57   58 1    
   115   57   59 1    
   116   57  180 1    
   117   58  181 1    
   118   58  182 1    
   119   58  183 1    
   120   59   60 am   BACKBONE|DICT|INTERRES
   121   59  184 1    
   122   60   61 2    
   123   60   62 1    
   124   62   63 1    
   125   62   64 1    
   126   62  185 1    
   127   63  186 1    
   128   63  187 1    
   129   63  188 1    
   130   64   65 am   BACKBONE|DICT|INTERRES
   131   64  189 1    
   132   65   66 2    
   133   67   68 2    
   134   67   69 am   BACKBONE|DICT|INTERRES
   135   69   70 1    
   136   69  190 1    
   137   70   71 1    
   138   70   72 1    
   139   70  191 1    
   140   71  192 1    
   141   71  193 1    
   142   71  194 1    
   143   72   73 2    
   144   72   74 am   BACKBONE|DICT|INTERRES
   145   74   75 1    
   146   74  195 1    
   147   75   76 1    
   148   75   77 1    
   149   75  196 1    
   150   76  197 1    
   151   76  198 1    
   152   76  199 1    
   153   77   78 2    
   154   77   79 am   BACKBONE|DICT|INTERRES
   155   79   80 1    
   156   79  200 1    
   157   80   81 1    
   158   80   82 1    
   159   80  201 1    
   160   81  202 1    
   161   81  203 1    
   162   81  204 1    
   163   82   83 2    
   164   82   84 am   BACKBONE|DICT|INTERRES
   165   84   85 1    
   166   84  205 1    
   167   85   86 1    
   168   85   87 1    
   169   85  206 1    
   170   86  207 1    
   171   86  208 1    
   172   86  209 1    
   173   87   88 2    
   174   87   89 am   BACKBONE|DICT|INTERRES
   175   89   90 1    
   176   89  210 1    
   177   90   91 1    
   178   90   92 1    
   179   90  211 1    
   180   91  212 1    
   181   91  213 1    
   182   91  214 1    
   183   92   93 2    
   184   92   94 am   BACKBONE|DICT|INTERRES
   185   94   95 1    
   186   94  215 1    
   187   95   96 1    
   188   95   97 1    
   189   95  216 1    
   190   96  217 1    
   191   96  218 1    
   192   96  219 1    
   193   97   98 2    
   194   97   99 am   BACKBONE|DICT|INTERRES
   195   99  100 1    
   196   99  220 1    
   197  100  101 1    
   198  100  102 1    
   199  100  221 1    
   200  101  222 1    
   201  101  223 1    
   202  101  224 1    
   203  102  103 2    
   204  102  104 am   BACKBONE|DICT|INTERRES
   205  104  105 1    
   206  104  225 1    
   207  105  106 1    
   208  105  107 1    
   209  105  226 1    
   210  106  227 1    
   211  106  228 1    
   212  106  229 1    
   213  107  108 2    
   214  107  109 am   BACKBONE|DICT|INTERRES
   215  109  110 1    
   216  109  230 1    
   217  110  111 1    
   218  110  112 1    
   219  110  231 1    
   220  111  232 1    
   221  111  233 1    
   222  111  234 1    
   223  112  113 2    
   224  112  114 am   BACKBONE|DICT|INTERRES
   225  114  115 1    
   226  114  235 1    
   227  115  116 1    
   228  115  117 1    
   229  115  236 1    
   230  116  237 1    
   231  116  238 1    
   232  116  239 1    
   233  117  118 2    
   234  117  119 am   BACKBONE|DICT|INTERRES
   235  119  120 1    
   236  119  240 1    
   237  120  121 1    
   238  120  124 1    
   239  120  241 1    
   240  121  122 am   BACKBONE|DICT|INTERRES
   241  121  123 2    
   242  122  242 1    
   243  122  243 1    
   244  124  125 1    
   245  124  244 1    
   246  124  245 1    
   247  125  126 1    
   248  126  246 1    
   249  126  247 1    
@<TRIPOS>SUBSTRUCTURE
     1 UNK         1 GROUP             0       ****    0 ROOT    
