@<TRIPOS>MOLECULE
3R540
247   249    1
SMALL
USER_CHARGES


@<TRIPOS>ATOM
      1 CA          3.1626  -11.0396  -48.9958 C.3       0 UNK        -0.1800 
      2 C           2.3658  -11.7801  -47.9327 C.2       0 UNK         0.5000 
      3 O           2.5706  -11.5456  -46.7425 O.2       0 UNK        -0.5000 
      4 N           1.4444  -12.6561  -48.3548 N.am      1 UNK        -0.5000 
      5 CA          0.6105  -13.5225  -47.5054 C.3       1 UNK         0.1400 
      6 C6         -0.2547  -14.4849  -48.3576 C.3       23 UNK        -0.0398 
      7 S7          0.7605  -15.6112  -49.3735 S.3       23 UNK        -0.2404 
      8 C8         -0.1553  -17.1736  -49.2037 C.3       23 UNK        -0.0205 
      9 C9          0.5492  -18.3006  -49.9409 C.ar      23 UNK        -0.0193 
     10 C10         0.2777  -18.5396  -51.2917 C.ar      23 UNK        -0.1150 
     11 C11         0.9452  -19.5573  -51.9794 C.ar      23 UNK        -0.0193 
     12 C12         1.8773  -20.3480  -51.3016 C.ar      23 UNK        -0.1150 
     13 C13         2.1519  -20.1236  -49.9497 C.ar      23 UNK        -0.0193 
     14 C14         1.4879  -19.0949  -49.2755 C.ar      23 UNK        -0.1150 
     15 C15         3.1880  -20.9756  -49.2323 C.3       23 UNK        -0.0205 
     16 S16         2.4590  -22.4911  -48.5390 S.3       23 UNK        -0.2404 
     17 C17         1.6957  -21.8440  -47.0141 C.3       23 UNK        -0.0398 
     18 CA          1.0387  -22.9513  -46.1542 C.3       11 UNK         0.1400 
     19 N           1.0019  -22.5771  -44.7376 N.am      11 UNK        -0.5000 
     20 C           0.7786  -23.4213  -43.7212 C.2       10 UNK         0.5000 
     21 O           0.5625  -24.6250  -43.8664 O.2       10 UNK        -0.5000 
     22 CA          0.7762  -22.8101  -42.3072 C.3       10 UNK         0.1400 
     23 CB          2.2089  -22.6021  -41.7928 C.3       10 UNK        -0.1800 
     24 N           0.0479  -21.5420  -42.2582 N.am      10 UNK        -0.5000 
     25 C          -1.2850  -21.4407  -42.3564 C.2       9 UNK         0.5000 
     26 O          -2.0389  -22.4117  -42.4161 O.2       9 UNK        -0.5000 
     27 CA         -1.8793  -20.0215  -42.4236 C.3       9 UNK         0.1400 
     28 CB         -2.1323  -19.4762  -41.0103 C.3       9 UNK        -0.1800 
     29 N          -1.0459  -19.0776  -43.1708 N.am      9 UNK        -0.5000 
     30 C          -0.7612  -19.1781  -44.4772 C.2       8 UNK         0.5000 
     31 O          -1.1881  -20.0723  -45.2045 O.2       8 UNK        -0.5000 
     32 CA          0.2125  -18.1410  -45.0609 C.3       8 UNK         0.1400 
     33 CB         -0.4980  -16.8062  -45.3182 C.3       8 UNK        -0.1800 
     34 N           1.3778  -17.9204  -44.2070 N.am      8 UNK        -0.5000 
     35 C           2.2631  -18.8663  -43.8635 C.2       7 UNK         0.5000 
     36 O           2.2143  -20.0276  -44.2650 O.2       7 UNK        -0.5000 
     37 CA          3.3506  -18.4608  -42.8576 C.3       7 UNK         0.1400 
     38 CB          4.4968  -17.7176  -43.5585 C.3       7 UNK        -0.1800 
     39 N           2.8017  -17.6346  -41.7833 N.am      7 UNK        -0.5000 
     40 C           1.9851  -18.0947  -40.8246 C.2       6 UNK         0.5000 
     41 O           1.6485  -19.2747  -40.7202 O.2       6 UNK        -0.5000 
     42 CA          1.4217  -17.0511  -39.8428 C.3       6 UNK         0.1400 
     43 CB          2.4317  -16.7562  -38.7239 C.3       6 UNK        -0.1800 
     44 N           1.0501  -15.7992  -40.5056 N.am      6 UNK        -0.5000 
     45 C           0.0374  -15.6809  -41.3757 C.2       5 UNK         0.5000 
     46 O          -0.7024  -16.6119  -41.6903 O.2       5 UNK        -0.5000 
     47 CA         -0.1593  -14.3043  -42.0351 C.3       5 UNK         0.1400 
     48 CB         -1.0434  -13.4024  -41.1621 C.3       5 UNK        -0.1800 
     49 N           1.0910  -13.6056  -42.3364 N.am      5 UNK        -0.5000 
     50 C           2.0519  -14.0493  -43.1568 C.2       4 UNK         0.5000 
     51 O           2.0402  -15.1673  -43.6745 O.2       4 UNK        -0.5000 
     52 CA          3.2036  -13.0667  -43.4498 C.3       4 UNK         0.1400 
     53 CB          4.2021  -13.6143  -44.4850 C.3       4 UNK        -0.1800 
     54 N           2.6922  -11.7851  -43.9327 N.am      4 UNK        -0.5000 
     55 C           2.2415  -10.7813  -43.1699 C.2       3 UNK         0.5000 
     56 O           2.2013  -10.8260  -41.9397 O.2       3 UNK        -0.5000 
     57 CA          1.7010   -9.5499  -43.9109 C.3       3 UNK         0.1400 
     58 CB          2.8445   -8.7391  -44.5418 C.3       3 UNK        -0.1800 
     59 N           0.7588   -9.9566  -44.9516 N.am      3 UNK        -0.5000 
     60 C          -0.5634  -10.0819  -44.7723 C.2       2 UNK         0.5000 
     61 O          -1.1399   -9.8105  -43.7185 O.2       2 UNK        -0.5000 
     62 CA         -1.3871  -10.5937  -45.9710 C.3       2 UNK         0.1400 
     63 CB         -1.9080   -9.4151  -46.8075 C.3       2 UNK        -0.1800 
     64 N          -0.6323  -11.4979  -46.8398 N.am      2 UNK        -0.5000 
     65 C          -0.2827  -12.7491  -46.5090 C.2       1 UNK         0.5000 
     66 O          -0.6275  -13.2935  -45.4610 O.2       1 UNK        -0.5000 
     67 C          -0.3473  -23.3385  -46.7134 C.2       11 UNK         0.5000 
     68 O          -0.4084  -24.1071  -47.6727 O.2       11 UNK        -0.5000 
     69 N          -1.4296  -22.8176  -46.1134 N.am      12 UNK        -0.5000 
     70 CA         -2.8255  -22.9456  -46.5478 C.3       12 UNK         0.1400 
     71 CB         -3.7544  -22.3077  -45.5042 C.3       12 UNK        -0.1800 
     72 C          -3.3034  -24.3733  -46.8674 C.2       12 UNK         0.5000 
     73 O          -4.1358  -24.5315  -47.7592 O.2       12 UNK        -0.5000 
     74 N          -2.7522  -25.3776  -46.1737 N.am      13 UNK        -0.5000 
     75 CA         -3.0196  -26.7979  -46.4079 C.3       13 UNK         0.1400 
     76 CB         -2.3848  -27.6162  -45.2734 C.3       13 UNK        -0.1800 
     77 C          -2.5268  -27.3060  -47.7797 C.2       13 UNK         0.5000 
     78 O          -3.1316  -28.2258  -48.3316 O.2       13 UNK        -0.5000 
     79 N          -1.4520  -26.7025  -48.3036 N.am      14 UNK        -0.5000 
     80 CA         -0.8734  -27.0043  -49.6132 C.3       14 UNK         0.1400 
     81 CB          0.6583  -27.0313  -49.4890 C.3       14 UNK        -0.1800 
     82 C          -1.3061  -25.9675  -50.6633 C.2       14 UNK         0.5000 
     83 O          -1.5683  -26.3333  -51.8091 O.2       14 UNK        -0.5000 
     84 N          -1.3852  -24.6951  -50.2517 N.am      15 UNK        -0.5000 
     85 CA         -1.7442  -23.5515  -51.0916 C.3       15 UNK         0.1400 
     86 CB         -1.2543  -22.2677  -50.3995 C.3       15 UNK        -0.1800 
     87 C          -3.2500  -23.4456  -51.4013 C.2       15 UNK         0.5000 
     88 O          -3.6328  -22.5839  -52.1917 O.2       15 UNK        -0.5000 
     89 N          -4.0844  -24.2637  -50.7404 N.am      16 UNK        -0.5000 
     90 CA         -5.5550  -24.2450  -50.7706 C.3       16 UNK         0.1400 
     91 CB         -6.0805  -24.6457  -52.1653 C.3       16 UNK        -0.1800 
     92 C          -6.1283  -22.8984  -50.2750 C.2       16 UNK         0.5000 
     93 O          -7.1221  -22.4082  -50.8096 O.2       16 UNK        -0.5000 
     94 N          -5.4400  -22.3108  -49.2845 N.am      17 UNK        -0.5000 
     95 CA         -5.6134  -20.9583  -48.7380 C.3       17 UNK         0.1400 
     96 CB         -6.9795  -20.8219  -48.0351 C.3       17 UNK        -0.1800 
     97 C          -5.3479  -19.8216  -49.7559 C.2       17 UNK         0.5000 
     98 O          -5.7475  -18.6843  -49.5007 O.2       17 UNK        -0.5000 
     99 N          -4.6563  -20.1446  -50.8616 N.am      18 UNK        -0.5000 
    100 CA        -4.3500  -19.3204  -52.0357 C.3       18 UNK         0.1400 
    101 CB        -3.5781  -18.0446  -51.6465 C.3       18 UNK        -0.1800 
    102 C         -5.5928  -19.0053  -52.8940 C.2       18 UNK         0.5000 
    103 O         -6.7322  -19.1617  -52.4504 O.2       18 UNK        -0.5000 
    104 N         -5.3426  -18.6030  -54.1462 N.am      19 UNK        -0.5000 
    105 CA        -6.2848  -18.2464  -55.2174 C.3       19 UNK         0.1400 
    106 CB        -7.2203  -17.0959  -54.7995 C.3       19 UNK        -0.1800 
    107 C         -7.0767  -19.4377  -55.7928 C.2       19 UNK         0.5000 
    108 O         -7.2865  -19.4893  -57.0050 O.2       19 UNK        -0.5000 
    109 N         -7.4724  -20.3887  -54.9372 N.am      20 UNK        -0.5000 
    110 CA        -8.0980  -21.6582  -55.3147 C.3       20 UNK         0.1400 
    111 CB        -8.7392  -22.2889  -54.0708 C.3       20 UNK        -0.1800 
    112 C         -7.1080  -22.6413  -55.9726 C.2       20 UNK         0.5000 
    113 O         -7.5393  -23.5295  -56.7091 O.2       20 UNK        -0.5000 
    114 N         -5.8092  -22.4546  -55.7095 N.am      21 UNK        -0.5000 
    115 CA        -4.7047  -23.1572  -56.3486 C.3       21 UNK         0.1400 
    116 CB        -4.1331  -24.2249  -55.3956 C.3       21 UNK        -0.1800 
    117 C         -3.6884  -22.0997  -56.8057 C.2       21 UNK         0.5000 
    118 O         -3.9120  -21.4692  -57.8403 O.2       21 UNK        -0.5000 
    119 N         -2.6011  -21.9159  -56.0478 N.am      22 UNK        -0.5000 
    120 CA        -1.5457  -20.9341  -56.3354 C.3       22 UNK         0.1400 
    121 C         -1.9723  -19.4589  -56.0821 C.2       22 UNK         0.5000 
    122 N         -1.3365  -18.5031  -56.7458 N.am      22 UNK        -0.7600 
    123 O         -2.8461  -19.1658  -55.2695 O.2       22 UNK        -0.5000 
    124 C124       -0.2216  -21.2993  -55.6178 C.3       23 UNK        -0.0398 
    125 S125       -0.2971  -21.2577  -53.7917 S.3       23 UNK        -0.2404 
    126 C126        0.7032  -19.7734  -53.4647 C.3       23 UNK        -0.0205 
    127 H127        3.0108   -9.9649  -48.8963 H         1 UNK         0.0600 
    128 H128        2.8677  -11.3345  -50.0031 H         1 UNK         0.0600 
    129 H129        4.2259  -11.2472  -48.8772 H         1 UNK         0.0600 
    130 H130        1.3352  -12.8046  -49.3482 H         1 UNK         0.3000 
    131 H131        1.2932  -14.1232  -46.9002 H         1 UNK         0.0600 
    132 H132       -0.9084  -15.0802  -47.7182 H         1 UNK         0.0800 
    133 H133       -0.9146  -13.9233  -49.0212 H         1 UNK         0.0800 
    134 H134       -0.2553  -17.4294  -48.1493 H         1 UNK         0.0800 
    135 H135       -1.1673  -17.0448  -49.5896 H         1 UNK         0.0800 
    136 H136       -0.4359  -17.9173  -51.8130 H         1 UNK         0.1150 
    137 H137        2.3951  -21.1356  -51.8311 H         1 UNK         0.1150 
    138 H138        1.7101  -18.9044  -48.2352 H         1 UNK         0.1150 
    139 H139        3.9758  -21.2572  -49.9326 H         1 UNK         0.0800 
    140 H140        3.6776  -20.4021  -48.4437 H         1 UNK         0.0800 
    141 H141        0.9822  -21.0538  -47.2536 H         1 UNK         0.0800 
    142 H142        2.4992  -21.3666  -46.4530 H         1 UNK         0.0800 
    143 H143        1.6642  -23.8445  -46.2180 H         1 UNK         0.0600 
    144 H144        1.2246  -21.6080  -44.5231 H         1 UNK         0.3000 
    145 H145        0.2798  -23.5168  -41.6387 H         1 UNK         0.0600 
    146 H146        2.2083  -22.2198  -40.7719 H         1 UNK         0.0600 
    147 H147        2.7616  -23.5423  -41.7885 H         1 UNK         0.0600 
    148 H148        2.7652  -21.8976  -42.4111 H         1 UNK         0.0600 
    149 H149        0.5991  -20.6972  -42.1714 H         1 UNK         0.3000 
    150 H150       -2.8402  -20.0928  -42.9373 H         1 UNK         0.0600 
    151 H151       -2.7541  -20.1601  -40.4313 H         1 UNK         0.0600 
    152 H152       -2.6502  -18.5177  -41.0453 H         1 UNK         0.0600 
    153 H153       -1.2003  -19.3332  -40.4622 H         1 UNK         0.0600 
    154 H154       -0.6958  -18.2764  -42.6524 H         1 UNK         0.3000 
    155 H155        0.5741  -18.5257  -46.0162 H         1 UNK         0.0600 
    156 H156       -0.8875  -16.3713  -44.3987 H         1 UNK         0.0600 
    157 H157       -1.3403  -16.9343  -45.9986 H         1 UNK         0.0600 
    158 H158        0.1830  -16.0823  -45.7640 H         1 UNK         0.0600 
    159 H159        1.5224  -16.9724  -43.8678 H         1 UNK         0.3000 
    160 H160        3.7580  -19.3725  -42.4151 H         1 UNK         0.0600 
    161 H161        4.1450  -16.8207  -44.0673 H         1 UNK         0.0600 
    162 H162        4.9675  -18.3534  -44.3093 H         1 UNK         0.0600 
    163 H163        5.2708  -17.4228  -42.8498 H         1 UNK         0.0600 
    164 H164        2.9793  -16.6426  -41.8362 H         1 UNK         0.3000 
    165 H165        0.5235  -17.4745  -39.3879 H         1 UNK         0.0600 
    166 H166        2.0106  -16.0777  -37.9817 H         1 UNK         0.0600 
    167 H167        2.7138  -17.6719  -38.2024 H         1 UNK         0.0600 
    168 H168        3.3454  -16.3045  -39.1121 H         1 UNK         0.0600 
    169 H169        1.6117  -14.9850  -40.3044 H         1 UNK         0.3000 
    170 H170       -0.6769  -14.4668  -42.9817 H         1 UNK         0.0600 
    171 H171       -1.9949  -13.8865  -40.9382 H         1 UNK         0.0600 
    172 H172       -0.5629  -13.1641  -40.2124 H         1 UNK         0.0600 
    173 H173       -1.2688  -12.4639  -41.6698 H         1 UNK         0.0600 
    174 H174        1.1947  -12.6704  -41.9601 H         1 UNK         0.3000 
    175 H175        3.7448  -12.9079  -42.5150 H         1 UNK         0.0600 
    176 H176        3.7121  -13.8550  -45.4295 H         1 UNK         0.0600 
    177 H177        4.9903  -12.8908  -44.6935 H         1 UNK         0.0600 
    178 H178        4.6855  -14.5205  -44.1207 H         1 UNK         0.0600 
    179 H179        2.6546  -11.6794  -44.9450 H         1 UNK         0.3000 
    180 H180        1.1989   -8.9086  -43.1832 H         1 UNK         0.0600 
    181 H181        3.3893   -9.3150  -45.2909 H         1 UNK         0.0600 
    182 H182        3.5627   -8.4239  -43.7838 H         1 UNK         0.0600 
    183 H183        2.4657   -7.8384  -45.0250 H         1 UNK         0.0600 
    184 H184        1.1642  -10.2708  -45.8247 H         1 UNK         0.3000 
    185 H185       -2.2477  -11.1363  -45.5739 H         1 UNK         0.0600 
    186 H186       -2.4977   -8.7321  -46.1946 H         1 UNK         0.0600 
    187 H187       -1.0915   -8.8404  -47.2466 H         1 UNK         0.0600 
    188 H188       -2.5508   -9.7598  -47.6178 H         1 UNK         0.0600 
    189 H189       -0.3118  -11.1254  -47.7216 H         1 UNK         0.3000 
    190 H190       -1.2654  -22.1333  -45.3835 H         1 UNK         0.3000 
    191 H191       -2.9156  -22.3675  -47.4672 H         1 UNK         0.0600 
    192 H192       -3.5360  -21.2492  -45.3676 H         1 UNK         0.0600 
    193 H193       -4.7992  -22.3812  -45.8098 H         1 UNK         0.0600 
    194 H194       -3.6632  -22.7988  -44.5353 H         1 UNK         0.0600 
    195 H195       -2.0637  -25.1519  -45.4697 H         1 UNK         0.3000 
    196 H196       -4.1010  -26.9456  -46.3728 H         1 UNK         0.0600 
    197 H197       -2.5806  -28.6815  -45.4020 H         1 UNK         0.0600 
    198 H198       -2.7904  -27.3270  -44.3036 H         1 UNK         0.0600 
    199 H199       -1.3028  -27.4822  -45.2383 H         1 UNK         0.0600 
    200 H200       -1.0458  -25.9142  -47.8087 H         1 UNK         0.3000 
    201 H201       -1.2013  -27.9879  -49.9562 H         1 UNK         0.0600 
    202 H202        0.9813  -27.7939  -48.7803 H         1 UNK         0.0600 
    203 H203        1.0543  -26.0722  -49.1515 H         1 UNK         0.0600 
    204 H204        1.1240  -27.2601  -50.4484 H         1 UNK         0.0600 
    205 H205       -1.0970  -24.4780  -49.3001 H         1 UNK         0.3000 
    206 H206       -1.2236  -23.6463  -52.0463 H         1 UNK         0.0600 
    207 H207       -0.1753  -22.2908  -50.2480 H         1 UNK         0.0600 
    208 H208       -1.4750  -21.3830  -50.9980 H         1 UNK         0.0600 
    209 H209       -1.7237  -22.1259  -49.4276 H         1 UNK         0.0600 
    210 H210       -3.6762  -24.8960  -50.0651 H         1 UNK         0.3000 
    211 H211       -5.8875  -25.0019  -50.0588 H         1 UNK         0.0600 
    212 H212       -5.8640  -23.8839  -52.9143 H         1 UNK         0.0600 
    213 H213       -7.1617  -24.7866  -52.1491 H         1 UNK         0.0600 
    214 H214       -5.6357  -25.5822  -52.5014 H         1 UNK         0.0600 
    215 H215       -4.6933  -22.8623  -48.8798 H         1 UNK         0.3000 
    216 H216       -4.8451  -20.8458  -47.9727 H         1 UNK         0.0600 
    217 H217       -7.0449  -19.8834  -47.4837 H         1 UNK         0.0600 
    218 H218       -7.1367  -21.6283  -47.3187 H         1 UNK         0.0600 
    219 H219       -7.8046  -20.8386  -48.7476 H         1 UNK         0.0600 
    220 H220       -4.4185  -21.1211  -50.9906 H         1 UNK         0.3000 
    221 H221       -3.6857  -19.9296  -52.6508 H         1 UNK         0.0600 
    222 H222       -4.2146  -17.3182  -51.1410 H         1 UNK         0.0600 
    223 H223       -2.7444  -18.2802  -50.9863 H         1 UNK         0.0600 
    224 H224       -3.1653  -17.5556  -52.5296 H         1 UNK         0.0600 
    225 H225       -4.3691  -18.6216  -54.4514 H         1 UNK         0.3000 
    226 H226       -5.6595  -17.8746  -56.0307 H         1 UNK         0.0600 
    227 H227       -6.6533  -16.2383  -54.4376 H         1 UNK         0.0600 
    228 H228       -7.8179  -16.7569  -55.6465 H         1 UNK         0.0600 
    229 H229       -7.9147  -17.3960  -54.0145 H         1 UNK         0.0600 
    230 H230       -7.3030  -20.2280  -53.9480 H         1 UNK         0.3000 
    231 H231       -8.8885  -21.4506  -56.0389 H         1 UNK         0.0600 
    232 H232       -7.9933  -22.5097  -53.3080 H         1 UNK         0.0600 
    233 H233       -9.2418  -23.2244  -54.3196 H         1 UNK         0.0600 
    234 H234       -9.4835  -21.6259  -53.6294 H         1 UNK         0.0600 
    235 H235       -5.5530  -21.6777  -55.1174 H         1 UNK         0.3000 
    236 H236       -5.0497  -23.6638  -57.2524 H         1 UNK         0.0600 
    237 H237       -4.8817  -24.9851  -55.1721 H         1 UNK         0.0600 
    238 H238       -3.2797  -24.7348  -55.8441 H         1 UNK         0.0600 
    239 H239       -3.8066  -23.7999  -54.4487 H         1 UNK         0.0600 
    240 H240       -2.5095  -22.4230  -55.1796 H         1 UNK         0.3000 
    241 H241       -1.3438  -21.0092  -57.4060 H         1 UNK         0.0600 
    242 H242       -0.6158  -18.7105  -57.4196 H         1 UNK         0.3800 
    243 H243       -1.5956  -17.5431  -56.5819 H         1 UNK         0.3800 
    244 H244        0.0785  -22.3064  -55.9098 H         1 UNK         0.0800 
    245 H245        0.5834  -20.6522  -55.9692 H         1 UNK         0.0800 
    246 H246        0.2080  -18.9047  -53.9016 H         1 UNK         0.0800 
    247 H247        1.6666  -19.8655  -53.9684 H         1 UNK         0.0800 
@<TRIPOS>BOND
     1    1    2 1    
     2    1  127 1    
     3    1  128 1    
     4    1  129 1    
     5    2    3 2    
     6    2    4 am   BACKBONE|DICT|INTERRES
     7    4    5 1    
     8    4  130 1    
     9    5    6 1    
    10    5   65 1    
    11    5  131 1    
    12    6    7 1    
    13    6  132 1    
    14    6  133 1    
    15    7    8 1    
    16    8    9 1    
    17    8  134 1    
    18    8  135 1    
    19    9   10 ar   
    20    9   14 ar   
    21   10   11 ar   
    22   10  136 1    
    23   11   12 ar   
    24   11  126 1    
    25   12   13 ar   
    26   12  137 1    
    27   13   14 ar   
    28   13   15 1    
    29   14  138 1    
    30   15   16 1    
    31   15  139 1    
    32   15  140 1    
    33   16   17 1    
    34   17   18 1    
    35   17  141 1    
    36   17  142 1    
    37   18   19 1    
    38   18   67 1    
    39   18  143 1    
    40   19   20 am   BACKBONE|DICT|INTERRES
    41   19  144 1    
    42   20   21 2    
    43   20   22 1    
    44   22   23 1    
    45   22   24 1    
    46   22  145 1    
    47   23  146 1    
    48   23  147 1    
    49   23  148 1    
    50   24   25 am   BACKBONE|DICT|INTERRES
    51   24  149 1    
    52   25   26 2    
    53   25   27 1    
    54   27   28 1    
    55   27   29 1    
    56   27  150 1    
    57   28  151 1    
    58   28  152 1    
    59   28  153 1    
    60   29   30 am   BACKBONE|DICT|INTERRES
    61   29  154 1    
    62   30   31 2    
    63   30   32 1    
    64   32   33 1    
    65   32   34 1    
    66   32  155 1    
    67   33  156 1    
    68   33  157 1    
    69   33  158 1    
    70   34   35 am   BACKBONE|DICT|INTERRES
    71   34  159 1    
    72   35   36 2    
    73   35   37 1    
    74   37   38 1    
    75   37   39 1    
    76   37  160 1    
    77   38  161 1    
    78   38  162 1    
    79   38  163 1    
    80   39   40 am   BACKBONE|DICT|INTERRES
    81   39  164 1    
    82   40   41 2    
    83   40   42 1    
    84   42   43 1    
    85   42   44 1    
    86   42  165 1    
    87   43  166 1    
    88   43  167 1    
    89   43  168 1    
    90   44   45 am   BACKBONE|DICT|INTERRES
    91   44  169 1    
    92   45   46 2    
    93   45   47 1    
    94   47   48 1    
    95   47   49 1    
    96   47  170 1    
    97   48  171 1    
    98   48  172 1    
    99   48  173 1    
   100   49   50 am   BACKBONE|DICT|INTERRES
   101   49  174 1    
   102   50   51 2    
   103   50   52 1    
   104   52   53 1    
   105   52   54 1    
   106   52  175 1    
   107   53  176 1    
   108   53  177 1    
   109   53  178 1    
   110   54   55 am   BACKBONE|DICT|INTERRES
   111   54  179 1    
   112   55   56 2    
   113   55   57 1    
   114   57   58 1    
   115   57   59 1    
   116   57  180 1    
   117   58  181 1    
   118   58  182 1    
   119   58  183 1    
   120   59   60 am   BACKBONE|DICT|INTERRES
   121   59  184 1    
   122   60   61 2    
   123   60   62 1    
   124   62   63 1    
   125   62   64 1    
   126   62  185 1    
   127   63  186 1    
   128   63  187 1    
   129   63  188 1    
   130   64   65 am   BACKBONE|DICT|INTERRES
   131   64  189 1    
   132   65   66 2    
   133   67   68 2    
   134   67   69 am   BACKBONE|DICT|INTERRES
   135   69   70 1    
   136   69  190 1    
   137   70   71 1    
   138   70   72 1    
   139   70  191 1    
   140   71  192 1    
   141   71  193 1    
   142   71  194 1    
   143   72   73 2    
   144   72   74 am   BACKBONE|DICT|INTERRES
   145   74   75 1    
   146   74  195 1    
   147   75   76 1    
   148   75   77 1    
   149   75  196 1    
   150   76  197 1    
   151   76  198 1    
   152   76  199 1    
   153   77   78 2    
   154   77   79 am   BACKBONE|DICT|INTERRES
   155   79   80 1    
   156   79  200 1    
   157   80   81 1    
   158   80   82 1    
   159   80  201 1    
   160   81  202 1    
   161   81  203 1    
   162   81  204 1    
   163   82   83 2    
   164   82   84 am   BACKBONE|DICT|INTERRES
   165   84   85 1    
   166   84  205 1    
   167   85   86 1    
   168   85   87 1    
   169   85  206 1    
   170   86  207 1    
   171   86  208 1    
   172   86  209 1    
   173   87   88 2    
   174   87   89 am   BACKBONE|DICT|INTERRES
   175   89   90 1    
   176   89  210 1    
   177   90   91 1    
   178   90   92 1    
   179   90  211 1    
   180   91  212 1    
   181   91  213 1    
   182   91  214 1    
   183   92   93 2    
   184   92   94 am   BACKBONE|DICT|INTERRES
   185   94   95 1    
   186   94  215 1    
   187   95   96 1    
   188   95   97 1    
   189   95  216 1    
   190   96  217 1    
   191   96  218 1    
   192   96  219 1    
   193   97   98 2    
   194   97   99 am   BACKBONE|DICT|INTERRES
   195   99  100 1    
   196   99  220 1    
   197  100  101 1    
   198  100  102 1    
   199  100  221 1    
   200  101  222 1    
   201  101  223 1    
   202  101  224 1    
   203  102  103 2    
   204  102  104 am   BACKBONE|DICT|INTERRES
   205  104  105 1    
   206  104  225 1    
   207  105  106 1    
   208  105  107 1    
   209  105  226 1    
   210  106  227 1    
   211  106  228 1    
   212  106  229 1    
   213  107  108 2    
   214  107  109 am   BACKBONE|DICT|INTERRES
   215  109  110 1    
   216  109  230 1    
   217  110  111 1    
   218  110  112 1    
   219  110  231 1    
   220  111  232 1    
   221  111  233 1    
   222  111  234 1    
   223  112  113 2    
   224  112  114 am   BACKBONE|DICT|INTERRES
   225  114  115 1    
   226  114  235 1    
   227  115  116 1    
   228  115  117 1    
   229  115  236 1    
   230  116  237 1    
   231  116  238 1    
   232  116  239 1    
   233  117  118 2    
   234  117  119 am   BACKBONE|DICT|INTERRES
   235  119  120 1    
   236  119  240 1    
   237  120  121 1    
   238  120  124 1    
   239  120  241 1    
   240  121  122 am   BACKBONE|DICT|INTERRES
   241  121  123 2    
   242  122  242 1    
   243  122  243 1    
   244  124  125 1    
   245  124  244 1    
   246  124  245 1    
   247  125  126 1    
   248  126  246 1    
   249  126  247 1    
@<TRIPOS>SUBSTRUCTURE
     1 UNK         1 GROUP             0       ****    0 ROOT    
