@<TRIPOS>MOLECULE
3R540
247   249    1
SMALL
USER_CHARGES


@<TRIPOS>ATOM
      1 CA         -2.1836  -14.3838  -44.0261 C.3       0 UNK        -0.1800 
      2 C          -2.2411  -13.1549  -44.9204 C.2       0 UNK         0.5000 
      3 O          -2.5441  -12.0609  -44.4445 O.2       0 UNK        -0.5000 
      4 N          -1.9599  -13.3350  -46.2180 N.am      1 UNK        -0.5000 
      5 CA         -1.9054  -12.2626  -47.2201 C.3       1 UNK         0.1400 
      6 C6         -2.0743  -12.7926  -48.6662 C.3       23 UNK        -0.0398 
      7 S7         -0.9069  -14.1145  -49.1542 S.3       23 UNK        -0.2404 
      8 C8         -1.8632  -15.6170  -48.7687 C.3       23 UNK        -0.0205 
      9 C9         -1.5971  -16.7299  -49.7700 C.ar      23 UNK        -0.0193 
     10 C10        -2.5621  -17.0591  -50.7253 C.ar      23 UNK        -0.1150 
     11 C11        -2.3340  -18.0869  -51.6446 C.ar      23 UNK        -0.0193 
     12 C12        -1.1235  -18.7857  -51.6071 C.ar      23 UNK        -0.1150 
     13 C13        -0.1422  -18.4549  -50.6660 C.ar      23 UNK        -0.0193 
     14 C14        -0.3905  -17.4336  -49.7431 C.ar      23 UNK        -0.1150 
     15 C15         1.2084  -19.1578  -50.6830 C.3       23 UNK        -0.0205 
     16 S16         1.1435  -20.8424  -49.9995 S.3       23 UNK        -0.2404 
     17 C17         0.8382  -20.5180  -48.2302 C.3       23 UNK        -0.0398 
     18 CA         -0.2650  -21.4180  -47.6288 C.3       11 UNK         0.1400 
     19 N          -0.2694  -21.3613  -46.1656 N.am      11 UNK        -0.5000 
     20 C          -0.9855  -22.1677  -45.3698 C.2       10 UNK         0.5000 
     21 O          -1.6936  -23.0843  -45.7844 O.2       10 UNK        -0.5000 
     22 CA         -0.9423  -21.8707  -43.8604 C.3       10 UNK         0.1400 
     23 CB          0.3394  -22.4328  -43.2282 C.3       10 UNK        -0.1800 
     24 N          -1.0505  -20.4408  -43.5700 N.am      10 UNK        -0.5000 
     25 C          -2.1214  -19.6866  -43.8563 C.2       9 UNK         0.5000 
     26 O          -3.1616  -20.1332  -44.3402 O.2       9 UNK        -0.5000 
     27 CA         -1.9855  -18.1712  -43.6170 C.3       9 UNK         0.1400 
     28 CB         -2.1822  -17.8208  -42.1350 C.3       9 UNK        -0.1800 
     29 N          -0.7011  -17.6442  -44.0828 N.am      9 UNK        -0.5000 
     30 C          -0.3023  -17.6562  -45.3628 C.2       8 UNK         0.5000 
     31 O          -0.9946  -18.0665  -46.2910 O.2       8 UNK        -0.5000 
     32 CA          1.1256  -17.1718  -45.6529 C.3       8 UNK         0.1400 
     33 CB          1.1719  -15.6412  -45.7665 C.3       8 UNK        -0.1800 
     34 N           2.0681  -17.6377  -44.6357 N.am      8 UNK        -0.5000 
     35 C           2.4400  -18.9195  -44.4977 C.2       7 UNK         0.5000 
     36 O           2.0542  -19.8240  -45.2373 O.2       7 UNK        -0.5000 
     37 CA          3.3580  -19.2556  -43.3089 C.3       7 UNK         0.1400 
     38 CB          4.8250  -18.9652  -43.6581 C.3       7 UNK        -0.1800 
     39 N           2.9931  -18.5254  -42.0952 N.am      7 UNK        -0.5000 
     40 C           1.8409  -18.6856  -41.4282 C.2       6 UNK         0.5000 
     41 O           0.9812  -19.5090  -41.7381 O.2       6 UNK        -0.5000 
     42 CA          1.5854  -17.7278  -40.2494 C.3       6 UNK         0.1400 
     43 CB          2.1342  -18.3202  -38.9433 C.3       6 UNK        -0.1800 
     44 N           2.1602  -16.3960  -40.4594 N.am      6 UNK        -0.5000 
     45 C           1.7927  -15.5564  -41.4356 C.2       5 UNK         0.5000 
     46 O           0.9102  -15.8099  -42.2597 O.2       5 UNK        -0.5000 
     47 CA          2.5689  -14.2337  -41.5280 C.3       5 UNK         0.1400 
     48 CB          3.1761  -14.0455  -42.9246 C.3       5 UNK        -0.1800 
     49 N           1.6976  -13.1041  -41.2246 N.am      5 UNK        -0.5000 
     50 C           1.3651  -12.7265  -39.9829 C.2       4 UNK         0.5000 
     51 O           1.7640  -13.3129  -38.9744 O.2       4 UNK        -0.5000 
     52 CA          0.4359  -11.5004  -39.8330 C.3       4 UNK         0.1400 
     53 CB          0.7021  -10.7130  -38.5325 C.3       4 UNK        -0.1800 
     54 N           0.4309  -10.5949  -40.9883 N.am      4 UNK        -0.5000 
     55 C           1.4610   -9.9034  -41.4985 C.2       3 UNK         0.5000 
     56 O           2.6128   -9.9377  -41.0606 O.2       3 UNK        -0.5000 
     57 CA          1.1313   -9.0329  -42.7283 C.3       3 UNK         0.1400 
     58 CB          1.7784   -7.6418  -42.6157 C.3       3 UNK        -0.1800 
     59 N           1.5079   -9.6246  -44.0168 N.am      3 UNK        -0.5000 
     60 C           1.2410  -10.8642  -44.4501 C.2       2 UNK         0.5000 
     61 O           0.7592  -11.7627  -43.7549 O.2       2 UNK        -0.5000 
     62 CA          1.5353  -11.1434  -45.9334 C.3       2 UNK         0.1400 
     63 CB          2.8350  -11.9414  -46.1113 C.3       2 UNK        -0.1800 
     64 N           0.4157  -11.9066  -46.4766 N.am      2 UNK        -0.5000 
     65 C          -0.6606  -11.3609  -47.0587 C.2       1 UNK         0.5000 
     66 O          -0.7174  -10.1848  -47.4216 O.2       1 UNK        -0.5000 
     67 C          -1.6606  -21.1285  -48.2222 C.2       11 UNK         0.5000 
     68 O          -2.1030  -21.8739  -49.0932 O.2       11 UNK        -0.5000 
     69 N          -2.3562  -20.1071  -47.7031 N.am      12 UNK        -0.5000 
     70 CA         -3.7255  -19.7602  -48.0882 C.3       12 UNK         0.1400 
     71 CB         -4.1320  -18.4414  -47.4142 C.3       12 UNK        -0.1800 
     72 C          -4.7447  -20.8657  -47.7539 C.2       12 UNK         0.5000 
     73 O          -5.6496  -21.1159  -48.5497 O.2       12 UNK        -0.5000 
     74 N          -4.5765  -21.5115  -46.5908 N.am      13 UNK        -0.5000 
     75 CA         -5.3978  -22.6364  -46.1436 C.3       13 UNK         0.1400 
     76 CB         -5.1326  -22.9070  -44.6546 C.3       13 UNK        -0.1800 
     77 C          -5.1699  -23.9070  -46.9840 C.2       13 UNK         0.5000 
     78 O          -6.1378  -24.5817  -47.3378 O.2       13 UNK        -0.5000 
     79 N          -3.9006  -24.2053  -47.2924 N.am      14 UNK        -0.5000 
     80 CA         -3.4887  -25.3243  -48.1410 C.3       14 UNK         0.1400 
     81 CB         -1.9791  -25.5423  -47.9766 C.3       14 UNK        -0.1800 
     82 C          -3.8503  -25.1175  -49.6236 C.2       14 UNK         0.5000 
     83 O          -4.2118  -26.0822  -50.2999 O.2       14 UNK        -0.5000 
     84 N          -3.7525  -23.8662  -50.0939 N.am      15 UNK        -0.5000 
     85 CA         -4.0613  -23.3862  -51.4389 C.3       15 UNK         0.1400 
     86 CB         -5.5905  -23.3908  -51.6593 C.3       15 UNK        -0.1800 
     87 C          -3.2585  -24.1581  -52.5036 C.2       15 UNK         0.5000 
     88 O          -2.0272  -24.0957  -52.4940 O.2       15 UNK        -0.5000 
     89 N          -3.9585  -24.9124  -53.3625 N.am      16 UNK        -0.5000 
     90 CA         -3.4055  -25.7206  -54.4512 C.3       16 UNK         0.1400 
     91 CB         -4.5685  -26.3568  -55.2274 C.3       16 UNK        -0.1800 
     92 C          -2.4026  -26.8049  -54.0041 C.2       16 UNK         0.5000 
     93 O          -1.5954  -27.2511  -54.8198 O.2       16 UNK        -0.5000 
     94 N          -2.4617  -27.2113  -52.7275 N.am      17 UNK        -0.5000 
     95 CA         -1.5211  -28.1543  -52.1241 C.3       17 UNK         0.1400 
     96 CB         -2.1692  -28.7857  -50.8822 C.3       17 UNK        -0.1800 
     97 C          -0.1629  -27.5167  -51.7649 C.2       17 UNK         0.5000 
     98 O           0.8027  -28.2586  -51.5785 O.2       17 UNK        -0.5000 
     99 N          -0.1021  -26.1806  -51.6605 N.am      18 UNK        -0.5000 
    100 CA         1.1031  -25.4328  -51.2969 C.3       18 UNK         0.1400 
    101 CB         0.8118  -24.5594  -50.0676 C.3       18 UNK        -0.1800 
    102 C          1.6257  -24.5705  -52.4555 C.2       18 UNK         0.5000 
    103 O          2.8383  -24.5304  -52.6704 O.2       18 UNK        -0.5000 
    104 N          0.7244  -23.8957  -53.1775 N.am      19 UNK        -0.5000 
    105 CA         1.0510  -22.9721  -54.2598 C.3       19 UNK         0.1400 
    106 CB         1.4787  -21.6072  -53.6756 C.3       19 UNK        -0.1800 
    107 C         -0.1327  -22.9009  -55.2392 C.2       19 UNK         0.5000 
    108 O         -0.6150  -23.9460  -55.6778 O.2       19 UNK        -0.5000 
    109 N         -0.5677  -21.6843  -55.5892 N.am      20 UNK        -0.5000 
    110 CA        -1.7335  -21.4219  -56.4302 C.3       20 UNK         0.1400 
    111 CB        -1.6877  -19.9566  -56.8913 C.3       20 UNK        -0.1800 
    112 C         -3.0468  -21.7022  -55.6790 C.2       20 UNK         0.5000 
    113 O         -3.1029  -21.5467  -54.4577 O.2       20 UNK        -0.5000 
    114 N         -4.0898  -22.0759  -56.4290 N.am      21 UNK        -0.5000 
    115 CA        -5.4410  -22.2762  -55.9112 C.3       21 UNK         0.1400 
    116 CB        -6.2957  -22.9714  -56.9823 C.3       21 UNK        -0.1800 
    117 C         -6.0745  -20.9382  -55.4851 C.2       21 UNK         0.5000 
    118 O         -6.1251  -20.0056  -56.2904 O.2       21 UNK        -0.5000 
    119 N         -6.5480  -20.8751  -54.2384 N.am      22 UNK        -0.5000 
    120 CA        -7.1689  -19.6913  -53.6266 C.3       22 UNK         0.1400 
    121 C         -8.1989  -20.0346  -52.5102 C.2       22 UNK         0.5000 
    122 N         -8.6784  -21.2695  -52.4069 N.am      22 UNK        -0.7600 
    123 O         -8.5995  -19.1658  -51.7405 O.2       22 UNK        -0.5000 
    124 C124       -6.1295  -18.6108  -53.2177 C.3       23 UNK        -0.0398 
    125 S125       -4.8692  -19.1691  -52.0133 S.3       23 UNK        -0.2404 
    126 C126       -3.3767  -18.3904  -52.7101 C.3       23 UNK        -0.0205 
    127 H127       -2.1789  -15.3001  -44.6143 H         1 UNK         0.0600 
    128 H128       -3.0483  -14.4134  -43.3634 H         1 UNK         0.0600 
    129 H129       -1.2819  -14.3615  -43.4132 H         1 UNK         0.0600 
    130 H130       -1.7340  -14.2568  -46.5582 H         1 UNK         0.3000 
    131 H131       -2.7622  -11.6110  -47.0337 H         1 UNK         0.0600 
    132 H132       -3.0962  -13.1475  -48.8021 H         1 UNK         0.0800 
    133 H133       -1.9698  -11.9736  -49.3802 H         1 UNK         0.0800 
    134 H134       -1.6017  -15.9609  -47.7688 H         1 UNK         0.0800 
    135 H135       -2.9306  -15.3951  -48.7431 H         1 UNK         0.0800 
    136 H136       -3.4948  -16.5137  -50.7590 H         1 UNK         0.1150 
    137 H137       -0.9361  -19.5724  -52.3237 H         1 UNK         0.1150 
    138 H138        0.3610  -17.1684  -49.0132 H         1 UNK         0.1150 
    139 H139        1.5679  -19.2114  -51.7113 H         1 UNK         0.0800 
    140 H140        1.9533  -18.5779  -50.1357 H         1 UNK         0.0800 
    141 H141        1.7816  -20.6999  -47.7148 H         1 UNK         0.0800 
    142 H142        0.6056  -19.4667  -48.0647 H         1 UNK         0.0800 
    143 H143       -0.0189  -22.4496  -47.8900 H         1 UNK         0.0600 
    144 H144        0.3288  -20.6602  -45.7400 H         1 UNK         0.3000 
    145 H145       -1.7962  -22.3707  -43.3988 H         1 UNK         0.0600 
    146 H146        0.3376  -22.2948  -42.1468 H         1 UNK         0.0600 
    147 H147        0.4331  -23.5024  -43.4201 H         1 UNK         0.0600 
    148 H148        1.2317  -21.9476  -43.6245 H         1 UNK         0.0600 
    149 H149       -0.2524  -20.0070  -43.1140 H         1 UNK         0.3000 
    150 H150       -2.7739  -17.6767  -44.1881 H         1 UNK         0.0600 
    151 H151       -3.1662  -18.1386  -41.7885 H         1 UNK         0.0600 
    152 H152       -2.1091  -16.7456  -41.9700 H         1 UNK         0.0600 
    153 H153       -1.4403  -18.3072  -41.5025 H         1 UNK         0.0600 
    154 H154       -0.0836  -17.2465  -43.3832 H         1 UNK         0.3000 
    155 H155        1.4339  -17.5874  -46.6145 H         1 UNK         0.0600 
    156 H156        2.1907  -15.2900  -45.9287 H         1 UNK         0.0600 
    157 H157        0.7808  -15.1550  -44.8730 H         1 UNK         0.0600 
    158 H158        0.5749  -15.2992  -46.6118 H         1 UNK         0.0600 
    159 H159        2.3765  -16.9612  -43.9538 H         1 UNK         0.3000 
    160 H160        3.2597  -20.3238  -43.1039 H         1 UNK         0.0600 
    161 H161        4.9936  -17.9044  -43.8480 H         1 UNK         0.0600 
    162 H162        5.1280  -19.5112  -44.5526 H         1 UNK         0.0600 
    163 H163        5.4904  -19.2720  -42.8509 H         1 UNK         0.0600 
    164 H164        3.6460  -17.8304  -41.7654 H         1 UNK         0.3000 
    165 H165        0.5049  -17.6125  -40.1448 H         1 UNK         0.0600 
    166 H166        3.2183  -18.4353  -38.9762 H         1 UNK         0.0600 
    167 H167        1.8887  -17.6879  -38.0898 H         1 UNK         0.0600 
    168 H168        1.7049  -19.3044  -38.7510 H         1 UNK         0.0600 
    169 H169        2.8735  -16.1043  -39.8063 H         1 UNK         0.3000 
    170 H170        3.3934  -14.2499  -40.8118 H         1 UNK         0.0600 
    171 H171        3.8367  -14.8734  -43.1844 H         1 UNK         0.0600 
    172 H172        2.3995  -13.9895  -43.6842 H         1 UNK         0.0600 
    173 H173        3.7618  -13.1276  -42.9797 H         1 UNK         0.0600 
    174 H174        1.3070  -12.6029  -42.0175 H         1 UNK         0.3000 
    175 H175       -0.5748  -11.9054  -39.7675 H         1 UNK         0.0600 
    176 H176        0.0232   -9.8654  -38.4383 H         1 UNK         0.0600 
    177 H177        0.5542  -11.3421  -37.6540 H         1 UNK         0.0600 
    178 H178        1.7229  -10.3316  -38.4927 H         1 UNK         0.0600 
    179 H179       -0.4533  -10.5361  -41.4748 H         1 UNK         0.3000 
    180 H180        0.0499   -8.8849  -42.7539 H         1 UNK         0.0600 
    181 H181        1.4352   -6.9798  -43.4110 H         1 UNK         0.0600 
    182 H182        1.5227   -7.1670  -41.6675 H         1 UNK         0.0600 
    183 H183        2.8663   -7.6978  -42.6717 H         1 UNK         0.0600 
    184 H184        1.9342   -8.9833  -44.6695 H         1 UNK         0.3000 
    185 H185        1.6421  -10.1957  -46.4655 H         1 UNK         0.0600 
    186 H186        3.0671  -12.0771  -47.1677 H         1 UNK         0.0600 
    187 H187        3.6793  -11.4227  -45.6557 H         1 UNK         0.0600 
    188 H188        2.7715  -12.9291  -45.6591 H         1 UNK         0.0600 
    189 H189        0.3367  -12.8570  -46.1482 H         1 UNK         0.3000 
    190 H190       -1.9065  -19.4963  -47.0251 H         1 UNK         0.3000 
    191 H191       -3.7346  -19.6097  -49.1695 H         1 UNK         0.0600 
    192 H192       -5.1275  -18.1313  -47.7336 H         1 UNK         0.0600 
    193 H193       -3.4438  -17.6399  -47.6717 H         1 UNK         0.0600 
    194 H194       -4.1457  -18.5300  -46.3278 H         1 UNK         0.0600 
    195 H195       -3.8427  -21.2013  -45.9624 H         1 UNK         0.3000 
    196 H196       -6.4463  -22.3508  -46.2513 H         1 UNK         0.0600 
    197 H197       -5.7522  -23.7273  -44.2905 H         1 UNK         0.0600 
    198 H198       -5.3629  -22.0307  -44.0484 H         1 UNK         0.0600 
    199 H199       -4.0919  -23.1747  -44.4711 H         1 UNK         0.0600 
    200 H200       -3.1562  -23.6293  -46.9082 H         1 UNK         0.3000 
    201 H201       -4.0025  -26.2247  -47.7982 H         1 UNK         0.0600 
    202 H202       -1.7331  -25.8348  -46.9557 H         1 UNK         0.0600 
    203 H203       -1.4268  -24.6301  -48.2013 H         1 UNK         0.0600 
    204 H204       -1.6126  -26.3262  -48.6395 H         1 UNK         0.0600 
    205 H205       -3.3261  -23.1635  -49.4930 H         1 UNK         0.3000 
    206 H206       -3.7191  -22.3511  -51.4901 H         1 UNK         0.0600 
    207 H207       -6.0829  -22.7325  -50.9428 H         1 UNK         0.0600 
    208 H208       -5.8473  -23.0289  -52.6524 H         1 UNK         0.0600 
    209 H209       -6.0243  -24.3844  -51.5422 H         1 UNK         0.0600 
    210 H210       -4.9591  -24.9570  -53.2417 H         1 UNK         0.3000 
    211 H211       -2.8805  -25.0427  -55.1244 H         1 UNK         0.0600 
    212 H212       -5.1420  -27.0413  -54.6011 H         1 UNK         0.0600 
    213 H213       -4.2024  -26.9241  -56.0842 H         1 UNK         0.0600 
    214 H214       -5.2518  -25.5994  -55.6100 H         1 UNK         0.0600 
    215 H215       -3.1536  -26.7999  -52.1113 H         1 UNK         0.3000 
    216 H216       -1.3250  -28.9559  -52.8394 H         1 UNK         0.0600 
    217 H217       -1.5170  -29.5416  -50.4430 H         1 UNK         0.0600 
    218 H218       -3.1100  -29.2755  -51.1336 H         1 UNK         0.0600 
    219 H219       -2.3737  -28.0438  -50.1113 H         1 UNK         0.0600 
    220 H220       -0.9245  -25.6289  -51.8822 H         1 UNK         0.3000 
    221 H221        1.9110  -26.1147  -51.0237 H         1 UNK         0.0600 
    222 H222       -0.0548  -23.9146  -50.2232 H         1 UNK         0.0600 
    223 H223        0.6271  -25.1780  -49.1907 H         1 UNK         0.0600 
    224 H224        1.6617  -23.9180  -49.8310 H         1 UNK         0.0600 
    225 H225       -0.2684  -23.9872  -52.9664 H         1 UNK         0.3000 
    226 H226        1.8882  -23.3781  -54.8311 H         1 UNK         0.0600 
    227 H227        2.3317  -21.7141  -53.0053 H         1 UNK         0.0600 
    228 H228        1.7810  -20.9115  -54.4591 H         1 UNK         0.0600 
    229 H229        0.6708  -21.1492  -53.1052 H         1 UNK         0.0600 
    230 H230       -0.1377  -20.8797  -55.1588 H         1 UNK         0.3000 
    231 H231       -1.6825  -22.0692  -57.3083 H         1 UNK         0.0600 
    232 H232       -2.5300  -19.7250  -57.5445 H         1 UNK         0.0600 
    233 H233       -0.7762  -19.7467  -57.4514 H         1 UNK         0.0600 
    234 H234       -1.7300  -19.2676  -56.0465 H         1 UNK         0.0600 
    235 H235       -3.9803  -22.1384  -57.4305 H         1 UNK         0.3000 
    236 H236       -5.3771  -22.9391  -55.0467 H         1 UNK         0.0600 
    237 H237       -6.4016  -22.3553  -57.8763 H         1 UNK         0.0600 
    238 H238       -5.8584  -23.9231  -57.2839 H         1 UNK         0.0600 
    239 H239       -7.2983  -23.1784  -56.6061 H         1 UNK         0.0600 
    240 H240       -6.4256  -21.6592  -53.6174 H         1 UNK         0.3000 
    241 H241       -7.7943  -19.2361  -54.3969 H         1 UNK         0.0600 
    242 H242       -9.3496  -21.4682  -51.6815 H         1 UNK         0.3800 
    243 H243       -8.4546  -21.9835  -53.0796 H         1 UNK         0.3800 
    244 H244       -5.6275  -18.2583  -54.1192 H         1 UNK         0.0800 
    245 H245       -6.6292  -17.7319  -52.8078 H         1 UNK         0.0800 
    246 H246       -2.9663  -19.0376  -53.4862 H         1 UNK         0.0800 
    247 H247       -3.6410  -17.4523  -53.2001 H         1 UNK         0.0800 
@<TRIPOS>BOND
     1    1    2 1    
     2    1  127 1    
     3    1  128 1    
     4    1  129 1    
     5    2    3 2    
     6    2    4 am   BACKBONE|DICT|INTERRES
     7    4    5 1    
     8    4  130 1    
     9    5    6 1    
    10    5   65 1    
    11    5  131 1    
    12    6    7 1    
    13    6  132 1    
    14    6  133 1    
    15    7    8 1    
    16    8    9 1    
    17    8  134 1    
    18    8  135 1    
    19    9   10 ar   
    20    9   14 ar   
    21   10   11 ar   
    22   10  136 1    
    23   11   12 ar   
    24   11  126 1    
    25   12   13 ar   
    26   12  137 1    
    27   13   14 ar   
    28   13   15 1    
    29   14  138 1    
    30   15   16 1    
    31   15  139 1    
    32   15  140 1    
    33   16   17 1    
    34   17   18 1    
    35   17  141 1    
    36   17  142 1    
    37   18   19 1    
    38   18   67 1    
    39   18  143 1    
    40   19   20 am   BACKBONE|DICT|INTERRES
    41   19  144 1    
    42   20   21 2    
    43   20   22 1    
    44   22   23 1    
    45   22   24 1    
    46   22  145 1    
    47   23  146 1    
    48   23  147 1    
    49   23  148 1    
    50   24   25 am   BACKBONE|DICT|INTERRES
    51   24  149 1    
    52   25   26 2    
    53   25   27 1    
    54   27   28 1    
    55   27   29 1    
    56   27  150 1    
    57   28  151 1    
    58   28  152 1    
    59   28  153 1    
    60   29   30 am   BACKBONE|DICT|INTERRES
    61   29  154 1    
    62   30   31 2    
    63   30   32 1    
    64   32   33 1    
    65   32   34 1    
    66   32  155 1    
    67   33  156 1    
    68   33  157 1    
    69   33  158 1    
    70   34   35 am   BACKBONE|DICT|INTERRES
    71   34  159 1    
    72   35   36 2    
    73   35   37 1    
    74   37   38 1    
    75   37   39 1    
    76   37  160 1    
    77   38  161 1    
    78   38  162 1    
    79   38  163 1    
    80   39   40 am   BACKBONE|DICT|INTERRES
    81   39  164 1    
    82   40   41 2    
    83   40   42 1    
    84   42   43 1    
    85   42   44 1    
    86   42  165 1    
    87   43  166 1    
    88   43  167 1    
    89   43  168 1    
    90   44   45 am   BACKBONE|DICT|INTERRES
    91   44  169 1    
    92   45   46 2    
    93   45   47 1    
    94   47   48 1    
    95   47   49 1    
    96   47  170 1    
    97   48  171 1    
    98   48  172 1    
    99   48  173 1    
   100   49   50 am   BACKBONE|DICT|INTERRES
   101   49  174 1    
   102   50   51 2    
   103   50   52 1    
   104   52   53 1    
   105   52   54 1    
   106   52  175 1    
   107   53  176 1    
   108   53  177 1    
   109   53  178 1    
   110   54   55 am   BACKBONE|DICT|INTERRES
   111   54  179 1    
   112   55   56 2    
   113   55   57 1    
   114   57   58 1    
   115   57   59 1    
   116   57  180 1    
   117   58  181 1    
   118   58  182 1    
   119   58  183 1    
   120   59   60 am   BACKBONE|DICT|INTERRES
   121   59  184 1    
   122   60   61 2    
   123   60   62 1    
   124   62   63 1    
   125   62   64 1    
   126   62  185 1    
   127   63  186 1    
   128   63  187 1    
   129   63  188 1    
   130   64   65 am   BACKBONE|DICT|INTERRES
   131   64  189 1    
   132   65   66 2    
   133   67   68 2    
   134   67   69 am   BACKBONE|DICT|INTERRES
   135   69   70 1    
   136   69  190 1    
   137   70   71 1    
   138   70   72 1    
   139   70  191 1    
   140   71  192 1    
   141   71  193 1    
   142   71  194 1    
   143   72   73 2    
   144   72   74 am   BACKBONE|DICT|INTERRES
   145   74   75 1    
   146   74  195 1    
   147   75   76 1    
   148   75   77 1    
   149   75  196 1    
   150   76  197 1    
   151   76  198 1    
   152   76  199 1    
   153   77   78 2    
   154   77   79 am   BACKBONE|DICT|INTERRES
   155   79   80 1    
   156   79  200 1    
   157   80   81 1    
   158   80   82 1    
   159   80  201 1    
   160   81  202 1    
   161   81  203 1    
   162   81  204 1    
   163   82   83 2    
   164   82   84 am   BACKBONE|DICT|INTERRES
   165   84   85 1    
   166   84  205 1    
   167   85   86 1    
   168   85   87 1    
   169   85  206 1    
   170   86  207 1    
   171   86  208 1    
   172   86  209 1    
   173   87   88 2    
   174   87   89 am   BACKBONE|DICT|INTERRES
   175   89   90 1    
   176   89  210 1    
   177   90   91 1    
   178   90   92 1    
   179   90  211 1    
   180   91  212 1    
   181   91  213 1    
   182   91  214 1    
   183   92   93 2    
   184   92   94 am   BACKBONE|DICT|INTERRES
   185   94   95 1    
   186   94  215 1    
   187   95   96 1    
   188   95   97 1    
   189   95  216 1    
   190   96  217 1    
   191   96  218 1    
   192   96  219 1    
   193   97   98 2    
   194   97   99 am   BACKBONE|DICT|INTERRES
   195   99  100 1    
   196   99  220 1    
   197  100  101 1    
   198  100  102 1    
   199  100  221 1    
   200  101  222 1    
   201  101  223 1    
   202  101  224 1    
   203  102  103 2    
   204  102  104 am   BACKBONE|DICT|INTERRES
   205  104  105 1    
   206  104  225 1    
   207  105  106 1    
   208  105  107 1    
   209  105  226 1    
   210  106  227 1    
   211  106  228 1    
   212  106  229 1    
   213  107  108 2    
   214  107  109 am   BACKBONE|DICT|INTERRES
   215  109  110 1    
   216  109  230 1    
   217  110  111 1    
   218  110  112 1    
   219  110  231 1    
   220  111  232 1    
   221  111  233 1    
   222  111  234 1    
   223  112  113 2    
   224  112  114 am   BACKBONE|DICT|INTERRES
   225  114  115 1    
   226  114  235 1    
   227  115  116 1    
   228  115  117 1    
   229  115  236 1    
   230  116  237 1    
   231  116  238 1    
   232  116  239 1    
   233  117  118 2    
   234  117  119 am   BACKBONE|DICT|INTERRES
   235  119  120 1    
   236  119  240 1    
   237  120  121 1    
   238  120  124 1    
   239  120  241 1    
   240  121  122 am   BACKBONE|DICT|INTERRES
   241  121  123 2    
   242  122  242 1    
   243  122  243 1    
   244  124  125 1    
   245  124  244 1    
   246  124  245 1    
   247  125  126 1    
   248  126  246 1    
   249  126  247 1    
@<TRIPOS>SUBSTRUCTURE
     1 UNK         1 GROUP             0       ****    0 ROOT    
