@<TRIPOS>MOLECULE
3R540
247   249    1
SMALL
USER_CHARGES


@<TRIPOS>ATOM
      1 CA          3.7241  -13.9346  -43.6520 C.3       0 UNK        -0.1800 
      2 C           2.5914  -13.3904  -44.5103 C.2       0 UNK         0.5000 
      3 O           2.1284  -12.2753  -44.2751 O.2       0 UNK        -0.5000 
      4 N           2.1478  -14.1727  -45.5027 N.am      1 UNK        -0.5000 
      5 CA          1.0623  -13.8287  -46.4278 C.3       1 UNK         0.1400 
      6 C6          0.6899  -15.0377  -47.3193 C.3       23 UNK        -0.0398 
      7 S7         -1.0101  -14.9271  -47.9737 S.3       23 UNK        -0.2404 
      8 C8         -1.4101  -16.6770  -48.2635 C.3       23 UNK        -0.0205 
      9 C9         -0.4921  -17.3136  -49.2941 C.ar      23 UNK        -0.0193 
     10 C10        -0.7231  -17.1191  -50.6572 C.ar      23 UNK        -0.1150 
     11 C11         0.1140  -17.7084  -51.6083 C.ar      23 UNK        -0.0193 
     12 C12         1.1921  -18.4926  -51.1876 C.ar      23 UNK        -0.1150 
     13 C13         1.4209  -18.7105  -49.8272 C.ar      23 UNK        -0.0193 
     14 C14         0.5779  -18.1136  -48.8855 C.ar      23 UNK        -0.1150 
     15 C15         2.5727  -19.5977  -49.3765 C.3       23 UNK        -0.0205 
     16 S16         2.1951  -21.3720  -49.5605 S.3       23 UNK        -0.2404 
     17 C17         0.6529  -21.5243  -48.6005 C.3       23 UNK        -0.0398 
     18 CA          0.3921  -22.9641  -48.1051 C.3       11 UNK         0.1400 
     19 N           1.4199  -23.4340  -47.1708 N.am      11 UNK        -0.5000 
     20 C           1.5836  -24.7128  -46.8060 C.2       10 UNK         0.5000 
     21 O           0.8754  -25.6364  -47.2072 O.2       10 UNK        -0.5000 
     22 CA          2.6971  -24.9951  -45.7814 C.3       10 UNK         0.1400 
     23 CB          4.0830  -24.9014  -46.4378 C.3       10 UNK        -0.1800 
     24 N           2.6405  -24.0967  -44.6265 N.am      10 UNK        -0.5000 
     25 C           1.6231  -24.0516  -43.7553 C.2       9 UNK         0.5000 
     26 O           0.6277  -24.7675  -43.8311 O.2       9 UNK        -0.5000 
     27 CA          1.7045  -23.0126  -42.6252 C.3       9 UNK         0.1400 
     28 CB          2.4407  -23.5978  -41.4110 C.3       9 UNK        -0.1800 
     29 N           2.3302  -21.7452  -43.0033 N.am      9 UNK        -0.5000 
     30 C           1.9441  -20.9448  -44.0048 C.2       8 UNK         0.5000 
     31 O           1.0668  -21.2303  -44.8245 O.2       8 UNK        -0.5000 
     32 CA          2.6426  -19.5743  -44.0669 C.3       8 UNK         0.1400 
     33 CB          2.8714  -19.1182  -45.5148 C.3       8 UNK        -0.1800 
     34 N           1.8489  -18.5640  -43.3720 N.am      8 UNK        -0.5000 
     35 C           1.6605  -18.4923  -42.0465 C.2       7 UNK         0.5000 
     36 O           2.2250  -19.2302  -41.2377 O.2       7 UNK        -0.5000 
     37 CA          0.6931  -17.4084  -41.5293 C.3       7 UNK         0.1400 
     38 CB          1.4720  -16.2763  -40.8414 C.3       7 UNK        -0.1800 
     39 N          -0.1427  -16.8214  -42.5775 N.am      7 UNK        -0.5000 
     40 C          -1.1944  -17.3985  -43.1678 C.2       6 UNK         0.5000 
     41 O          -1.6045  -18.5215  -42.8724 O.2       6 UNK        -0.5000 
     42 CA         -1.8912  -16.5694  -44.2728 C.3       6 UNK         0.1400 
     43 CB         -3.0022  -17.3611  -44.9875 C.3       6 UNK        -0.1800 
     44 N          -2.4549  -15.3031  -43.7920 N.am      6 UNK        -0.5000 
     45 C          -1.7676  -14.2315  -43.3739 C.2       5 UNK         0.5000 
     46 O          -0.5363  -14.1933  -43.3201 O.2       5 UNK        -0.5000 
     47 CA         -2.6070  -13.0220  -42.9119 C.3       5 UNK         0.1400 
     48 CB         -3.3438  -13.3446  -41.6009 C.3       5 UNK        -0.1800 
     49 N          -1.7991  -11.8198  -42.6978 N.am      5 UNK        -0.5000 
     50 C          -1.1783  -11.1161  -43.6529 C.2       4 UNK         0.5000 
     51 O          -1.2936  -11.3557  -44.8591 O.2       4 UNK        -0.5000 
     52 CA         -0.2975   -9.9406  -43.1824 C.3       4 UNK         0.1400 
     53 CB          0.3348  -10.1543  -41.7912 C.3       4 UNK        -0.1800 
     54 N           0.7551   -9.7293  -44.1651 N.am      4 UNK        -0.5000 
     55 C           1.3144   -8.5647  -44.5059 C.2       3 UNK         0.5000 
     56 O           1.0512   -7.4885  -43.9677 O.2       3 UNK        -0.5000 
     57 CA          2.3149   -8.6150  -45.6777 C.3       3 UNK         0.1400 
     58 CB          3.7141   -9.0179  -45.1877 C.3       3 UNK        -0.1800 
     59 N           1.8763   -9.5504  -46.7150 N.am      3 UNK        -0.5000 
     60 C           0.8321   -9.3456  -47.5285 C.2       2 UNK         0.5000 
     61 O           0.2348   -8.2712  -47.6073 O.2       2 UNK        -0.5000 
     62 CA          0.3303  -10.5423  -48.3587 C.3       2 UNK         0.1400 
     63 CB          1.0495  -10.6387  -49.7181 C.3       2 UNK        -0.1800 
     64 N           0.3462  -11.8151  -47.6248 N.am      2 UNK        -0.5000 
     65 C           1.3907  -12.5755  -47.2719 C.2       1 UNK         0.5000 
     66 O           2.5607  -12.3160  -47.5646 O.2       1 UNK        -0.5000 
     67 C          -1.0213  -23.0702  -47.5009 C.2       11 UNK         0.5000 
     68 O          -1.9736  -23.3289  -48.2393 O.2       11 UNK        -0.5000 
     69 N          -1.1321  -22.8786  -46.1789 N.am      12 UNK        -0.5000 
     70 CA         -2.3701  -23.0464  -45.4224 C.3       12 UNK         0.1400 
     71 CB         -2.2092  -22.4279  -44.0259 C.3       12 UNK        -0.1800 
     72 C          -2.8019  -24.5223  -45.3363 C.2       12 UNK         0.5000 
     73 O          -3.9606  -24.8261  -45.6175 O.2       12 UNK        -0.5000 
     74 N          -1.8643  -25.4169  -44.9887 N.am      13 UNK        -0.5000 
     75 CA         -2.0865  -26.8616  -44.8681 C.3       13 UNK         0.1400 
     76 CB         -0.8645  -27.5233  -44.2138 C.3       13 UNK        -0.1800 
     77 C          -2.4062  -27.5392  -46.2113 C.2       13 UNK         0.5000 
     78 O          -3.2512  -28.4340  -46.2537 O.2       13 UNK        -0.5000 
     79 N          -1.7550  -27.0789  -47.2885 N.am      14 UNK        -0.5000 
     80 CA         -2.0282  -27.5013  -48.6642 C.3       14 UNK         0.1400 
     81 CB         -0.8590  -27.0577  -49.5582 C.3       14 UNK        -0.1800 
     82 C          -3.3556  -26.9466  -49.2212 C.2       14 UNK         0.5000 
     83 O          -3.8124  -27.4201  -50.2616 O.2       14 UNK        -0.5000 
     84 N          -3.9171  -25.9287  -48.5493 N.am      15 UNK        -0.5000 
     85 CA         -5.0861  -25.1233  -48.9215 C.3       15 UNK         0.1400 
     86 CB         -6.3580  -25.9869  -49.0351 C.3       15 UNK        -0.1800 
     87 C          -4.8604  -24.2459  -50.1696 C.2       15 UNK         0.5000 
     88 O          -5.8113  -23.6465  -50.6713 O.2       15 UNK        -0.5000 
     89 N          -3.6049  -24.1377  -50.6243 N.am      16 UNK        -0.5000 
     90 CA         -3.1799  -23.3396  -51.7709 C.3       16 UNK         0.1400 
     91 CB         -1.7172  -23.6693  -52.1012 C.3       16 UNK        -0.1800 
     92 C          -3.3637  -21.8327  -51.5364 C.2       16 UNK         0.5000 
     93 O          -3.7058  -21.1173  -52.4771 O.2       16 UNK        -0.5000 
     94 N          -3.1851  -21.4001  -50.2796 N.am      17 UNK        -0.5000 
     95 CA         -3.4559  -20.0388  -49.8170 C.3       17 UNK         0.1400 
     96 CB         -2.9443  -19.8884  -48.3741 C.3       17 UNK        -0.1800 
     97 C          -4.9511  -19.6722  -49.8785 C.2       17 UNK         0.5000 
     98 O          -5.2860  -18.5317  -50.1972 O.2       17 UNK        -0.5000 
     99 N          -5.8165  -20.6439  -49.5582 N.am      18 UNK        -0.5000 
    100 CA        -7.2686  -20.4813  -49.5118 C.3       18 UNK         0.1400 
    101 CB        -7.8664  -21.5362  -48.5669 C.3       18 UNK        -0.1800 
    102 C         -7.9025  -20.5763  -50.9086 C.2       18 UNK         0.5000 
    103 O         -8.7543  -19.7552  -51.2498 O.2       18 UNK        -0.5000 
    104 N         -7.4706  -21.5730  -51.6921 N.am      19 UNK        -0.5000 
    105 CA        -7.9598  -21.8406  -53.0453 C.3       19 UNK         0.1400 
    106 CB        -7.6022  -23.2894  -53.4156 C.3       19 UNK        -0.1800 
    107 C         -7.4006  -20.8731  -54.1055 C.2       19 UNK         0.5000 
    108 O         -7.9521  -20.8085  -55.2044 O.2       19 UNK        -0.5000 
    109 N         -6.2978  -20.1824  -53.7758 N.am      20 UNK        -0.5000 
    110 CA        -5.4652  -19.3539  -54.6577 C.3       20 UNK         0.1400 
    111 CB        -6.2517  -18.1533  -55.2229 C.3       20 UNK        -0.1800 
    112 C         -4.7510  -20.1812  -55.7502 C.2       20 UNK         0.5000 
    113 O         -4.3673  -19.6430  -56.7900 O.2       20 UNK        -0.5000 
    114 N         -4.5541  -21.4790  -55.4759 N.am      21 UNK        -0.5000 
    115 CA        -3.8408  -22.4368  -56.3241 C.3       21 UNK         0.1400 
    116 CB        -4.2420  -23.8606  -55.9075 C.3       21 UNK        -0.1800 
    117 C         -2.3098  -22.2579  -56.2706 C.2       21 UNK         0.5000 
    118 O         -1.5983  -22.8637  -57.0723 O.2       21 UNK        -0.5000 
    119 N         -1.8366  -21.4271  -55.3344 N.am      22 UNK        -0.5000 
    120 CA        -0.4444  -20.9906  -55.1726 C.3       22 UNK         0.1400 
    121 C          0.1520  -20.1787  -56.3637 C.2       22 UNK         0.5000 
    122 N         -0.6512  -19.6384  -57.2732 N.am      22 UNK        -0.7600 
    123 O          1.3684  -20.0443  -56.4645 O.2       22 UNK        -0.5000 
    124 C124       -0.2698  -20.2351  -53.8314 C.3       23 UNK        -0.0398 
    125 S125       -1.3435  -18.7574  -53.6910 S.3       23 UNK        -0.2404 
    126 C126       -0.1660  -17.5112  -53.0880 C.3       23 UNK        -0.0205 
    127 H127        3.4592  -13.8662  -42.5970 H         1 UNK         0.0600 
    128 H128        4.6301  -13.3511  -43.8150 H         1 UNK         0.0600 
    129 H129        3.9416  -14.9783  -43.8803 H         1 UNK         0.0600 
    130 H130        2.6109  -15.0522  -45.6745 H         1 UNK         0.3000 
    131 H131        0.2014  -13.5870  -45.8016 H         1 UNK         0.0600 
    132 H132        1.3923  -15.1583  -48.1466 H         1 UNK         0.0800 
    133 H133        0.7538  -15.9556  -46.7339 H         1 UNK         0.0800 
    134 H134       -2.4440  -16.7453  -48.6047 H         1 UNK         0.0800 
    135 H135       -1.3595  -17.2254  -47.3235 H         1 UNK         0.0800 
    136 H136       -1.5590  -16.5130  -50.9777 H         1 UNK         0.1150 
    137 H137        1.8453  -18.9516  -51.9154 H         1 UNK         0.1150 
    138 H138        0.7481  -18.2763  -47.8325 H         1 UNK         0.1150 
    139 H139        2.8338  -19.3892  -48.3401 H         1 UNK         0.0800 
    140 H140        3.4619  -19.3640  -49.9636 H         1 UNK         0.0800 
    141 H141       -0.1558  -21.1935  -49.2546 H         1 UNK         0.0800 
    142 H142        0.6802  -20.8335  -47.7558 H         1 UNK         0.0800 
    143 H143        0.4103  -23.6243  -48.9751 H         1 UNK         0.0600 
    144 H144        2.0116  -22.7276  -46.7587 H         1 UNK         0.3000 
    145 H145        2.5613  -26.0163  -45.4188 H         1 UNK         0.0600 
    146 H146        4.1527  -25.5686  -47.2979 H         1 UNK         0.0600 
    147 H147        4.8693  -25.1899  -45.7400 H         1 UNK         0.0600 
    148 H148        4.2991  -23.8912  -46.7878 H         1 UNK         0.0600 
    149 H149        3.4170  -23.4660  -44.4936 H         1 UNK         0.3000 
    150 H150        0.6819  -22.7844  -42.3198 H         1 UNK         0.0600 
    151 H151        2.4091  -22.9134  -40.5629 H         1 UNK         0.0600 
    152 H152        1.9814  -24.5334  -41.0886 H         1 UNK         0.0600 
    153 H153        3.4873  -23.8060  -41.6367 H         1 UNK         0.0600 
    154 H154        3.0216  -21.3886  -42.3583 H         1 UNK         0.3000 
    155 H155        3.6175  -19.6509  -43.5806 H         1 UNK         0.0600 
    156 H156        1.9289  -18.9902  -46.0453 H         1 UNK         0.0600 
    157 H157        3.4636  -19.8530  -46.0615 H         1 UNK         0.0600 
    158 H158        3.4106  -18.1715  -45.5524 H         1 UNK         0.0600 
    159 H159        1.3250  -17.9271  -43.9511 H         1 UNK         0.3000 
    160 H160        0.0409  -17.8774  -40.7897 H         1 UNK         0.0600 
    161 H161        2.0820  -16.6598  -40.0224 H         1 UNK         0.0600 
    162 H162        0.7962  -15.5311  -40.4213 H         1 UNK         0.0600 
    163 H163        2.1388  -15.7679  -41.5387 H         1 UNK         0.0600 
    164 H164        0.0572  -15.8570  -42.8364 H         1 UNK         0.3000 
    165 H165       -1.1266  -16.3314  -45.0143 H         1 UNK         0.0600 
    166 H166       -2.6187  -18.2981  -45.3940 H         1 UNK         0.0600 
    167 H167       -3.8193  -17.6091  -44.3090 H         1 UNK         0.0600 
    168 H168       -3.4189  -16.7939  -45.8201 H         1 UNK         0.0600 
    169 H169       -3.4633  -15.2601  -43.7687 H         1 UNK         0.3000 
    170 H170       -3.3435  -12.8047  -43.6881 H         1 UNK         0.0600 
    171 H171       -2.6463  -13.5854  -40.7974 H         1 UNK         0.0600 
    172 H172       -4.0136  -14.1971  -41.7192 H         1 UNK         0.0600 
    173 H173       -3.9540  -12.5024  -41.2738 H         1 UNK         0.0600 
    174 H174       -1.6211  -11.5732  -41.7359 H         1 UNK         0.3000 
    175 H175       -0.9395   -9.0582  -43.1493 H         1 UNK         0.0600 
    176 H176       -0.4223  -10.1987  -41.0079 H         1 UNK         0.0600 
    177 H177        0.9131  -11.0789  -41.7546 H         1 UNK         0.0600 
    178 H178        1.0059   -9.3345  -41.5341 H         1 UNK         0.0600 
    179 H179        1.0602  -10.5770  -44.6334 H         1 UNK         0.3000 
    180 H180        2.3784   -7.6154  -46.1128 H         1 UNK         0.0600 
    181 H181        3.7182  -10.0199  -44.7569 H         1 UNK         0.0600 
    182 H182        4.0717   -8.3292  -44.4213 H         1 UNK         0.0600 
    183 H183        4.4370   -9.0012  -46.0035 H         1 UNK         0.0600 
    184 H184        2.3205  -10.4618  -46.7382 H         1 UNK         0.3000 
    185 H185       -0.7233  -10.3503  -48.5677 H         1 UNK         0.0600 
    186 H186        0.8842   -9.7349  -50.3055 H         1 UNK         0.0600 
    187 H187        2.1275  -10.7561  -49.6067 H         1 UNK         0.0600 
    188 H188        0.6771  -11.4797  -50.3030 H         1 UNK         0.0600 
    189 H189       -0.5616  -12.1003  -47.2802 H         1 UNK         0.3000 
    190 H190       -0.3069  -22.6099  -45.6542 H         1 UNK         0.3000 
    191 H191       -3.1593  -22.4982  -45.9412 H         1 UNK         0.0600 
    192 H192       -1.9341  -21.3744  -44.0895 H         1 UNK         0.0600 
    193 H193       -3.1417  -22.4880  -43.4636 H         1 UNK         0.0600 
    194 H194       -1.4424  -22.9381  -43.4439 H         1 UNK         0.0600 
    195 H195       -0.9346  -25.0885  -44.7352 H         1 UNK         0.3000 
    196 H196       -2.9452  -27.0122  -44.2107 H         1 UNK         0.0600 
    197 H197        0.0404  -27.3651  -44.8022 H         1 UNK         0.0600 
    198 H198       -1.0080  -28.5997  -44.1123 H         1 UNK         0.0600 
    199 H199       -0.6888  -27.1244  -43.2147 H         1 UNK         0.0600 
    200 H200       -1.0190  -26.3908  -47.1616 H         1 UNK         0.3000 
    201 H201       -2.0880  -28.5912  -48.6899 H         1 UNK         0.0600 
    202 H202       -1.0090  -27.3759  -50.5907 H         1 UNK         0.0600 
    203 H203        0.0821  -27.4917  -49.2197 H         1 UNK         0.0600 
    204 H204       -0.7446  -25.9729  -49.5616 H         1 UNK         0.0600 
    205 H205       -3.4583  -25.6280  -47.6989 H         1 UNK         0.3000 
    206 H206       -5.2381  -24.4264  -48.0964 H         1 UNK         0.0600 
    207 H207       -6.3233  -26.6528  -49.8974 H         1 UNK         0.0600 
    208 H208       -6.5007  -26.5968  -48.1430 H         1 UNK         0.0600 
    209 H209       -7.2449  -25.3617  -49.1450 H         1 UNK         0.0600 
    210 H210       -2.8779  -24.5950  -50.0936 H         1 UNK         0.3000 
    211 H211       -3.8025  -23.6228  -52.6203 H         1 UNK         0.0600 
    212 H212       -1.3963  -23.1536  -53.0062 H         1 UNK         0.0600 
    213 H213       -1.5837  -24.7371  -52.2760 H         1 UNK         0.0600 
    214 H214       -1.0442  -23.3746  -51.2947 H         1 UNK         0.0600 
    215 H215       -2.8958  -22.0750  -49.5794 H         1 UNK         0.3000 
    216 H216       -2.9117  -19.3408  -50.4573 H         1 UNK         0.0600 
    217 H217       -3.3359  -20.6710  -47.7235 H         1 UNK         0.0600 
    218 H218       -1.8577  -19.9282  -48.3306 H         1 UNK         0.0600 
    219 H219       -3.2482  -18.9335  -47.9453 H         1 UNK         0.0600 
    220 H220       -5.4566  -21.5645  -49.3570 H         1 UNK         0.3000 
    221 H221       -7.5008  -19.4952  -49.1034 H         1 UNK         0.0600 
    222 H222       -7.6620  -22.5517  -48.9081 H         1 UNK         0.0600 
    223 H223       -7.4641  -21.4348  -47.5589 H         1 UNK         0.0600 
    224 H224       -8.9493  -21.4265  -48.4965 H         1 UNK         0.0600 
    225 H225       -6.7994  -22.2400  -51.3160 H         1 UNK         0.3000 
    226 H226       -9.0475  -21.7438  -53.0498 H         1 UNK         0.0600 
    227 H227       -8.0358  -23.9955  -52.7070 H         1 UNK         0.0600 
    228 H228       -7.9811  -23.5481  -54.4052 H         1 UNK         0.0600 
    229 H229       -6.5230  -23.4477  -53.4249 H         1 UNK         0.0600 
    230 H230       -5.9118  -20.3385  -52.8538 H         1 UNK         0.3000 
    231 H231       -4.6725  -18.9524  -54.0245 H         1 UNK         0.0600 
    232 H232       -7.0029  -18.4624  -55.9498 H         1 UNK         0.0600 
    233 H233       -5.5834  -17.4534  -55.7257 H         1 UNK         0.0600 
    234 H234       -6.7570  -17.6042  -54.4284 H         1 UNK         0.0600 
    235 H235       -4.8577  -21.8112  -54.5722 H         1 UNK         0.3000 
    236 H236       -4.1532  -22.2815  -57.3587 H         1 UNK         0.0600 
    237 H237       -3.9155  -24.0930  -54.8944 H         1 UNK         0.0600 
    238 H238       -5.3227  -23.9968  -55.9533 H         1 UNK         0.0600 
    239 H239       -3.7943  -24.6010  -56.5715 H         1 UNK         0.0600 
    240 H240       -2.5016  -20.9818  -54.7168 H         1 UNK         0.3000 
    241 H241        0.1557  -21.9002  -55.1103 H         1 UNK         0.0600 
    242 H242       -0.2546  -19.1192  -58.0404 H         1 UNK         0.3800 
    243 H243       -1.6526  -19.7247  -57.1896 H         1 UNK         0.3800 
    244 H244        0.7763  -19.9587  -53.6981 H         1 UNK         0.0800 
    245 H245       -0.5043  -20.8953  -52.9961 H         1 UNK         0.0800 
    246 H246       -0.5877  -16.5188  -53.2540 H         1 UNK         0.0800 
    247 H247        0.7568  -17.5505  -53.6690 H         1 UNK         0.0800 
@<TRIPOS>BOND
     1    1    2 1    
     2    1  127 1    
     3    1  128 1    
     4    1  129 1    
     5    2    3 2    
     6    2    4 am   BACKBONE|DICT|INTERRES
     7    4    5 1    
     8    4  130 1    
     9    5    6 1    
    10    5   65 1    
    11    5  131 1    
    12    6    7 1    
    13    6  132 1    
    14    6  133 1    
    15    7    8 1    
    16    8    9 1    
    17    8  134 1    
    18    8  135 1    
    19    9   10 ar   
    20    9   14 ar   
    21   10   11 ar   
    22   10  136 1    
    23   11   12 ar   
    24   11  126 1    
    25   12   13 ar   
    26   12  137 1    
    27   13   14 ar   
    28   13   15 1    
    29   14  138 1    
    30   15   16 1    
    31   15  139 1    
    32   15  140 1    
    33   16   17 1    
    34   17   18 1    
    35   17  141 1    
    36   17  142 1    
    37   18   19 1    
    38   18   67 1    
    39   18  143 1    
    40   19   20 am   BACKBONE|DICT|INTERRES
    41   19  144 1    
    42   20   21 2    
    43   20   22 1    
    44   22   23 1    
    45   22   24 1    
    46   22  145 1    
    47   23  146 1    
    48   23  147 1    
    49   23  148 1    
    50   24   25 am   BACKBONE|DICT|INTERRES
    51   24  149 1    
    52   25   26 2    
    53   25   27 1    
    54   27   28 1    
    55   27   29 1    
    56   27  150 1    
    57   28  151 1    
    58   28  152 1    
    59   28  153 1    
    60   29   30 am   BACKBONE|DICT|INTERRES
    61   29  154 1    
    62   30   31 2    
    63   30   32 1    
    64   32   33 1    
    65   32   34 1    
    66   32  155 1    
    67   33  156 1    
    68   33  157 1    
    69   33  158 1    
    70   34   35 am   BACKBONE|DICT|INTERRES
    71   34  159 1    
    72   35   36 2    
    73   35   37 1    
    74   37   38 1    
    75   37   39 1    
    76   37  160 1    
    77   38  161 1    
    78   38  162 1    
    79   38  163 1    
    80   39   40 am   BACKBONE|DICT|INTERRES
    81   39  164 1    
    82   40   41 2    
    83   40   42 1    
    84   42   43 1    
    85   42   44 1    
    86   42  165 1    
    87   43  166 1    
    88   43  167 1    
    89   43  168 1    
    90   44   45 am   BACKBONE|DICT|INTERRES
    91   44  169 1    
    92   45   46 2    
    93   45   47 1    
    94   47   48 1    
    95   47   49 1    
    96   47  170 1    
    97   48  171 1    
    98   48  172 1    
    99   48  173 1    
   100   49   50 am   BACKBONE|DICT|INTERRES
   101   49  174 1    
   102   50   51 2    
   103   50   52 1    
   104   52   53 1    
   105   52   54 1    
   106   52  175 1    
   107   53  176 1    
   108   53  177 1    
   109   53  178 1    
   110   54   55 am   BACKBONE|DICT|INTERRES
   111   54  179 1    
   112   55   56 2    
   113   55   57 1    
   114   57   58 1    
   115   57   59 1    
   116   57  180 1    
   117   58  181 1    
   118   58  182 1    
   119   58  183 1    
   120   59   60 am   BACKBONE|DICT|INTERRES
   121   59  184 1    
   122   60   61 2    
   123   60   62 1    
   124   62   63 1    
   125   62   64 1    
   126   62  185 1    
   127   63  186 1    
   128   63  187 1    
   129   63  188 1    
   130   64   65 am   BACKBONE|DICT|INTERRES
   131   64  189 1    
   132   65   66 2    
   133   67   68 2    
   134   67   69 am   BACKBONE|DICT|INTERRES
   135   69   70 1    
   136   69  190 1    
   137   70   71 1    
   138   70   72 1    
   139   70  191 1    
   140   71  192 1    
   141   71  193 1    
   142   71  194 1    
   143   72   73 2    
   144   72   74 am   BACKBONE|DICT|INTERRES
   145   74   75 1    
   146   74  195 1    
   147   75   76 1    
   148   75   77 1    
   149   75  196 1    
   150   76  197 1    
   151   76  198 1    
   152   76  199 1    
   153   77   78 2    
   154   77   79 am   BACKBONE|DICT|INTERRES
   155   79   80 1    
   156   79  200 1    
   157   80   81 1    
   158   80   82 1    
   159   80  201 1    
   160   81  202 1    
   161   81  203 1    
   162   81  204 1    
   163   82   83 2    
   164   82   84 am   BACKBONE|DICT|INTERRES
   165   84   85 1    
   166   84  205 1    
   167   85   86 1    
   168   85   87 1    
   169   85  206 1    
   170   86  207 1    
   171   86  208 1    
   172   86  209 1    
   173   87   88 2    
   174   87   89 am   BACKBONE|DICT|INTERRES
   175   89   90 1    
   176   89  210 1    
   177   90   91 1    
   178   90   92 1    
   179   90  211 1    
   180   91  212 1    
   181   91  213 1    
   182   91  214 1    
   183   92   93 2    
   184   92   94 am   BACKBONE|DICT|INTERRES
   185   94   95 1    
   186   94  215 1    
   187   95   96 1    
   188   95   97 1    
   189   95  216 1    
   190   96  217 1    
   191   96  218 1    
   192   96  219 1    
   193   97   98 2    
   194   97   99 am   BACKBONE|DICT|INTERRES
   195   99  100 1    
   196   99  220 1    
   197  100  101 1    
   198  100  102 1    
   199  100  221 1    
   200  101  222 1    
   201  101  223 1    
   202  101  224 1    
   203  102  103 2    
   204  102  104 am   BACKBONE|DICT|INTERRES
   205  104  105 1    
   206  104  225 1    
   207  105  106 1    
   208  105  107 1    
   209  105  226 1    
   210  106  227 1    
   211  106  228 1    
   212  106  229 1    
   213  107  108 2    
   214  107  109 am   BACKBONE|DICT|INTERRES
   215  109  110 1    
   216  109  230 1    
   217  110  111 1    
   218  110  112 1    
   219  110  231 1    
   220  111  232 1    
   221  111  233 1    
   222  111  234 1    
   223  112  113 2    
   224  112  114 am   BACKBONE|DICT|INTERRES
   225  114  115 1    
   226  114  235 1    
   227  115  116 1    
   228  115  117 1    
   229  115  236 1    
   230  116  237 1    
   231  116  238 1    
   232  116  239 1    
   233  117  118 2    
   234  117  119 am   BACKBONE|DICT|INTERRES
   235  119  120 1    
   236  119  240 1    
   237  120  121 1    
   238  120  124 1    
   239  120  241 1    
   240  121  122 am   BACKBONE|DICT|INTERRES
   241  121  123 2    
   242  122  242 1    
   243  122  243 1    
   244  124  125 1    
   245  124  244 1    
   246  124  245 1    
   247  125  126 1    
   248  126  246 1    
   249  126  247 1    
@<TRIPOS>SUBSTRUCTURE
     1 UNK         1 GROUP             0       ****    0 ROOT    
