@<TRIPOS>MOLECULE
3R540
247   249    1
SMALL
USER_CHARGES


@<TRIPOS>ATOM
      1 CA          0.6553  -15.6288  -53.9905 C.3       0 UNK        -0.1800 
      2 C           0.5878  -16.2333  -52.5969 C.2       0 UNK         0.5000 
      3 O           0.2650  -17.4134  -52.4595 O.2       0 UNK        -0.5000 
      4 N           0.8783  -15.4148  -51.5760 N.am      1 UNK        -0.5000 
      5 CA          0.9572  -15.7617  -50.1484 C.3       1 UNK         0.1400 
      6 C6          2.1452  -16.6969  -49.8072 C.3       23 UNK        -0.0398 
      7 S7          3.7690  -15.8960  -50.0630 S.3       23 UNK        -0.2404 
      8 C8          4.5788  -16.9576  -51.3098 C.3       23 UNK        -0.0205 
      9 C9          4.5697  -18.4430  -50.9607 C.ar      23 UNK        -0.0193 
     10 C10         4.2147  -19.3729  -51.9404 C.ar      23 UNK        -0.1150 
     11 C11         4.1119  -20.7310  -51.6302 C.ar      23 UNK        -0.0193 
     12 C12         4.3755  -21.1612  -50.3288 C.ar      23 UNK        -0.1150 
     13 C13         4.7477  -20.2472  -49.3400 C.ar      23 UNK        -0.0193 
     14 C14         4.8766  -18.8932  -49.6713 C.ar      23 UNK        -0.1150 
     15 C15         4.9734  -20.7360  -47.9139 C.3       23 UNK        -0.0205 
     16 S16         4.0814  -19.7763  -46.6405 S.3       23 UNK        -0.2404 
     17 C17         2.4062  -19.5618  -47.3438 C.3       23 UNK        -0.0398 
     18 CA          1.5097  -20.8206  -47.3126 C.3       11 UNK         0.1400 
     19 N           1.4534  -21.4540  -45.9941 N.am      11 UNK        -0.5000 
     20 C           0.9706  -22.6837  -45.7657 C.2       10 UNK         0.5000 
     21 O           0.5513  -23.4228  -46.6558 O.2       10 UNK        -0.5000 
     22 CA          0.9029  -23.1565  -44.2990 C.3       10 UNK         0.1400 
     23 CB          2.1951  -23.8917  -43.9151 C.3       10 UNK        -0.1800 
     24 N           0.6719  -22.0683  -43.3486 N.am      10 UNK        -0.5000 
     25 C          -0.4036  -21.2681  -43.3377 C.2       9 UNK         0.5000 
     26 O          -1.3752  -21.4265  -44.0763 O.2       9 UNK        -0.5000 
     27 CA         -0.3588  -20.0491  -42.3931 C.3       9 UNK         0.1400 
     28 CB         -1.1343  -20.3493  -41.1034 C.3       9 UNK        -0.1800 
     29 N           1.0004  -19.5917  -42.0646 N.am      9 UNK        -0.5000 
     30 C           1.9000  -19.1779  -42.9739 C.2       8 UNK         0.5000 
     31 O           1.6598  -19.1697  -44.1800 O.2       8 UNK        -0.5000 
     32 CA          3.2945  -18.7304  -42.4935 C.3       8 UNK         0.1400 
     33 CB          3.6653  -17.3480  -43.0539 C.3       8 UNK        -0.1800 
     34 N           3.4020  -18.6904  -41.0370 N.am      8 UNK        -0.5000 
     35 C           3.9247  -19.6631  -40.2778 C.2       7 UNK         0.5000 
     36 O           4.3855  -20.7103  -40.7327 O.2       7 UNK        -0.5000 
     37 CA          3.9211  -19.4420  -38.7502 C.3       7 UNK         0.1400 
     38 CB          5.3006  -18.9610  -38.2747 C.3       7 UNK        -0.1800 
     39 N           2.9039  -18.4919  -38.2914 N.am      7 UNK        -0.5000 
     40 C           1.5822  -18.6765  -38.4022 C.2       6 UNK         0.5000 
     41 O           1.0825  -19.6929  -38.8858 O.2       6 UNK        -0.5000 
     42 CA          0.6548  -17.5309  -37.9482 C.3       6 UNK         0.1400 
     43 CB          1.3873  -16.3332  -37.3009 C.3       6 UNK        -0.1800 
     44 N          -0.2012  -17.0765  -39.0494 N.am      6 UNK        -0.5000 
     45 C           0.1983  -16.5841  -40.2310 C.2       5 UNK         0.5000 
     46 O           1.3806  -16.4298  -40.5524 O.2       5 UNK        -0.5000 
     47 CA         -0.9196  -16.2043  -41.2140 C.3       5 UNK         0.1400 
     48 CB         -1.7937  -15.0617  -40.6603 C.3       5 UNK        -0.1800 
     49 N          -0.3390  -15.7978  -42.4908 N.am      5 UNK        -0.5000 
     50 C          -0.9695  -15.8398  -43.6685 C.2       4 UNK         0.5000 
     51 O          -2.1029  -16.3025  -43.8151 O.2       4 UNK        -0.5000 
     52 CA         -0.1975  -15.2740  -44.8793 C.3       4 UNK         0.1400 
     53 CB          0.7395  -16.3298  -45.4777 C.3       4 UNK        -0.1800 
     54 N          -1.0806  -14.7828  -45.9382 N.am      4 UNK        -0.5000 
     55 C          -1.8940  -13.7223  -45.8266 C.2       3 UNK         0.5000 
     56 O          -1.9588  -13.0261  -44.8118 O.2       3 UNK        -0.5000 
     57 CA         -2.7536  -13.3366  -47.0503 C.3       3 UNK         0.1400 
     58 CB         -2.4438  -11.8994  -47.5029 C.3       3 UNK        -0.1800 
     59 N          -2.5758  -14.2252  -48.2001 N.am      3 UNK        -0.5000 
     60 C          -3.2102  -15.3905  -48.3833 C.2       2 UNK         0.5000 
     61 O          -4.0252  -15.8540  -47.5891 O.2       2 UNK        -0.5000 
     62 CA         -2.8598  -16.1746  -49.6643 C.3       2 UNK         0.1400 
     63 CB         -3.8718  -15.8714  -50.7774 C.3       2 UNK        -0.1800 
     64 N          -1.5104  -15.8910  -50.1621 N.am      2 UNK        -0.5000 
     65 C          -0.3799  -16.2476  -49.5364 C.2       1 UNK         0.5000 
     66 O          -0.3781  -16.8755  -48.4778 O.2       1 UNK        -0.5000 
     67 C           0.0953  -20.4658  -47.8139 C.2       11 UNK         0.5000 
     68 O          -0.2073  -20.6763  -48.9876 O.2       11 UNK        -0.5000 
     69 N          -0.7562  -19.9710  -46.9028 N.am      12 UNK        -0.5000 
     70 CA         -2.1580  -19.6597  -47.1778 C.3       12 UNK         0.1400 
     71 CB         -2.7290  -18.7729  -46.0655 C.3       12 UNK        -0.1800 
     72 C          -3.0041  -20.9285  -47.3701 C.2       12 UNK         0.5000 
     73 O          -3.8731  -20.9483  -48.2412 O.2       12 UNK        -0.5000 
     74 N          -2.7036  -21.9847  -46.5997 N.am      13 UNK        -0.5000 
     75 CA         -3.2737  -23.3224  -46.7679 C.3       13 UNK         0.1400 
     76 CB         -2.7881  -24.2494  -45.6445 C.3       13 UNK        -0.1800 
     77 C          -2.9584  -23.9116  -48.1551 C.2       13 UNK         0.5000 
     78 O          -3.8717  -24.3868  -48.8314 O.2       13 UNK        -0.5000 
     79 N          -1.6895  -23.8002  -48.5762 N.am      14 UNK        -0.5000 
     80 CA         -1.2046  -24.1931  -49.9009 C.3       14 UNK         0.1400 
     81 CB          0.3283  -24.1343  -49.9186 C.3       14 UNK        -0.1800 
     82 C          -1.8112  -23.3649  -51.0535 C.2       14 UNK         0.5000 
     83 O          -1.9911  -23.9001  -52.1469 O.2       14 UNK        -0.5000 
     84 N          -2.2007  -22.1118  -50.7789 N.am      15 UNK        -0.5000 
     85 CA         -2.9761  -21.2331  -51.6620 C.3       15 UNK         0.1400 
     86 CB         -2.7217  -19.7670  -51.2623 C.3       15 UNK        -0.1800 
     87 C          -4.4876  -21.5715  -51.6794 C.2       15 UNK         0.5000 
     88 O          -5.3164  -20.6678  -51.8042 O.2       15 UNK        -0.5000 
     89 N          -4.8234  -22.8632  -51.5449 N.am      16 UNK        -0.5000 
     90 CA         -6.1656  -23.4511  -51.5064 C.3       16 UNK         0.1400 
     91 CB         -6.8440  -23.3320  -52.8872 C.3       16 UNK        -0.1800 
     92 C          -7.0308  -22.8806  -50.3651 C.2       16 UNK         0.5000 
     93 O          -8.1841  -22.5167  -50.5921 O.2       16 UNK        -0.5000 
     94 N          -6.4428  -22.7714  -49.1642 N.am      17 UNK        -0.5000 
     95 CA         -7.0220  -22.1367  -47.9703 C.3       17 UNK         0.1400 
     96 CB         -8.1771  -22.9871  -47.4031 C.3       17 UNK        -0.1800 
     97 C          -7.4138  -20.6648  -48.2271 C.2       17 UNK         0.5000 
     98 O          -8.5103  -20.2326  -47.8684 O.2       17 UNK        -0.5000 
     99 N          -6.4967  -19.9456  -48.8872 N.am      18 UNK        -0.5000 
    100 CA        -6.5728  -18.5564  -49.3444 C.3       18 UNK         0.1400 
    101 CB        -6.7382  -17.5983  -48.1479 C.3       18 UNK        -0.1800 
    102 C         -7.6171  -18.2871  -50.4510 C.2       18 UNK         0.5000 
    103 O         -7.8587  -17.1213  -50.7685 O.2       18 UNK        -0.5000 
    104 N         -8.2142  -19.3366  -51.0355 N.am      19 UNK        -0.5000 
    105 CA        -9.1826  -19.2196  -52.1293 C.3       19 UNK         0.1400 
    106 CB       -10.0761  -20.4684  -52.1623 C.3       19 UNK        -0.1800 
    107 C         -8.5150  -19.0058  -53.5010 C.2       19 UNK         0.5000 
    108 O         -9.1847  -18.5415  -54.4253 O.2       19 UNK        -0.5000 
    109 N         -7.2280  -19.3516  -53.6171 N.am      20 UNK        -0.5000 
    110 CA        -6.4135  -19.2012  -54.8172 C.3       20 UNK         0.1400 
    111 CB        -6.1818  -20.5941  -55.4394 C.3       20 UNK        -0.1800 
    112 C         -5.1140  -18.4604  -54.4515 C.2       20 UNK         0.5000 
    113 O         -5.1300  -17.5849  -53.5848 O.2       20 UNK        -0.5000 
    114 N         -4.0149  -18.8138  -55.1208 N.am      21 UNK        -0.5000 
    115 CA        -2.6619  -18.3378  -54.8681 C.3       21 UNK         0.1400 
    116 CB        -2.2908  -17.2801  -55.9193 C.3       21 UNK        -0.1800 
    117 C         -1.7316  -19.5523  -54.9605 C.2       21 UNK         0.5000 
    118 O         -1.9896  -20.4495  -55.7680 O.2       21 UNK        -0.5000 
    119 N         -0.6751  -19.5668  -54.1431 N.am      22 UNK        -0.5000 
    120 CA         0.3499  -20.6207  -54.1546 C.3       22 UNK         0.1400 
    121 C          1.3659  -20.4763  -55.3292 C.2       22 UNK         0.5000 
    122 N          1.5512  -19.2914  -55.8999 N.am      22 UNK        -0.7600 
    123 O          1.9728  -21.4551  -55.7533 O.2       22 UNK        -0.5000 
    124 C124        1.0467  -20.6995  -52.7749 C.3       23 UNK        -0.0398 
    125 S125        1.9572  -22.2551  -52.4855 S.3       23 UNK        -0.2404 
    126 C126        3.6892  -21.7313  -52.6940 C.3       23 UNK        -0.0205 
    127 H127        1.2775  -14.7337  -54.0083 H         1 UNK         0.0600 
    128 H128       -0.3441  -15.3560  -54.3280 H         1 UNK         0.0600 
    129 H129        1.0778  -16.3443  -54.6952 H         1 UNK         0.0600 
    130 H130        1.1226  -14.4571  -51.7870 H         1 UNK         0.3000 
    131 H131        1.1456  -14.8160  -49.6378 H         1 UNK         0.0600 
    132 H132        2.0699  -17.6288  -50.3686 H         1 UNK         0.0800 
    133 H133        2.1243  -16.9714  -48.7525 H         1 UNK         0.0800 
    134 H134        5.6123  -16.6321  -51.4328 H         1 UNK         0.0800 
    135 H135        4.0841  -16.7872  -52.2674 H         1 UNK         0.0800 
    136 H136        3.9878  -19.0364  -52.9426 H         1 UNK         0.1150 
    137 H137        4.2713  -22.2096  -50.0860 H         1 UNK         0.1150 
    138 H138        5.1583  -18.1821  -48.9075 H         1 UNK         0.1150 
    139 H139        4.6738  -21.7807  -47.8165 H         1 UNK         0.0800 
    140 H140        6.0413  -20.7023  -47.6954 H         1 UNK         0.0800 
    141 H141        2.4885  -19.2040  -48.3684 H         1 UNK         0.0800 
    142 H142        1.9374  -18.7478  -46.7891 H         1 UNK         0.0800 
    143 H143        1.9330  -21.5457  -48.0115 H         1 UNK         0.0600 
    144 H144        1.7346  -20.8685  -45.2146 H         1 UNK         0.3000 
    145 H145        0.0706  -23.8569  -44.2116 H         1 UNK         0.0600 
    146 H146        2.1324  -24.3006  -42.9065 H         1 UNK         0.0600 
    147 H147        2.3851  -24.7260  -44.5917 H         1 UNK         0.0600 
    148 H148        3.0618  -23.2306  -43.9572 H         1 UNK         0.0600 
    149 H149        1.4222  -21.8612  -42.7061 H         1 UNK         0.3000 
    150 H150       -0.8622  -19.2279  -42.9079 H         1 UNK         0.0600 
    151 H151       -2.1538  -20.6680  -41.3247 H         1 UNK         0.0600 
    152 H152       -1.2039  -19.4684  -40.4667 H         1 UNK         0.0600 
    153 H153       -0.6598  -21.1438  -40.5263 H         1 UNK         0.0600 
    154 H154        1.2568  -19.5974  -41.0846 H         1 UNK         0.3000 
    155 H155        4.0095  -19.4487  -42.8997 H         1 UNK         0.0600 
    156 H156        2.9525  -16.5821  -42.7484 H         1 UNK         0.0600 
    157 H157        3.6922  -17.3629  -44.1443 H         1 UNK         0.0600 
    158 H158        4.6539  -17.0388  -42.7146 H         1 UNK         0.0600 
    159 H159        2.9978  -17.8763  -40.5875 H         1 UNK         0.3000 
    160 H160        3.7145  -20.4066  -38.2820 H         1 UNK         0.0600 
    161 H161        5.5536  -17.9870  -38.6955 H         1 UNK         0.0600 
    162 H162        6.0828  -19.6606  -38.5726 H         1 UNK         0.0600 
    163 H163        5.3376  -18.8786  -37.1883 H         1 UNK         0.0600 
    164 H164        3.2387  -17.6209  -37.9057 H         1 UNK         0.3000 
    165 H165       -0.0074  -17.9590  -37.1945 H         1 UNK         0.0600 
    166 H166        0.6741  -15.5808  -36.9641 H         1 UNK         0.0600 
    167 H167        1.9563  -16.6453  -36.4243 H         1 UNK         0.0600 
    168 H168        2.0757  -15.8443  -37.9911 H         1 UNK         0.0600 
    169 H169       -1.1924  -17.1899  -38.8911 H         1 UNK         0.3000 
    170 H170       -1.5362  -17.0924  -41.3666 H         1 UNK         0.0600 
    171 H171       -2.2710  -15.3414  -39.7208 H         1 UNK         0.0600 
    172 H172       -1.2048  -14.1624  -40.4758 H         1 UNK         0.0600 
    173 H173       -2.5911  -14.7998  -41.3561 H         1 UNK         0.0600 
    174 H174        0.6200  -15.4804  -42.4283 H         1 UNK         0.3000 
    175 H175        0.4077  -14.4319  -44.5370 H         1 UNK         0.0600 
    176 H176        0.1981  -17.2285  -45.7751 H         1 UNK         0.0600 
    177 H177        1.2667  -15.9485  -46.3523 H         1 UNK         0.0600 
    178 H178        1.4950  -16.6243  -44.7534 H         1 UNK         0.0600 
    179 H179       -1.1129  -15.3325  -46.7856 H         1 UNK         0.3000 
    180 H180       -3.7977  -13.3725  -46.7325 H         1 UNK         0.0600 
    181 H181       -1.4044  -11.7914  -47.8153 H         1 UNK         0.0600 
    182 H182       -2.6201  -11.1856  -46.6972 H         1 UNK         0.0600 
    183 H183       -3.0788  -11.6033  -48.3382 H         1 UNK         0.0600 
    184 H184       -1.9181  -13.9239  -48.9036 H         1 UNK         0.3000 
    185 H185       -2.9219  -17.2376  -49.4269 H         1 UNK         0.0600 
    186 H186       -3.6721  -16.4778  -51.6603 H         1 UNK         0.0600 
    187 H187       -4.8907  -16.0904  -50.4566 H         1 UNK         0.0600 
    188 H188       -3.8415  -14.8231  -51.0764 H         1 UNK         0.0600 
    189 H189       -1.4386  -15.3801  -51.0295 H         1 UNK         0.3000 
    190 H190       -0.4384  -19.8549  -45.9514 H         1 UNK         0.3000 
    191 H191       -2.1992  -19.0916  -48.1082 H         1 UNK         0.0600 
    192 H192       -2.6488  -19.2406  -45.0842 H         1 UNK         0.0600 
    193 H193       -3.7826  -18.5536  -46.2425 H         1 UNK         0.0600 
    194 H194       -2.2069  -17.8173  -46.0296 H         1 UNK         0.0600 
    195 H195       -2.0323  -21.8614  -45.8474 H         1 UNK         0.3000 
    196 H196       -4.3562  -23.2361  -46.6773 H         1 UNK         0.0600 
    197 H197       -3.2854  -25.2184  -45.7009 H         1 UNK         0.0600 
    198 H198       -3.0046  -23.8285  -44.6624 H         1 UNK         0.0600 
    199 H199       -1.7163  -24.4317  -45.7027 H         1 UNK         0.0600 
    200 H200       -0.9933  -23.4302  -47.9365 H         1 UNK         0.3000 
    201 H201       -1.5004  -25.2320  -50.0602 H         1 UNK         0.0600 
    202 H202        0.7575  -24.7671  -49.1418 H         1 UNK         0.0600 
    203 H203        0.6947  -23.1193  -49.7634 H         1 UNK         0.0600 
    204 H204        0.7189  -24.4858  -50.8739 H         1 UNK         0.0600 
    205 H205       -1.9852  -21.7404  -49.8622 H         1 UNK         0.3000 
    206 H206       -2.6135  -21.3677  -52.6822 H         1 UNK         0.0600 
    207 H207       -1.6590  -19.5261  -51.2563 H         1 UNK         0.0600 
    208 H208       -3.2062  -19.0803  -51.9550 H         1 UNK         0.0600 
    209 H209       -3.1171  -19.5472  -50.2730 H         1 UNK         0.0600 
    210 H210       -4.0622  -23.5224  -51.4483 H         1 UNK         0.3000 
    211 H211       -6.0317  -24.5119  -51.2907 H         1 UNK         0.0600 
    212 H212       -7.0800  -22.2966  -53.1330 H         1 UNK         0.0600 
    213 H213       -7.7793  -23.8921  -52.9116 H         1 UNK         0.0600 
    214 H214       -6.2070  -23.7284  -53.6777 H         1 UNK         0.0600 
    215 H215       -5.4859  -23.0977  -49.0785 H         1 UNK         0.3000 
    216 H216       -6.2379  -22.1064  -47.2150 H         1 UNK         0.0600 
    217 H217       -8.5333  -22.5787  -46.4568 H         1 UNK         0.0600 
    218 H218       -7.8552  -24.0110  -47.2136 H         1 UNK         0.0600 
    219 H219       -9.0284  -23.0235  -48.0835 H         1 UNK         0.0600 
    220 H220       -5.6165  -20.4106  -49.0887 H         1 UNK         0.3000 
    221 H221       -5.6023  -18.3523  -49.7985 H         1 UNK         0.0600 
    222 H222       -7.7246  -17.6832  -47.6917 H         1 UNK         0.0600 
    223 H223       -5.9933  -17.7973  -47.3776 H         1 UNK         0.0600 
    224 H224       -6.6124  -16.5601  -48.4568 H         1 UNK         0.0600 
    225 H225       -7.9726  -20.2739  -50.7370 H         1 UNK         0.3000 
    226 H226       -9.8251  -18.3581  -51.9354 H         1 UNK         0.0600 
    227 H227      -10.5041  -20.6792  -51.1820 H         1 UNK         0.0600 
    228 H228      -10.9048  -20.3329  -52.8582 H         1 UNK         0.0600 
    229 H229       -9.5235  -21.3501  -52.4873 H         1 UNK         0.0600 
    230 H230       -6.7279  -19.6865  -52.7977 H         1 UNK         0.3000 
    231 H231       -6.9273  -18.5767  -55.5504 H         1 UNK         0.0600 
    232 H232       -7.1267  -21.1155  -55.5940 H         1 UNK         0.0600 
    233 H233       -5.5585  -21.2219  -54.8012 H         1 UNK         0.0600 
    234 H234       -5.6985  -20.5214  -56.4142 H         1 UNK         0.0600 
    235 H235       -4.0629  -19.5809  -55.7793 H         1 UNK         0.3000 
    236 H236       -2.5803  -17.9009  -53.8708 H         1 UNK         0.0600 
    237 H237       -1.2512  -16.9709  -55.8173 H         1 UNK         0.0600 
    238 H238       -2.4181  -17.6601  -56.9338 H         1 UNK         0.0600 
    239 H239       -2.9106  -16.3894  -55.8149 H         1 UNK         0.0600 
    240 H240       -0.4984  -18.7867  -53.5136 H         1 UNK         0.3000 
    241 H241       -0.1633  -21.5727  -54.3067 H         1 UNK         0.0600 
    242 H242        2.1971  -19.2097  -56.6694 H         1 UNK         0.3800 
    243 H243        1.0462  -18.4826  -55.5802 H         1 UNK         0.3800 
    244 H244        1.6823  -19.8300  -52.6198 H         1 UNK         0.0800 
    245 H245        0.2970  -20.6471  -51.9846 H         1 UNK         0.0800 
    246 H246        4.3318  -22.6109  -52.6378 H         1 UNK         0.0800 
    247 H247        3.8298  -21.3166  -53.6929 H         1 UNK         0.0800 
@<TRIPOS>BOND
     1    1    2 1    
     2    1  127 1    
     3    1  128 1    
     4    1  129 1    
     5    2    3 2    
     6    2    4 am   BACKBONE|DICT|INTERRES
     7    4    5 1    
     8    4  130 1    
     9    5    6 1    
    10    5   65 1    
    11    5  131 1    
    12    6    7 1    
    13    6  132 1    
    14    6  133 1    
    15    7    8 1    
    16    8    9 1    
    17    8  134 1    
    18    8  135 1    
    19    9   10 ar   
    20    9   14 ar   
    21   10   11 ar   
    22   10  136 1    
    23   11   12 ar   
    24   11  126 1    
    25   12   13 ar   
    26   12  137 1    
    27   13   14 ar   
    28   13   15 1    
    29   14  138 1    
    30   15   16 1    
    31   15  139 1    
    32   15  140 1    
    33   16   17 1    
    34   17   18 1    
    35   17  141 1    
    36   17  142 1    
    37   18   19 1    
    38   18   67 1    
    39   18  143 1    
    40   19   20 am   BACKBONE|DICT|INTERRES
    41   19  144 1    
    42   20   21 2    
    43   20   22 1    
    44   22   23 1    
    45   22   24 1    
    46   22  145 1    
    47   23  146 1    
    48   23  147 1    
    49   23  148 1    
    50   24   25 am   BACKBONE|DICT|INTERRES
    51   24  149 1    
    52   25   26 2    
    53   25   27 1    
    54   27   28 1    
    55   27   29 1    
    56   27  150 1    
    57   28  151 1    
    58   28  152 1    
    59   28  153 1    
    60   29   30 am   BACKBONE|DICT|INTERRES
    61   29  154 1    
    62   30   31 2    
    63   30   32 1    
    64   32   33 1    
    65   32   34 1    
    66   32  155 1    
    67   33  156 1    
    68   33  157 1    
    69   33  158 1    
    70   34   35 am   BACKBONE|DICT|INTERRES
    71   34  159 1    
    72   35   36 2    
    73   35   37 1    
    74   37   38 1    
    75   37   39 1    
    76   37  160 1    
    77   38  161 1    
    78   38  162 1    
    79   38  163 1    
    80   39   40 am   BACKBONE|DICT|INTERRES
    81   39  164 1    
    82   40   41 2    
    83   40   42 1    
    84   42   43 1    
    85   42   44 1    
    86   42  165 1    
    87   43  166 1    
    88   43  167 1    
    89   43  168 1    
    90   44   45 am   BACKBONE|DICT|INTERRES
    91   44  169 1    
    92   45   46 2    
    93   45   47 1    
    94   47   48 1    
    95   47   49 1    
    96   47  170 1    
    97   48  171 1    
    98   48  172 1    
    99   48  173 1    
   100   49   50 am   BACKBONE|DICT|INTERRES
   101   49  174 1    
   102   50   51 2    
   103   50   52 1    
   104   52   53 1    
   105   52   54 1    
   106   52  175 1    
   107   53  176 1    
   108   53  177 1    
   109   53  178 1    
   110   54   55 am   BACKBONE|DICT|INTERRES
   111   54  179 1    
   112   55   56 2    
   113   55   57 1    
   114   57   58 1    
   115   57   59 1    
   116   57  180 1    
   117   58  181 1    
   118   58  182 1    
   119   58  183 1    
   120   59   60 am   BACKBONE|DICT|INTERRES
   121   59  184 1    
   122   60   61 2    
   123   60   62 1    
   124   62   63 1    
   125   62   64 1    
   126   62  185 1    
   127   63  186 1    
   128   63  187 1    
   129   63  188 1    
   130   64   65 am   BACKBONE|DICT|INTERRES
   131   64  189 1    
   132   65   66 2    
   133   67   68 2    
   134   67   69 am   BACKBONE|DICT|INTERRES
   135   69   70 1    
   136   69  190 1    
   137   70   71 1    
   138   70   72 1    
   139   70  191 1    
   140   71  192 1    
   141   71  193 1    
   142   71  194 1    
   143   72   73 2    
   144   72   74 am   BACKBONE|DICT|INTERRES
   145   74   75 1    
   146   74  195 1    
   147   75   76 1    
   148   75   77 1    
   149   75  196 1    
   150   76  197 1    
   151   76  198 1    
   152   76  199 1    
   153   77   78 2    
   154   77   79 am   BACKBONE|DICT|INTERRES
   155   79   80 1    
   156   79  200 1    
   157   80   81 1    
   158   80   82 1    
   159   80  201 1    
   160   81  202 1    
   161   81  203 1    
   162   81  204 1    
   163   82   83 2    
   164   82   84 am   BACKBONE|DICT|INTERRES
   165   84   85 1    
   166   84  205 1    
   167   85   86 1    
   168   85   87 1    
   169   85  206 1    
   170   86  207 1    
   171   86  208 1    
   172   86  209 1    
   173   87   88 2    
   174   87   89 am   BACKBONE|DICT|INTERRES
   175   89   90 1    
   176   89  210 1    
   177   90   91 1    
   178   90   92 1    
   179   90  211 1    
   180   91  212 1    
   181   91  213 1    
   182   91  214 1    
   183   92   93 2    
   184   92   94 am   BACKBONE|DICT|INTERRES
   185   94   95 1    
   186   94  215 1    
   187   95   96 1    
   188   95   97 1    
   189   95  216 1    
   190   96  217 1    
   191   96  218 1    
   192   96  219 1    
   193   97   98 2    
   194   97   99 am   BACKBONE|DICT|INTERRES
   195   99  100 1    
   196   99  220 1    
   197  100  101 1    
   198  100  102 1    
   199  100  221 1    
   200  101  222 1    
   201  101  223 1    
   202  101  224 1    
   203  102  103 2    
   204  102  104 am   BACKBONE|DICT|INTERRES
   205  104  105 1    
   206  104  225 1    
   207  105  106 1    
   208  105  107 1    
   209  105  226 1    
   210  106  227 1    
   211  106  228 1    
   212  106  229 1    
   213  107  108 2    
   214  107  109 am   BACKBONE|DICT|INTERRES
   215  109  110 1    
   216  109  230 1    
   217  110  111 1    
   218  110  112 1    
   219  110  231 1    
   220  111  232 1    
   221  111  233 1    
   222  111  234 1    
   223  112  113 2    
   224  112  114 am   BACKBONE|DICT|INTERRES
   225  114  115 1    
   226  114  235 1    
   227  115  116 1    
   228  115  117 1    
   229  115  236 1    
   230  116  237 1    
   231  116  238 1    
   232  116  239 1    
   233  117  118 2    
   234  117  119 am   BACKBONE|DICT|INTERRES
   235  119  120 1    
   236  119  240 1    
   237  120  121 1    
   238  120  124 1    
   239  120  241 1    
   240  121  122 am   BACKBONE|DICT|INTERRES
   241  121  123 2    
   242  122  242 1    
   243  122  243 1    
   244  124  125 1    
   245  124  244 1    
   246  124  245 1    
   247  125  126 1    
   248  126  246 1    
   249  126  247 1    
@<TRIPOS>SUBSTRUCTURE
     1 UNK         1 GROUP             0       ****    0 ROOT    
