@<TRIPOS>MOLECULE
3R540
247   249    1
SMALL
USER_CHARGES


@<TRIPOS>ATOM
      1 CA         -3.1860  -14.1970  -52.3908 C.3       0 UNK        -0.1800 
      2 C          -2.0640  -14.0306  -51.3769 C.2       0 UNK         0.5000 
      3 O          -2.2449  -13.3505  -50.3684 O.2       0 UNK        -0.5000 
      4 N          -0.9074  -14.6553  -51.6310 N.am      1 UNK        -0.5000 
      5 CA          0.2511  -14.6697  -50.7279 C.3       1 UNK         0.1400 
      6 C6          1.5287  -15.2087  -51.4249 C.3       23 UNK        -0.0398 
      7 S7          3.0375  -14.2857  -50.9814 S.3       23 UNK        -0.2404 
      8 C8          3.6793  -15.2154  -49.5484 C.3       23 UNK        -0.0205 
      9 C9          3.9671  -16.6858  -49.8323 C.ar      23 UNK        -0.0193 
     10 C10         4.7284  -17.0730  -50.9396 C.ar      23 UNK        -0.1150 
     11 C11         5.0073  -18.4226  -51.1768 C.ar      23 UNK        -0.0193 
     12 C12         4.5399  -19.3903  -50.2816 C.ar      23 UNK        -0.1150 
     13 C13         3.7804  -19.0164  -49.1691 C.ar      23 UNK        -0.0193 
     14 C14         3.4954  -17.6650  -48.9546 C.ar      23 UNK        -0.1150 
     15 C15         3.2981  -20.0573  -48.1699 C.3       23 UNK        -0.0205 
     16 S16         1.4813  -20.1771  -48.1301 S.3       23 UNK        -0.2404 
     17 C17         1.1462  -21.3267  -49.5135 C.3       23 UNK        -0.0398 
     18 CA          0.5226  -22.6739  -49.0665 C.3       11 UNK         0.1400 
     19 N           1.3083  -23.3083  -48.0052 N.am      11 UNK        -0.5000 
     20 C           1.0875  -24.5173  -47.4752 C.2       10 UNK         0.5000 
     21 O           0.2271  -25.2967  -47.8798 O.2       10 UNK        -0.5000 
     22 CA          1.9399  -24.8989  -46.2496 C.3       10 UNK         0.1400 
     23 CB          3.1844  -25.6842  -46.6881 C.3       10 UNK        -0.1800 
     24 N           2.3571  -23.7563  -45.4290 N.am      10 UNK        -0.5000 
     25 C           1.5374  -22.8771  -44.8334 C.2       9 UNK         0.5000 
     26 O           0.3098  -22.9217  -44.9457 O.2       9 UNK        -0.5000 
     27 CA          2.1961  -21.7658  -43.9878 C.3       9 UNK         0.1400 
     28 CB          3.7103  -21.6090  -44.2360 C.3       9 UNK        -0.1800 
     29 N           1.5576  -20.4783  -44.2435 N.am      9 UNK        -0.5000 
     30 C           0.5384  -19.9547  -43.5560 C.2       8 UNK         0.5000 
     31 O           0.0205  -20.4994  -42.5790 O.2       8 UNK        -0.5000 
     32 CA          0.0487  -18.5692  -44.0296 C.3       8 UNK         0.1400 
     33 CB         -1.2335  -18.1168  -43.3083 C.3       8 UNK        -0.1800 
     34 N           1.0677  -17.5311  -43.8616 N.am      8 UNK        -0.5000 
     35 C           2.1509  -17.3578  -44.6317 C.2       7 UNK         0.5000 
     36 O           2.4522  -18.1219  -45.5467 O.2       7 UNK        -0.5000 
     37 CA          3.0535  -16.1412  -44.3522 C.3       7 UNK         0.1400 
     38 CB          3.2348  -15.2949  -45.6239 C.3       7 UNK        -0.1800 
     39 N           2.5138  -15.2807  -43.2991 N.am      7 UNK        -0.5000 
     40 C           3.0974  -15.0382  -42.1178 C.2       6 UNK         0.5000 
     41 O           4.1618  -15.5479  -41.7653 O.2       6 UNK        -0.5000 
     42 CA          2.3905  -14.0515  -41.1640 C.3       6 UNK         0.1400 
     43 CB          3.0847  -12.6810  -41.2035 C.3       6 UNK        -0.1800 
     44 N           0.9683  -13.8637  -41.4551 N.am      6 UNK        -0.5000 
     45 C           0.0165  -14.7814  -41.2423 C.2       5 UNK         0.5000 
     46 O           0.2308  -15.8819  -40.7345 O.2       5 UNK        -0.5000 
     47 CA         -1.4070  -14.4270  -41.7168 C.3       5 UNK         0.1400 
     48 CB         -2.2048  -13.7777  -40.5762 C.3       5 UNK        -0.1800 
     49 N          -1.4690  -13.5589  -42.9003 N.am      5 UNK        -0.5000 
     50 C          -0.9039  -13.8209  -44.0867 C.2       4 UNK         0.5000 
     51 O          -0.1503  -14.7715  -44.2908 O.2       4 UNK        -0.5000 
     52 CA         -1.2434  -12.8752  -45.2483 C.3       4 UNK         0.1400 
     53 CB          0.0296  -12.3122  -45.9004 C.3       4 UNK        -0.1800 
     54 N          -2.0150  -13.6047  -46.2493 N.am      4 UNK        -0.5000 
     55 C          -3.3002  -13.9574  -46.1044 C.2       3 UNK         0.5000 
     56 O          -4.0012  -13.5963  -45.1578 O.2       3 UNK        -0.5000 
     57 CA         -3.9142  -14.8571  -47.1921 C.3       3 UNK         0.1400 
     58 CB         -4.7665  -14.0200  -48.1591 C.3       3 UNK        -0.1800 
     59 N          -2.9101  -15.6048  -47.9497 N.am      3 UNK        -0.5000 
     60 C          -2.2610  -16.6850  -47.4894 C.2       2 UNK         0.5000 
     61 O          -2.4261  -17.1470  -46.3612 O.2       2 UNK        -0.5000 
     62 CA         -1.2675  -17.3787  -48.4431 C.3       2 UNK         0.1400 
     63 CB         -1.8869  -18.6606  -49.0190 C.3       2 UNK        -0.1800 
     64 N          -0.8314  -16.5353  -49.5545 N.am      2 UNK        -0.5000 
     65 C          -0.0534  -15.4501  -49.4313 C.2       1 UNK         0.5000 
     66 O           0.3697  -15.0337  -48.3531 O.2       1 UNK        -0.5000 
     67 C          -0.9648  -22.5142  -48.6796 C.2       11 UNK         0.5000 
     68 O          -1.8418  -22.8493  -49.4760 O.2       11 UNK        -0.5000 
     69 N          -1.2205  -22.0513  -47.4472 N.am      12 UNK        -0.5000 
     70 CA         -2.5606  -21.8800  -46.8921 C.3       12 UNK         0.1400 
     71 CB         -2.5041  -20.9645  -45.6605 C.3       12 UNK        -0.1800 
     72 C          -3.2114  -23.2255  -46.5484 C.2       12 UNK         0.5000 
     73 O          -4.4027  -23.3982  -46.8024 O.2       12 UNK        -0.5000 
     74 N          -2.4137  -24.1630  -46.0179 N.am      13 UNK        -0.5000 
     75 CA         -2.8429  -25.5250  -45.6966 C.3       13 UNK         0.1400 
     76 CB         -1.7250  -26.2524  -44.9351 C.3       13 UNK        -0.1800 
     77 C          -3.2689  -26.3236  -46.9433 C.2       13 UNK         0.5000 
     78 O          -4.2883  -27.0129  -46.9011 O.2       13 UNK        -0.5000 
     79 N          -2.4998  -26.1928  -48.0335 N.am      14 UNK        -0.5000 
     80 CA         -2.7840  -26.8044  -49.3311 C.3       14 UNK         0.1400 
     81 CB         -1.5458  -26.6889  -50.2335 C.3       14 UNK        -0.1800 
     82 C          -4.0137  -26.1885  -50.0210 C.2       14 UNK         0.5000 
     83 O          -4.8228  -26.9253  -50.5862 O.2       14 UNK        -0.5000 
     84 N          -4.1337  -24.8545  -49.9626 N.am      15 UNK        -0.5000 
     85 CA         -5.2435  -24.1039  -50.5514 C.3       15 UNK         0.1400 
     86 CB         -4.8631  -22.6188  -50.6153 C.3       15 UNK        -0.1800 
     87 C          -6.5699  -24.2741  -49.7907 C.2       15 UNK         0.5000 
     88 O          -7.6318  -24.1901  -50.4083 O.2       15 UNK        -0.5000 
     89 N          -6.4863  -24.4560  -48.4648 N.am      16 UNK        -0.5000 
     90 CA         -7.5585  -24.5674  -47.4665 C.3       16 UNK         0.1400 
     91 CB         -8.5082  -25.7410  -47.7712 C.3       16 UNK        -0.1800 
     92 C          -8.3303  -23.2519  -47.2420 C.2       16 UNK         0.5000 
     93 O          -8.5154  -22.8432  -46.0956 O.2       16 UNK        -0.5000 
     94 N          -8.7333  -22.5939  -48.3355 N.am      17 UNK        -0.5000 
     95 CA         -9.3518  -21.2671  -48.3519 C.3       17 UNK         0.1400 
     96 CB        -10.1093  -21.0971  -49.6782 C.3       17 UNK        -0.1800 
     97 C          -8.3289  -20.1264  -48.1723 C.2       17 UNK         0.5000 
     98 O          -8.7304  -19.0037  -47.8664 O.2       17 UNK        -0.5000 
     99 N          -7.0378  -20.4314  -48.3854 N.am      18 UNK        -0.5000 
    100 CA        -5.8776  -19.5352  -48.2894 C.3       18 UNK         0.1400 
    101 CB        -5.6753  -19.0525  -46.8391 C.3       18 UNK        -0.1800 
    102 C         -5.8906  -18.3782  -49.3126 C.2       18 UNK         0.5000 
    103 O         -5.2767  -17.3417  -49.0729 O.2       18 UNK        -0.5000 
    104 N         -6.5679  -18.5791  -50.4503 N.am      19 UNK        -0.5000 
    105 CA        -6.6731  -17.6008  -51.5374 C.3       19 UNK         0.1400 
    106 CB        -8.0148  -17.8230  -52.2547 C.3       19 UNK        -0.1800 
    107 C         -5.5040  -17.6788  -52.5422 C.2       19 UNK         0.5000 
    108 O         -5.3966  -16.8137  -53.4124 O.2       19 UNK        -0.5000 
    109 N         -4.6804  -18.7293  -52.4379 N.am      20 UNK        -0.5000 
    110 CA        -3.5648  -19.0229  -53.3346 C.3       20 UNK         0.1400 
    111 CB        -3.1651  -20.4941  -53.1367 C.3       20 UNK        -0.1800 
    112 C         -2.3428  -18.1137  -53.1097 C.2       20 UNK         0.5000 
    113 O         -2.2322  -17.4419  -52.0810 O.2       20 UNK        -0.5000 
    114 N         -1.4165  -18.1619  -54.0755 N.am      21 UNK        -0.5000 
    115 CA        -0.0612  -17.6309  -53.9637 C.3       21 UNK         0.1400 
    116 CB         0.4899  -17.3488  -55.3751 C.3       21 UNK        -0.1800 
    117 C          0.8024  -18.6008  -53.1308 C.2       21 UNK         0.5000 
    118 O          0.6184  -18.6753  -51.9170 O.2       21 UNK        -0.5000 
    119 N          1.7061  -19.3377  -53.7865 N.am      22 UNK        -0.5000 
    120 CA         2.5670  -20.3493  -53.1497 C.3       22 UNK         0.1400 
    121 C          1.9168  -21.7602  -53.0377 C.2       22 UNK         0.5000 
    122 N          0.7099  -21.9838  -53.5431 N.am      22 UNK        -0.7600 
    123 O          2.5132  -22.6685  -52.4670 O.2       22 UNK        -0.5000 
    124 C124        3.9675  -20.4321  -53.8106 C.3       23 UNK        -0.0398 
    125 S125        4.8290  -18.8240  -53.9155 S.3       23 UNK        -0.2404 
    126 C126        5.8294  -18.8228  -52.3929 C.3       23 UNK        -0.0205 
    127 H127       -4.0460  -14.6720  -51.9184 H         1 UNK         0.0600 
    128 H128       -3.4973  -13.2251  -52.7729 H         1 UNK         0.0600 
    129 H129       -2.8820  -14.8156  -53.2357 H         1 UNK         0.0600 
    130 H130       -0.8453  -15.2360  -52.4530 H         1 UNK         0.3000 
    131 H131        0.4252  -13.6301  -50.4408 H         1 UNK         0.0600 
    132 H132        1.4390  -15.0970  -52.5058 H         1 UNK         0.0800 
    133 H133        1.6729  -16.2775  -51.2592 H         1 UNK         0.0800 
    134 H134        4.6040  -14.7428  -49.2153 H         1 UNK         0.0800 
    135 H135        2.9750  -15.1125  -48.7228 H         1 UNK         0.0800 
    136 H136        5.1007  -16.3227  -51.6230 H         1 UNK         0.1150 
    137 H137        4.7655  -20.4334  -50.4531 H         1 UNK         0.1150 
    138 H138        2.9082  -17.3805  -48.0925 H         1 UNK         0.1150 
    139 H139        3.7343  -21.0360  -48.3744 H         1 UNK         0.0800 
    140 H140        3.6531  -19.7726  -47.1796 H         1 UNK         0.0800 
    141 H141        2.0814  -21.5245  -50.0361 H         1 UNK         0.0800 
    142 H142        0.5089  -20.8258  -50.2439 H         1 UNK         0.0800 
    143 H143        0.5497  -23.3472  -49.9261 H         1 UNK         0.0600 
    144 H144        2.0214  -22.7321  -47.5849 H         1 UNK         0.3000 
    145 H145        1.3333  -25.5487  -45.6173 H         1 UNK         0.0600 
    146 H146        3.7479  -26.0449  -45.8273 H         1 UNK         0.0600 
    147 H147        2.9067  -26.5568  -47.2810 H         1 UNK         0.0600 
    148 H148        3.8526  -25.0731  -47.2962 H         1 UNK         0.0600 
    149 H149        3.3512  -23.6500  -45.2882 H         1 UNK         0.3000 
    150 H150        2.0571  -22.0405  -42.9405 H         1 UNK         0.0600 
    151 H151        4.2592  -22.5059  -43.9466 H         1 UNK         0.0600 
    152 H152        4.1172  -20.7882  -43.6446 H         1 UNK         0.0600 
    153 H153        3.9318  -21.3986  -45.2830 H         1 UNK         0.0600 
    154 H154        1.9372  -19.9195  -45.0027 H         1 UNK         0.3000 
    155 H155       -0.1830  -18.6515  -45.0937 H         1 UNK         0.0600 
    156 H156       -1.0705  -17.9844  -42.2381 H         1 UNK         0.0600 
    157 H157       -2.0327  -18.8480  -43.4346 H         1 UNK         0.0600 
    158 H158       -1.5965  -17.1717  -43.7125 H         1 UNK         0.0600 
    159 H159        0.9011  -16.8609  -43.1254 H         1 UNK         0.3000 
    160 H160        4.0303  -16.5344  -44.0646 H         1 UNK         0.0600 
    161 H161        3.8370  -14.4077  -45.4283 H         1 UNK         0.0600 
    162 H162        2.2754  -14.9689  -46.0284 H         1 UNK         0.0600 
    163 H163        3.7439  -15.8646  -46.4013 H         1 UNK         0.0600 
    164 H164        1.6115  -14.8617  -43.5077 H         1 UNK         0.3000 
    165 H165        2.4827  -14.4520  -40.1522 H         1 UNK         0.0600 
    166 H166        2.6433  -11.9936  -40.4816 H         1 UNK         0.0600 
    167 H167        4.1437  -12.7713  -40.9579 H         1 UNK         0.0600 
    168 H168        3.0148  -12.2234  -42.1912 H         1 UNK         0.0600 
    169 H169        0.7028  -12.9899  -41.8851 H         1 UNK         0.3000 
    170 H170       -1.8992  -15.3647  -41.9812 H         1 UNK         0.0600 
    171 H171       -2.2011  -14.4092  -39.6866 H         1 UNK         0.0600 
    172 H172       -1.7878  -12.8102  -40.2939 H         1 UNK         0.0600 
    173 H173       -3.2466  -13.6257  -40.8593 H         1 UNK         0.0600 
    174 H174       -2.0839  -12.7608  -42.8288 H         1 UNK         0.3000 
    175 H175       -1.8373  -12.0375  -44.8769 H         1 UNK         0.0600 
    176 H176        0.6523  -13.1022  -46.3221 H         1 UNK         0.0600 
    177 H177       -0.2146  -11.6176  -46.7042 H         1 UNK         0.0600 
    178 H178        0.6346  -11.7703  -45.1726 H         1 UNK         0.0600 
    179 H179       -1.4943  -13.9946  -47.0237 H         1 UNK         0.3000 
    180 H180       -4.5719  -15.5763  -46.6991 H         1 UNK         0.0600 
    181 H181       -4.1877  -13.2181  -48.6170 H         1 UNK         0.0600 
    182 H182       -5.6033  -13.5571  -47.6349 H         1 UNK         0.0600 
    183 H183       -5.1835  -14.6328  -48.9582 H         1 UNK         0.0600 
    184 H184       -2.7152  -15.2836  -48.8874 H         1 UNK         0.3000 
    185 H185       -0.3862  -17.6524  -47.8588 H         1 UNK         0.0600 
    186 H186       -2.1828  -19.3394  -48.2224 H         1 UNK         0.0600 
    187 H187       -2.7743  -18.4450  -49.6140 H         1 UNK         0.0600 
    188 H188       -1.1797  -19.1902  -49.6566 H         1 UNK         0.0600 
    189 H189       -1.1701  -16.8039  -50.4745 H         1 UNK         0.3000 
    190 H190       -0.4448  -21.8712  -46.8236 H         1 UNK         0.3000 
    191 H191       -3.1849  -21.3977  -47.6454 H         1 UNK         0.0600 
    192 H192       -1.8937  -21.3919  -44.8649 H         1 UNK         0.0600 
    193 H193       -3.5012  -20.7996  -45.2514 H         1 UNK         0.0600 
    194 H194       -2.0930  -19.9873  -45.9114 H         1 UNK         0.0600 
    195 H195       -1.4500  -23.9203  -45.8207 H         1 UNK         0.3000 
    196 H196       -3.7093  -25.4499  -45.0361 H         1 UNK         0.0600 
    197 H197       -1.4099  -25.6883  -44.0569 H         1 UNK         0.0600 
    198 H198       -0.8502  -26.4149  -45.5636 H         1 UNK         0.0600 
    199 H199       -2.0640  -27.2302  -44.5911 H         1 UNK         0.0600 
    200 H200       -1.6371  -25.6590  -47.9656 H         1 UNK         0.3000 
    201 H201       -2.9879  -27.8649  -49.1688 H         1 UNK         0.0600 
    202 H202       -1.2630  -25.6480  -50.3974 H         1 UNK         0.0600 
    203 H203       -1.7285  -27.1393  -51.2099 H         1 UNK         0.0600 
    204 H204       -0.6900  -27.2014  -49.7939 H         1 UNK         0.0600 
    205 H205       -3.3963  -24.3117  -49.5271 H         1 UNK         0.3000 
    206 H206       -5.3976  -24.4606  -51.5719 H         1 UNK         0.0600 
    207 H207       -5.6551  -22.0232  -51.0709 H         1 UNK         0.0600 
    208 H208       -4.6645  -22.2155  -49.6227 H         1 UNK         0.0600 
    209 H209       -3.9634  -22.4820  -51.2127 H         1 UNK         0.0600 
    210 H210       -5.5586  -24.4048  -48.0542 H         1 UNK         0.3000 
    211 H211       -7.0520  -24.7960  -46.5272 H         1 UNK         0.0600 
    212 H212       -9.0841  -25.5795  -48.6825 H         1 UNK         0.0600 
    213 H213       -9.2215  -25.8819  -46.9583 H         1 UNK         0.0600 
    214 H214       -7.9551  -26.6736  -47.8842 H         1 UNK         0.0600 
    215 H215       -8.5465  -23.0311  -49.2345 H         1 UNK         0.3000 
    216 H216      -10.0705  -21.2011  -47.5324 H         1 UNK         0.0600 
    217 H217      -10.6052  -20.1266  -49.7256 H         1 UNK         0.0600 
    218 H218      -10.8798  -21.8600  -49.7917 H         1 UNK         0.0600 
    219 H219       -9.4399  -21.1668  -50.5367 H         1 UNK         0.0600 
    220 H220       -6.8322  -21.3927  -48.6122 H         1 UNK         0.3000 
    221 H221       -5.0082  -20.1383  -48.5483 H         1 UNK         0.0600 
    222 H222       -6.4537  -18.3536  -46.5322 H         1 UNK         0.0600 
    223 H223       -5.6804  -19.8892  -46.1407 H         1 UNK         0.0600 
    224 H224       -4.7181  -18.5436  -46.7264 H         1 UNK         0.0600 
    225 H225       -7.0629  -19.4496  -50.5727 H         1 UNK         0.3000 
    226 H226       -6.6763  -16.5919  -51.1190 H         1 UNK         0.0600 
    227 H227       -8.8520  -17.7245  -51.5632 H         1 UNK         0.0600 
    228 H228       -8.1624  -17.0885  -53.0475 H         1 UNK         0.0600 
    229 H229       -8.0695  -18.8128  -52.7097 H         1 UNK         0.0600 
    230 H230       -4.8200  -19.3646  -51.6692 H         1 UNK         0.3000 
    231 H231       -3.9078  -18.8880  -54.3626 H         1 UNK         0.0600 
    232 H232       -4.0170  -21.1583  -53.2829 H         1 UNK         0.0600 
    233 H233       -2.7636  -20.6668  -52.1369 H         1 UNK         0.0600 
    234 H234       -2.3990  -20.7981  -53.8506 H         1 UNK         0.0600 
    235 H235       -1.5983  -18.7371  -54.8850 H         1 UNK         0.3000 
    236 H236       -0.0934  -16.6838  -53.4270 H         1 UNK         0.0600 
    237 H237        1.5129  -16.9719  -55.3303 H         1 UNK         0.0600 
    238 H238        0.4858  -18.2380  -56.0066 H         1 UNK         0.0600 
    239 H239       -0.1077  -16.5883  -55.8781 H         1 UNK         0.0600 
    240 H240        1.8134  -19.2208  -54.7832 H         1 UNK         0.3000 
    241 H241        2.7255  -20.0412  -52.1173 H         1 UNK         0.0600 
    242 H242        0.3036  -22.9023  -53.4648 H         1 UNK         0.3800 
    243 H243        0.2102  -21.2517  -54.0183 H         1 UNK         0.3800 
    244 H244        4.6048  -21.1370  -53.2741 H         1 UNK         0.0800 
    245 H245        3.8772  -20.8246  -54.8247 H         1 UNK         0.0800 
    246 H246        6.2952  -19.7984  -52.2467 H         1 UNK         0.0800 
    247 H247        6.6500  -18.1146  -52.5171 H         1 UNK         0.0800 
@<TRIPOS>BOND
     1    1    2 1    
     2    1  127 1    
     3    1  128 1    
     4    1  129 1    
     5    2    3 2    
     6    2    4 am   BACKBONE|DICT|INTERRES
     7    4    5 1    
     8    4  130 1    
     9    5    6 1    
    10    5   65 1    
    11    5  131 1    
    12    6    7 1    
    13    6  132 1    
    14    6  133 1    
    15    7    8 1    
    16    8    9 1    
    17    8  134 1    
    18    8  135 1    
    19    9   10 ar   
    20    9   14 ar   
    21   10   11 ar   
    22   10  136 1    
    23   11   12 ar   
    24   11  126 1    
    25   12   13 ar   
    26   12  137 1    
    27   13   14 ar   
    28   13   15 1    
    29   14  138 1    
    30   15   16 1    
    31   15  139 1    
    32   15  140 1    
    33   16   17 1    
    34   17   18 1    
    35   17  141 1    
    36   17  142 1    
    37   18   19 1    
    38   18   67 1    
    39   18  143 1    
    40   19   20 am   BACKBONE|DICT|INTERRES
    41   19  144 1    
    42   20   21 2    
    43   20   22 1    
    44   22   23 1    
    45   22   24 1    
    46   22  145 1    
    47   23  146 1    
    48   23  147 1    
    49   23  148 1    
    50   24   25 am   BACKBONE|DICT|INTERRES
    51   24  149 1    
    52   25   26 2    
    53   25   27 1    
    54   27   28 1    
    55   27   29 1    
    56   27  150 1    
    57   28  151 1    
    58   28  152 1    
    59   28  153 1    
    60   29   30 am   BACKBONE|DICT|INTERRES
    61   29  154 1    
    62   30   31 2    
    63   30   32 1    
    64   32   33 1    
    65   32   34 1    
    66   32  155 1    
    67   33  156 1    
    68   33  157 1    
    69   33  158 1    
    70   34   35 am   BACKBONE|DICT|INTERRES
    71   34  159 1    
    72   35   36 2    
    73   35   37 1    
    74   37   38 1    
    75   37   39 1    
    76   37  160 1    
    77   38  161 1    
    78   38  162 1    
    79   38  163 1    
    80   39   40 am   BACKBONE|DICT|INTERRES
    81   39  164 1    
    82   40   41 2    
    83   40   42 1    
    84   42   43 1    
    85   42   44 1    
    86   42  165 1    
    87   43  166 1    
    88   43  167 1    
    89   43  168 1    
    90   44   45 am   BACKBONE|DICT|INTERRES
    91   44  169 1    
    92   45   46 2    
    93   45   47 1    
    94   47   48 1    
    95   47   49 1    
    96   47  170 1    
    97   48  171 1    
    98   48  172 1    
    99   48  173 1    
   100   49   50 am   BACKBONE|DICT|INTERRES
   101   49  174 1    
   102   50   51 2    
   103   50   52 1    
   104   52   53 1    
   105   52   54 1    
   106   52  175 1    
   107   53  176 1    
   108   53  177 1    
   109   53  178 1    
   110   54   55 am   BACKBONE|DICT|INTERRES
   111   54  179 1    
   112   55   56 2    
   113   55   57 1    
   114   57   58 1    
   115   57   59 1    
   116   57  180 1    
   117   58  181 1    
   118   58  182 1    
   119   58  183 1    
   120   59   60 am   BACKBONE|DICT|INTERRES
   121   59  184 1    
   122   60   61 2    
   123   60   62 1    
   124   62   63 1    
   125   62   64 1    
   126   62  185 1    
   127   63  186 1    
   128   63  187 1    
   129   63  188 1    
   130   64   65 am   BACKBONE|DICT|INTERRES
   131   64  189 1    
   132   65   66 2    
   133   67   68 2    
   134   67   69 am   BACKBONE|DICT|INTERRES
   135   69   70 1    
   136   69  190 1    
   137   70   71 1    
   138   70   72 1    
   139   70  191 1    
   140   71  192 1    
   141   71  193 1    
   142   71  194 1    
   143   72   73 2    
   144   72   74 am   BACKBONE|DICT|INTERRES
   145   74   75 1    
   146   74  195 1    
   147   75   76 1    
   148   75   77 1    
   149   75  196 1    
   150   76  197 1    
   151   76  198 1    
   152   76  199 1    
   153   77   78 2    
   154   77   79 am   BACKBONE|DICT|INTERRES
   155   79   80 1    
   156   79  200 1    
   157   80   81 1    
   158   80   82 1    
   159   80  201 1    
   160   81  202 1    
   161   81  203 1    
   162   81  204 1    
   163   82   83 2    
   164   82   84 am   BACKBONE|DICT|INTERRES
   165   84   85 1    
   166   84  205 1    
   167   85   86 1    
   168   85   87 1    
   169   85  206 1    
   170   86  207 1    
   171   86  208 1    
   172   86  209 1    
   173   87   88 2    
   174   87   89 am   BACKBONE|DICT|INTERRES
   175   89   90 1    
   176   89  210 1    
   177   90   91 1    
   178   90   92 1    
   179   90  211 1    
   180   91  212 1    
   181   91  213 1    
   182   91  214 1    
   183   92   93 2    
   184   92   94 am   BACKBONE|DICT|INTERRES
   185   94   95 1    
   186   94  215 1    
   187   95   96 1    
   188   95   97 1    
   189   95  216 1    
   190   96  217 1    
   191   96  218 1    
   192   96  219 1    
   193   97   98 2    
   194   97   99 am   BACKBONE|DICT|INTERRES
   195   99  100 1    
   196   99  220 1    
   197  100  101 1    
   198  100  102 1    
   199  100  221 1    
   200  101  222 1    
   201  101  223 1    
   202  101  224 1    
   203  102  103 2    
   204  102  104 am   BACKBONE|DICT|INTERRES
   205  104  105 1    
   206  104  225 1    
   207  105  106 1    
   208  105  107 1    
   209  105  226 1    
   210  106  227 1    
   211  106  228 1    
   212  106  229 1    
   213  107  108 2    
   214  107  109 am   BACKBONE|DICT|INTERRES
   215  109  110 1    
   216  109  230 1    
   217  110  111 1    
   218  110  112 1    
   219  110  231 1    
   220  111  232 1    
   221  111  233 1    
   222  111  234 1    
   223  112  113 2    
   224  112  114 am   BACKBONE|DICT|INTERRES
   225  114  115 1    
   226  114  235 1    
   227  115  116 1    
   228  115  117 1    
   229  115  236 1    
   230  116  237 1    
   231  116  238 1    
   232  116  239 1    
   233  117  118 2    
   234  117  119 am   BACKBONE|DICT|INTERRES
   235  119  120 1    
   236  119  240 1    
   237  120  121 1    
   238  120  124 1    
   239  120  241 1    
   240  121  122 am   BACKBONE|DICT|INTERRES
   241  121  123 2    
   242  122  242 1    
   243  122  243 1    
   244  124  125 1    
   245  124  244 1    
   246  124  245 1    
   247  125  126 1    
   248  126  246 1    
   249  126  247 1    
@<TRIPOS>SUBSTRUCTURE
     1 UNK         1 GROUP             0       ****    0 ROOT    
