@<TRIPOS>MOLECULE
3R540
247   249    1
SMALL
USER_CHARGES


@<TRIPOS>ATOM
      1 CA         -3.3599  -13.6552  -44.6619 C.3       0 UNK        -0.1800 
      2 C          -2.0047  -13.4082  -45.3098 C.2       0 UNK         0.5000 
      3 O          -1.0808  -12.9637  -44.6306 O.2       0 UNK        -0.5000 
      4 N          -1.8891  -13.7020  -46.6131 N.am      1 UNK        -0.5000 
      5 CA         -0.6866  -13.5542  -47.4437 C.3       1 UNK         0.1400 
      6 C6          0.4289  -14.5819  -47.0962 C.3       23 UNK        -0.0398 
      7 S7         -0.0346  -16.2879  -47.5400 S.3       23 UNK        -0.2404 
      8 C8          0.6075  -16.3681  -49.2406 C.3       23 UNK        -0.0205 
      9 C9          0.5857  -17.7879  -49.7806 C.ar      23 UNK        -0.0193 
     10 C10        -0.5491  -18.2841  -50.4286 C.ar      23 UNK        -0.1150 
     11 C11        -0.5662  -19.5874  -50.9353 C.ar      23 UNK        -0.0193 
     12 C12         0.5713  -20.3912  -50.7916 C.ar      23 UNK        -0.1150 
     13 C13         1.7192  -19.8984  -50.1648 C.ar      23 UNK        -0.0193 
     14 C14         1.7153  -18.5992  -49.6515 C.ar      23 UNK        -0.1150 
     15 C15         2.9788  -20.7497  -50.0764 C.3       23 UNK        -0.0205 
     16 S16         2.7602  -22.2497  -49.0705 S.3       23 UNK        -0.2404 
     17 C17         2.4412  -21.5498  -47.4148 C.3       23 UNK        -0.0398 
     18 CA          1.5317  -22.4683  -46.5642 C.3       11 UNK         0.1400 
     19 N           1.5833  -22.1147  -45.1468 N.am      11 UNK        -0.5000 
     20 C           1.7169  -23.0084  -44.1576 C.2       10 UNK         0.5000 
     21 O           1.6466  -24.2275  -44.3182 O.2       10 UNK        -0.5000 
     22 CA          2.0302  -22.4528  -42.7578 C.3       10 UNK         0.1400 
     23 CB          3.4294  -21.8165  -42.7227 C.3       10 UNK        -0.1800 
     24 N           1.0395  -21.4814  -42.3079 N.am      10 UNK        -0.5000 
     25 C          -0.1848  -21.8005  -41.8681 C.2       9 UNK         0.5000 
     26 O          -0.5907  -22.9567  -41.7494 O.2       9 UNK        -0.5000 
     27 CA         -1.1191  -20.6296  -41.5069 C.3       9 UNK         0.1400 
     28 CB         -0.8838  -20.1735  -40.0593 C.3       9 UNK        -0.1800 
     29 N          -0.9721  -19.4841  -42.4050 N.am      9 UNK        -0.5000 
     30 C          -1.2412  -19.5120  -43.7165 C.2       8 UNK         0.5000 
     31 O          -1.6792  -20.5006  -44.3013 O.2       8 UNK        -0.5000 
     32 CA         -0.9211  -18.2406  -44.5180 C.3       8 UNK         0.1400 
     33 CB         -2.0368  -17.1956  -44.3791 C.3       8 UNK        -0.1800 
     34 N           0.3641  -17.6614  -44.1360 N.am      8 UNK        -0.5000 
     35 C           1.5489  -18.2208  -44.4173 C.2       7 UNK         0.5000 
     36 O           1.6785  -19.2663  -45.0559 O.2       7 UNK        -0.5000 
     37 CA          2.7927  -17.5209  -43.8435 C.3       7 UNK         0.1400 
     38 CB          3.2602  -16.3918  -44.7740 C.3       7 UNK        -0.1800 
     39 N           2.5536  -16.9920  -42.4989 N.am      7 UNK        -0.5000 
     40 C           2.3696  -17.7648  -41.4162 C.2       6 UNK         0.5000 
     41 O           2.4261  -18.9934  -41.4421 O.2       6 UNK        -0.5000 
     42 CA          2.0129  -17.0608  -40.0924 C.3       6 UNK         0.1400 
     43 CB          3.2874  -16.6476  -39.3418 C.3       6 UNK        -0.1800 
     44 N           1.1637  -15.8855  -40.2778 N.am      6 UNK        -0.5000 
     45 C          -0.0515  -15.8884  -40.8438 C.2       5 UNK         0.5000 
     46 O          -0.6403  -16.9149  -41.1794 O.2       5 UNK        -0.5000 
     47 CA         -0.6973  -14.5177  -41.1311 C.3       5 UNK         0.1400 
     48 CB         -1.8097  -14.2214  -40.1150 C.3       5 UNK        -0.1800 
     49 N           0.2559  -13.4021  -41.1416 N.am      5 UNK        -0.5000 
     50 C           1.2677  -13.2655  -42.0100 C.2       4 UNK         0.5000 
     51 O           1.5086  -14.0860  -42.8988 O.2       4 UNK        -0.5000 
     52 CA          2.1634  -12.0286  -41.7939 C.3       4 UNK         0.1400 
     53 CB          3.0130  -12.1708  -40.5137 C.3       4 UNK        -0.1800 
     54 N           3.0009  -11.7016  -42.9518 N.am      4 UNK        -0.5000 
     55 C           4.0229  -12.3879  -43.4823 C.2       3 UNK         0.5000 
     56 O           4.5050  -13.4076  -42.9856 O.2       3 UNK        -0.5000 
     57 CA          4.5881  -11.8296  -44.8098 C.3       3 UNK         0.1400 
     58 CB          5.6327  -12.7644  -45.4472 C.3       3 UNK        -0.1800 
     59 N           3.5377  -11.5637  -45.7998 N.am      3 UNK        -0.5000 
     60 C           2.7099  -10.5074  -45.8063 C.2       2 UNK         0.5000 
     61 O           2.7467   -9.6086  -44.9655 O.2       2 UNK        -0.5000 
     62 CA          1.6200  -10.4942  -46.8849 C.3       2 UNK         0.1400 
     63 CB          2.1898  -10.0716  -48.2514 C.3       2 UNK        -0.1800 
     64 N           1.0002  -11.8148  -46.9615 N.am      2 UNK        -0.5000 
     65 C          -0.2063  -12.0829  -47.4739 C.2       1 UNK         0.5000 
     66 O          -0.9400  -11.2259  -47.9711 O.2       1 UNK        -0.5000 
     67 C           0.0855  -22.5099  -47.0846 C.2       11 UNK         0.5000 
     68 O          -0.3649  -23.5742  -47.5082 O.2       11 UNK        -0.5000 
     69 N          -0.6194  -21.3690  -47.0634 N.am      12 UNK        -0.5000 
     70 CA         -1.9246  -21.1991  -47.7178 C.3       12 UNK         0.1400 
     71 CB         -2.3740  -19.7331  -47.6346 C.3       12 UNK        -0.1800 
     72 C          -3.0309  -22.1328  -47.1917 C.2       12 UNK         0.5000 
     73 O          -3.8941  -22.5452  -47.9633 O.2       12 UNK        -0.5000 
     74 N          -2.9683  -22.4753  -45.9005 N.am      13 UNK        -0.5000 
     75 CA         -3.8538  -23.4376  -45.2472 C.3       13 UNK         0.1400 
     76 CB         -3.6549  -23.3343  -43.7277 C.3       13 UNK        -0.1800 
     77 C          -3.6465  -24.8927  -45.7194 C.2       13 UNK         0.5000 
     78 O          -4.5732  -25.6955  -45.6004 O.2       13 UNK        -0.5000 
     79 N          -2.4482  -25.2132  -46.2265 N.am      14 UNK        -0.5000 
     80 CA         -2.0730  -26.5428  -46.7075 C.3       14 UNK         0.1400 
     81 CB         -0.6518  -26.8639  -46.2176 C.3       14 UNK        -0.1800 
     82 C          -2.1468  -26.6492  -48.2412 C.2       14 UNK         0.5000 
     83 O          -2.4709  -27.7218  -48.7531 O.2       14 UNK        -0.5000 
     84 N          -1.8253  -25.5555  -48.9459 N.am      15 UNK        -0.5000 
     85 CA         -1.7859  -25.4609  -50.4047 C.3       15 UNK         0.1400 
     86 CB         -1.2361  -24.0806  -50.8010 C.3       15 UNK        -0.1800 
     87 C          -3.1611  -25.6978  -51.0568 C.2       15 UNK         0.5000 
     88 O          -4.1326  -25.0306  -50.6998 O.2       15 UNK        -0.5000 
     89 N          -3.2130  -26.6141  -52.0326 N.am      16 UNK        -0.5000 
     90 CA         -4.4219  -26.9340  -52.7998 C.3       16 UNK         0.1400 
     91 CB         -4.2059  -28.2569  -53.5501 C.3       16 UNK        -0.1800 
     92 C          -4.8239  -25.8165  -53.7824 C.2       16 UNK         0.5000 
     93 O          -6.0075  -25.6640  -54.0859 O.2       16 UNK        -0.5000 
     94 N          -3.8342  -25.0380  -54.2418 N.am      17 UNK        -0.5000 
     95 CA         -4.0016  -23.9074  -55.1573 C.3       17 UNK         0.1400 
     96 CB         -2.6473  -23.5954  -55.8119 C.3       17 UNK        -0.1800 
     97 C          -4.5994  -22.6498  -54.4935 C.2       17 UNK         0.5000 
     98 O          -4.8930  -21.6819  -55.1977 O.2       17 UNK        -0.5000 
     99 N          -4.7974  -22.6730  -53.1662 N.am      18 UNK        -0.5000 
    100 CA        -5.3762  -21.5852  -52.3722 C.3       18 UNK         0.1400 
    101 CB        -5.3065  -21.9529  -50.8864 C.3       18 UNK        -0.1800 
    102 C         -6.8178  -21.2113  -52.7698 C.2       18 UNK         0.5000 
    103 O         -7.2316  -20.0779  -52.5278 O.2       18 UNK        -0.5000 
    104 N         -7.5314  -22.1300  -53.4376 N.am      19 UNK        -0.5000 
    105 CA        -8.8256  -21.8888  -54.0835 C.3       19 UNK         0.1400 
    106 CB        -9.3709  -23.2240  -54.6121 C.3       19 UNK        -0.1800 
    107 C         -8.7626  -20.8433  -55.2203 C.2       19 UNK         0.5000 
    108 O         -9.7709  -20.1950  -55.5012 O.2       19 UNK        -0.5000 
    109 N         -7.5787  -20.6797  -55.8259 N.am      20 UNK        -0.5000 
    110 CA        -7.2476  -19.6526  -56.8142 C.3       20 UNK         0.1400 
    111 CB        -6.6848  -20.3484  -58.0664 C.3       20 UNK        -0.1800 
    112 C         -6.2434  -18.6342  -56.2311 C.2       20 UNK         0.5000 
    113 O         -5.5368  -17.9686  -56.9914 O.2       20 UNK        -0.5000 
    114 N         -6.1587  -18.5608  -54.8915 N.am      21 UNK        -0.5000 
    115 CA        -5.2534  -17.7292  -54.0868 C.3       21 UNK         0.1400 
    116 CB        -5.6323  -16.2404  -54.2253 C.3       21 UNK        -0.1800 
    117 C         -3.7532  -17.9833  -54.3580 C.2       21 UNK         0.5000 
    118 O         -2.9292  -17.1098  -54.0832 O.2       21 UNK        -0.5000 
    119 N         -3.4282  -19.1639  -54.9039 N.am      22 UNK        -0.5000 
    120 CA        -2.1049  -19.5505  -55.4194 C.3       22 UNK         0.1400 
    121 C         -1.6135  -18.6924  -56.6276 C.2       22 UNK         0.5000 
    122 N         -2.4945  -18.0201  -57.3618 N.am      22 UNK        -0.7600 
    123 O         -0.4240  -18.6575  -56.9316 O.2       22 UNK        -0.5000 
    124 C124       -1.0389  -19.7226  -54.3015 C.3       23 UNK        -0.0398 
    125 S125       -1.4947  -21.0521  -53.1372 S.3       23 UNK        -0.2404 
    126 C126       -1.8268  -20.1204  -51.6085 C.3       23 UNK        -0.0205 
    127 H127       -3.2483  -14.3084  -43.7964 H         1 UNK         0.0600 
    128 H128       -4.0607  -14.1246  -45.3526 H         1 UNK         0.0600 
    129 H129       -3.7913  -12.7127  -44.3248 H         1 UNK         0.0600 
    130 H130       -2.7020  -14.0423  -47.1063 H         1 UNK         0.3000 
    131 H131       -1.0066  -13.7594  -48.4664 H         1 UNK         0.0600 
    132 H132        1.3610  -14.3499  -47.6134 H         1 UNK         0.0800 
    133 H133        0.6571  -14.5585  -46.0295 H         1 UNK         0.0800 
    134 H134        0.0155  -15.7148  -49.8833 H         1 UNK         0.0800 
    135 H135        1.6286  -15.9849  -49.2688 H         1 UNK         0.0800 
    136 H136       -1.4227  -17.6553  -50.5282 H         1 UNK         0.1150 
    137 H137        0.5706  -21.4010  -51.1770 H         1 UNK         0.1150 
    138 H138        2.5973  -18.2116  -49.1611 H         1 UNK         0.1150 
    139 H139        3.2724  -21.0451  -51.0845 H         1 UNK         0.0800 
    140 H140        3.8127  -20.1726  -49.6735 H         1 UNK         0.0800 
    141 H141        2.0232  -20.5455  -47.4927 H         1 UNK         0.0800 
    142 H142        3.4084  -21.4307  -46.9244 H         1 UNK         0.0800 
    143 H143        1.9284  -23.4799  -46.6799 H         1 UNK         0.0600 
    144 H144        1.6211  -21.1199  -44.9366 H         1 UNK         0.3000 
    145 H145        2.0328  -23.2924  -42.0591 H         1 UNK         0.0600 
    146 H146        3.6994  -21.5198  -41.7091 H         1 UNK         0.0600 
    147 H147        3.4887  -20.9299  -43.3551 H         1 UNK         0.0600 
    148 H148        4.1884  -22.5195  -43.0682 H         1 UNK         0.0600 
    149 H149        1.3232  -20.5079  -42.3047 H         1 UNK         0.3000 
    150 H150       -2.1474  -20.9876  -41.5903 H         1 UNK         0.0600 
    151 H151       -1.0345  -20.9976  -39.3610 H         1 UNK         0.0600 
    152 H152       -1.5737  -19.3773  -39.7789 H         1 UNK         0.0600 
    153 H153        0.1313  -19.8027  -39.9161 H         1 UNK         0.0600 
    154 H154       -0.6702  -18.6075  -41.9870 H         1 UNK         0.3000 
    155 H155       -0.8526  -18.5194  -45.5696 H         1 UNK         0.0600 
    156 H156       -2.9973  -17.6087  -44.6893 H         1 UNK         0.0600 
    157 H157       -1.8379  -16.3318  -45.0111 H         1 UNK         0.0600 
    158 H158       -2.1467  -16.8449  -43.3533 H         1 UNK         0.0600 
    159 H159        0.3438  -16.8221  -43.5757 H         1 UNK         0.3000 
    160 H160        3.5926  -18.2619  -43.7823 H         1 UNK         0.0600 
    161 H161        2.5099  -15.6069  -44.8652 H         1 UNK         0.0600 
    162 H162        3.4619  -16.7700  -45.7771 H         1 UNK         0.0600 
    163 H163        4.1783  -15.9331  -44.4064 H         1 UNK         0.0600 
    164 H164        2.4469  -15.9867  -42.4201 H         1 UNK         0.3000 
    165 H165        1.4647  -17.7732  -39.4731 H         1 UNK         0.0600 
    166 H166        3.0510  -16.2212  -38.3668 H         1 UNK         0.0600 
    167 H167        3.9354  -17.5083  -39.1706 H         1 UNK         0.0600 
    168 H168        3.8629  -15.9091  -39.9018 H         1 UNK         0.0600 
    169 H169        1.5669  -14.9940  -40.0332 H         1 UNK         0.3000 
    170 H170       -1.1480  -14.5776  -42.1240 H         1 UNK         0.0600 
    171 H171       -1.4150  -14.1248  -39.1028 H         1 UNK         0.0600 
    172 H172       -2.3344  -13.2984  -40.3625 H         1 UNK         0.0600 
    173 H173       -2.5516  -15.0212  -40.1036 H         1 UNK         0.0600 
    174 H174        0.1195  -12.6939  -40.4347 H         1 UNK         0.3000 
    175 H175        1.4988  -11.1731  -41.6643 H         1 UNK         0.0600 
    176 H176        3.6323  -13.0681  -40.5308 H         1 UNK         0.0600 
    177 H177        3.6711  -11.3123  -40.3801 H         1 UNK         0.0600 
    178 H178        2.3816  -12.2320  -39.6268 H         1 UNK         0.0600 
    179 H179        2.7099  -10.8789  -43.4704 H         1 UNK         0.3000 
    180 H180        5.0886  -10.8888  -44.5712 H         1 UNK         0.0600 
    181 H181        6.0462  -12.3316  -46.3584 H         1 UNK         0.0600 
    182 H182        5.2030  -13.7345  -45.7003 H         1 UNK         0.0600 
    183 H183        6.4676  -12.9412  -44.7680 H         1 UNK         0.0600 
    184 H184        3.4611  -12.2419  -46.5425 H         1 UNK         0.3000 
    185 H185        0.8638   -9.7681  -46.5785 H         1 UNK         0.0600 
    186 H186        1.4009   -9.9732  -48.9971 H         1 UNK         0.0600 
    187 H187        2.6907   -9.1051  -48.1827 H         1 UNK         0.0600 
    188 H188        2.9159  -10.7932  -48.6272 H         1 UNK         0.0600 
    189 H189        1.4858  -12.5495  -46.4684 H         1 UNK         0.3000 
    190 H190       -0.2063  -20.5466  -46.6490 H         1 UNK         0.3000 
    191 H191       -1.7714  -21.4435  -48.7693 H         1 UNK         0.0600 
    192 H192       -1.5719  -19.0506  -47.9126 H         1 UNK         0.0600 
    193 H193       -2.7116  -19.4704  -46.6325 H         1 UNK         0.0600 
    194 H194       -3.2076  -19.5487  -48.3131 H         1 UNK         0.0600 
    195 H195       -2.2817  -22.0050  -45.3157 H         1 UNK         0.3000 
    196 H196       -4.8842  -23.1595  -45.4776 H         1 UNK         0.0600 
    197 H197       -3.8512  -22.3231  -43.3703 H         1 UNK         0.0600 
    198 H198       -2.6365  -23.5984  -43.4413 H         1 UNK         0.0600 
    199 H199       -4.3310  -24.0053  -43.1965 H         1 UNK         0.0600 
    200 H200       -1.7558  -24.4822  -46.3461 H         1 UNK         0.3000 
    201 H201       -2.7451  -27.2963  -46.2916 H         1 UNK         0.0600 
    202 H202       -0.5975  -26.8456  -45.1289 H         1 UNK         0.0600 
    203 H203        0.0795  -26.1500  -46.5986 H         1 UNK         0.0600 
    204 H204       -0.3414  -27.8578  -46.5425 H         1 UNK         0.0600 
    205 H205       -1.5137  -24.7333  -48.4376 H         1 UNK         0.3000 
    206 H206       -1.0883  -26.2205  -50.7630 H         1 UNK         0.0600 
    207 H207       -1.8795  -23.2763  -50.4425 H         1 UNK         0.0600 
    208 H208       -0.2390  -23.9169  -50.3912 H         1 UNK         0.0600 
    209 H209       -1.1625  -23.9826  -51.8847 H         1 UNK         0.0600 
    210 H210       -2.3799  -27.1356  -52.2652 H         1 UNK         0.3000 
    211 H211       -5.2484  -27.0705  -52.0990 H         1 UNK         0.0600 
    212 H212       -3.3796  -28.1890  -54.2588 H         1 UNK         0.0600 
    213 H213       -5.0981  -28.5371  -54.1120 H         1 UNK         0.0600 
    214 H214       -3.9902  -29.0718  -52.8587 H         1 UNK         0.0600 
    215 H215       -2.8931  -25.2322  -53.9333 H         1 UNK         0.3000 
    216 H216       -4.6942  -24.2057  -55.9470 H         1 UNK         0.0600 
    217 H217       -2.7406  -22.7912  -56.5424 H         1 UNK         0.0600 
    218 H218       -2.2574  -24.4646  -56.3418 H         1 UNK         0.0600 
    219 H219       -1.9030  -23.2911  -55.0760 H         1 UNK         0.0600 
    220 H220       -4.5377  -23.5062  -52.6565 H         1 UNK         0.3000 
    221 H221       -4.7566  -20.7009  -52.5328 H         1 UNK         0.0600 
    222 H222       -5.9197  -22.8253  -50.6578 H         1 UNK         0.0600 
    223 H223       -4.2838  -22.1799  -50.5872 H         1 UNK         0.0600 
    224 H224       -5.6538  -21.1312  -50.2589 H         1 UNK         0.0600 
    225 H225       -7.1151  -23.0385  -53.5873 H         1 UNK         0.3000 
    226 H226       -9.5141  -21.5098  -53.3254 H         1 UNK         0.0600 
    227 H227       -9.4954  -23.9466  -53.8054 H         1 UNK         0.0600 
    228 H228      -10.3467  -23.0903  -55.0811 H         1 UNK         0.0600 
    229 H229       -8.7053  -23.6634  -55.3563 H         1 UNK         0.0600 
    230 H230       -6.7906  -21.2420  -55.5192 H         1 UNK         0.3000 
    231 H231       -8.1392  -19.0930  -57.1025 H         1 UNK         0.0600 
    232 H232       -6.4802  -19.6289  -58.8600 H         1 UNK         0.0600 
    233 H233       -7.3935  -21.0747  -58.4646 H         1 UNK         0.0600 
    234 H234       -5.7538  -20.8736  -57.8483 H         1 UNK         0.0600 
    235 H235       -6.7774  -19.1518  -54.3485 H         1 UNK         0.3000 
    236 H236       -5.4202  -18.0154  -53.0476 H         1 UNK         0.0600 
    237 H237       -5.4282  -15.8634  -55.2280 H         1 UNK         0.0600 
    238 H238       -6.6902  -16.0820  -54.0160 H         1 UNK         0.0600 
    239 H239       -5.0696  -15.6240  -53.5233 H         1 UNK         0.0600 
    240 H240       -4.1629  -19.8423  -55.0748 H         1 UNK         0.3000 
    241 H241       -2.2556  -20.5358  -55.8592 H         1 UNK         0.0600 
    242 H242       -3.4849  -18.0399  -57.1426 H         1 UNK         0.3800 
    243 H243       -2.1709  -17.4778  -58.1468 H         1 UNK         0.3800 
    244 H244       -0.8736  -18.7860  -53.7679 H         1 UNK         0.0800 
    245 H245       -0.0739  -19.9993  -54.7282 H         1 UNK         0.0800 
    246 H246       -2.5199  -19.3091  -51.8345 H         1 UNK         0.0800 
    247 H247       -2.3425  -20.7779  -50.9108 H         1 UNK         0.0800 
@<TRIPOS>BOND
     1    1    2 1    
     2    1  127 1    
     3    1  128 1    
     4    1  129 1    
     5    2    3 2    
     6    2    4 am   BACKBONE|DICT|INTERRES
     7    4    5 1    
     8    4  130 1    
     9    5    6 1    
    10    5   65 1    
    11    5  131 1    
    12    6    7 1    
    13    6  132 1    
    14    6  133 1    
    15    7    8 1    
    16    8    9 1    
    17    8  134 1    
    18    8  135 1    
    19    9   10 ar   
    20    9   14 ar   
    21   10   11 ar   
    22   10  136 1    
    23   11   12 ar   
    24   11  126 1    
    25   12   13 ar   
    26   12  137 1    
    27   13   14 ar   
    28   13   15 1    
    29   14  138 1    
    30   15   16 1    
    31   15  139 1    
    32   15  140 1    
    33   16   17 1    
    34   17   18 1    
    35   17  141 1    
    36   17  142 1    
    37   18   19 1    
    38   18   67 1    
    39   18  143 1    
    40   19   20 am   BACKBONE|DICT|INTERRES
    41   19  144 1    
    42   20   21 2    
    43   20   22 1    
    44   22   23 1    
    45   22   24 1    
    46   22  145 1    
    47   23  146 1    
    48   23  147 1    
    49   23  148 1    
    50   24   25 am   BACKBONE|DICT|INTERRES
    51   24  149 1    
    52   25   26 2    
    53   25   27 1    
    54   27   28 1    
    55   27   29 1    
    56   27  150 1    
    57   28  151 1    
    58   28  152 1    
    59   28  153 1    
    60   29   30 am   BACKBONE|DICT|INTERRES
    61   29  154 1    
    62   30   31 2    
    63   30   32 1    
    64   32   33 1    
    65   32   34 1    
    66   32  155 1    
    67   33  156 1    
    68   33  157 1    
    69   33  158 1    
    70   34   35 am   BACKBONE|DICT|INTERRES
    71   34  159 1    
    72   35   36 2    
    73   35   37 1    
    74   37   38 1    
    75   37   39 1    
    76   37  160 1    
    77   38  161 1    
    78   38  162 1    
    79   38  163 1    
    80   39   40 am   BACKBONE|DICT|INTERRES
    81   39  164 1    
    82   40   41 2    
    83   40   42 1    
    84   42   43 1    
    85   42   44 1    
    86   42  165 1    
    87   43  166 1    
    88   43  167 1    
    89   43  168 1    
    90   44   45 am   BACKBONE|DICT|INTERRES
    91   44  169 1    
    92   45   46 2    
    93   45   47 1    
    94   47   48 1    
    95   47   49 1    
    96   47  170 1    
    97   48  171 1    
    98   48  172 1    
    99   48  173 1    
   100   49   50 am   BACKBONE|DICT|INTERRES
   101   49  174 1    
   102   50   51 2    
   103   50   52 1    
   104   52   53 1    
   105   52   54 1    
   106   52  175 1    
   107   53  176 1    
   108   53  177 1    
   109   53  178 1    
   110   54   55 am   BACKBONE|DICT|INTERRES
   111   54  179 1    
   112   55   56 2    
   113   55   57 1    
   114   57   58 1    
   115   57   59 1    
   116   57  180 1    
   117   58  181 1    
   118   58  182 1    
   119   58  183 1    
   120   59   60 am   BACKBONE|DICT|INTERRES
   121   59  184 1    
   122   60   61 2    
   123   60   62 1    
   124   62   63 1    
   125   62   64 1    
   126   62  185 1    
   127   63  186 1    
   128   63  187 1    
   129   63  188 1    
   130   64   65 am   BACKBONE|DICT|INTERRES
   131   64  189 1    
   132   65   66 2    
   133   67   68 2    
   134   67   69 am   BACKBONE|DICT|INTERRES
   135   69   70 1    
   136   69  190 1    
   137   70   71 1    
   138   70   72 1    
   139   70  191 1    
   140   71  192 1    
   141   71  193 1    
   142   71  194 1    
   143   72   73 2    
   144   72   74 am   BACKBONE|DICT|INTERRES
   145   74   75 1    
   146   74  195 1    
   147   75   76 1    
   148   75   77 1    
   149   75  196 1    
   150   76  197 1    
   151   76  198 1    
   152   76  199 1    
   153   77   78 2    
   154   77   79 am   BACKBONE|DICT|INTERRES
   155   79   80 1    
   156   79  200 1    
   157   80   81 1    
   158   80   82 1    
   159   80  201 1    
   160   81  202 1    
   161   81  203 1    
   162   81  204 1    
   163   82   83 2    
   164   82   84 am   BACKBONE|DICT|INTERRES
   165   84   85 1    
   166   84  205 1    
   167   85   86 1    
   168   85   87 1    
   169   85  206 1    
   170   86  207 1    
   171   86  208 1    
   172   86  209 1    
   173   87   88 2    
   174   87   89 am   BACKBONE|DICT|INTERRES
   175   89   90 1    
   176   89  210 1    
   177   90   91 1    
   178   90   92 1    
   179   90  211 1    
   180   91  212 1    
   181   91  213 1    
   182   91  214 1    
   183   92   93 2    
   184   92   94 am   BACKBONE|DICT|INTERRES
   185   94   95 1    
   186   94  215 1    
   187   95   96 1    
   188   95   97 1    
   189   95  216 1    
   190   96  217 1    
   191   96  218 1    
   192   96  219 1    
   193   97   98 2    
   194   97   99 am   BACKBONE|DICT|INTERRES
   195   99  100 1    
   196   99  220 1    
   197  100  101 1    
   198  100  102 1    
   199  100  221 1    
   200  101  222 1    
   201  101  223 1    
   202  101  224 1    
   203  102  103 2    
   204  102  104 am   BACKBONE|DICT|INTERRES
   205  104  105 1    
   206  104  225 1    
   207  105  106 1    
   208  105  107 1    
   209  105  226 1    
   210  106  227 1    
   211  106  228 1    
   212  106  229 1    
   213  107  108 2    
   214  107  109 am   BACKBONE|DICT|INTERRES
   215  109  110 1    
   216  109  230 1    
   217  110  111 1    
   218  110  112 1    
   219  110  231 1    
   220  111  232 1    
   221  111  233 1    
   222  111  234 1    
   223  112  113 2    
   224  112  114 am   BACKBONE|DICT|INTERRES
   225  114  115 1    
   226  114  235 1    
   227  115  116 1    
   228  115  117 1    
   229  115  236 1    
   230  116  237 1    
   231  116  238 1    
   232  116  239 1    
   233  117  118 2    
   234  117  119 am   BACKBONE|DICT|INTERRES
   235  119  120 1    
   236  119  240 1    
   237  120  121 1    
   238  120  124 1    
   239  120  241 1    
   240  121  122 am   BACKBONE|DICT|INTERRES
   241  121  123 2    
   242  122  242 1    
   243  122  243 1    
   244  124  125 1    
   245  124  244 1    
   246  124  245 1    
   247  125  126 1    
   248  126  246 1    
   249  126  247 1    
@<TRIPOS>SUBSTRUCTURE
     1 UNK         1 GROUP             0       ****    0 ROOT    
