@<TRIPOS>MOLECULE
3R540
247   249    1
SMALL
USER_CHARGES


@<TRIPOS>ATOM
      1 CA          5.1309  -11.1973  -47.7903 C.3       0 UNK        -0.1800 
      2 C           4.7352  -12.5934  -47.3339 C.2       0 UNK         0.5000 
      3 O           4.5639  -12.8271  -46.1373 O.2       0 UNK        -0.5000 
      4 N           4.5665  -13.5166  -48.2884 N.am      1 UNK        -0.5000 
      5 CA          4.2604  -14.9400  -48.0781 C.3       1 UNK         0.1400 
      6 C6          4.3893  -15.7574  -49.3877 C.3       23 UNK        -0.0398 
      7 S7          3.3955  -15.1052  -50.7787 S.3       23 UNK        -0.2404 
      8 C8          2.9970  -16.6294  -51.6912 C.3       23 UNK        -0.0205 
      9 C9          1.5110  -16.9496  -51.6378 C.ar      23 UNK        -0.0193 
     10 C10         0.7137  -16.7492  -52.7669 C.ar      23 UNK        -0.1150 
     11 C11        -0.6437  -17.0747  -52.7439 C.ar      23 UNK        -0.0193 
     12 C12        -1.2040  -17.6009  -51.5765 C.ar      23 UNK        -0.1150 
     13 C13        -0.4251  -17.8040  -50.4320 C.ar      23 UNK        -0.0193 
     14 C14         0.9374  -17.4696  -50.4737 C.ar      23 UNK        -0.1150 
     15 C15        -1.1134  -18.3903  -49.1955 C.3       23 UNK        -0.0205 
     16 S16        -0.0979  -18.5210  -47.6835 S.3       23 UNK        -0.2404 
     17 C17         0.9673  -19.9537  -48.0566 C.3       23 UNK        -0.0398 
     18 CA          0.6094  -21.2650  -47.3149 C.3       11 UNK         0.1400 
     19 N           0.8462  -21.2251  -45.8677 N.am      11 UNK        -0.5000 
     20 C           0.9497  -22.3341  -45.1180 C.2       10 UNK         0.5000 
     21 O           0.8616  -23.4736  -45.5773 O.2       10 UNK        -0.5000 
     22 CA          1.1461  -22.1579  -43.6031 C.3       10 UNK         0.1400 
     23 CB          2.5907  -21.7523  -43.2745 C.3       10 UNK        -0.1800 
     24 N           0.2071  -21.2060  -43.0128 N.am      10 UNK        -0.5000 
     25 C          -1.1228  -21.3738  -42.9830 C.2       9 UNK         0.5000 
     26 O          -1.6998  -22.3565  -43.4494 O.2       9 UNK        -0.5000 
     27 CA         -1.9525  -20.2397  -42.3543 C.3       9 UNK         0.1400 
     28 CB         -1.9322  -20.3320  -40.8214 C.3       9 UNK        -0.1800 
     29 N          -1.5007  -18.9139  -42.7746 N.am      9 UNK        -0.5000 
     30 C          -1.5455  -18.4694  -44.0386 C.2       8 UNK         0.5000 
     31 O          -2.0295  -19.1113  -44.9691 O.2       8 UNK        -0.5000 
     32 CA         -0.9011  -17.1002  -44.3166 C.3       8 UNK         0.1400 
     33 CB         -1.8361  -15.9578  -43.8944 C.3       8 UNK        -0.1800 
     34 N           0.3978  -16.9453  -43.6631 N.am      8 UNK        -0.5000 
     35 C           1.4655  -17.7326  -43.8663 C.2       7 UNK         0.5000 
     36 O           1.4905  -18.6782  -44.6532 O.2       7 UNK        -0.5000 
     37 CA          2.6889  -17.4643  -42.9738 C.3       7 UNK         0.1400 
     38 CB          3.5017  -16.2610  -43.4766 C.3       7 UNK        -0.1800 
     39 N           2.2986  -17.2509  -41.5802 N.am      7 UNK        -0.5000 
     40 C           1.7995  -18.2051  -40.7813 C.2       6 UNK         0.5000 
     41 O           1.6494  -19.3773  -41.1247 O.2       6 UNK        -0.5000 
     42 CA          1.3581  -17.7638  -39.3745 C.3       6 UNK         0.1400 
     43 CB          2.5584  -17.7210  -38.4171 C.3       6 UNK        -0.1800 
     44 N           0.6950  -16.4591  -39.3817 N.am      6 UNK        -0.5000 
     45 C          -0.4972  -16.2223  -39.9468 C.2       5 UNK         0.5000 
     46 O          -1.1809  -17.0895  -40.4898 O.2       5 UNK        -0.5000 
     47 CA         -0.9820  -14.7605  -39.9458 C.3       5 UNK         0.1400 
     48 CB         -1.7039  -14.4309  -38.6309 C.3       5 UNK        -0.1800 
     49 N           0.0958  -13.7908  -40.1679 N.am      5 UNK        -0.5000 
     50 C           0.8364  -13.7267  -41.2815 C.2       4 UNK         0.5000 
     51 O           0.7217  -14.5119  -42.2252 O.2       4 UNK        -0.5000 
     52 CA          1.9215  -12.6422  -41.3320 C.3       4 UNK         0.1400 
     53 CB          3.2635  -13.2063  -40.8408 C.3       4 UNK        -0.1800 
     54 N           2.0755  -12.1760  -42.7071 N.am      4 UNK        -0.5000 
     55 C           1.3835  -11.1648  -43.2452 C.2       3 UNK         0.5000 
     56 O           0.6298  -10.4298  -42.6056 O.2       3 UNK        -0.5000 
     57 CA          1.5512  -10.9502  -44.7593 C.3       3 UNK         0.1400 
     58 CB          2.8000  -10.1053  -45.0521 C.3       3 UNK        -0.1800 
     59 N           1.6195  -12.2158  -45.4974 N.am      3 UNK        -0.5000 
     60 C           0.5466  -12.9817  -45.7588 C.2       2 UNK         0.5000 
     61 O          -0.5954  -12.6744  -45.4150 O.2       2 UNK        -0.5000 
     62 CA          0.7704  -14.2853  -46.5514 C.3       2 UNK         0.1400 
     63 CB         -0.3887  -14.5972  -47.5157 C.3       2 UNK        -0.1800 
     64 N           2.0217  -14.2396  -47.3047 N.am      2 UNK        -0.5000 
     65 C           2.9234  -15.2268  -47.3566 C.2       1 UNK         0.5000 
     66 O           2.7548  -16.3314  -46.8435 O.2       1 UNK        -0.5000 
     67 C          -0.7971  -21.7942  -47.6610 C.2       11 UNK         0.5000 
     68 O          -0.9276  -22.5420  -48.6299 O.2       11 UNK        -0.5000 
     69 N          -1.8092  -21.4555  -46.8455 N.am      12 UNK        -0.5000 
     70 CA         -3.1688  -21.9822  -46.9662 C.3       12 UNK         0.1400 
     71 CB         -4.1164  -21.2612  -45.9977 C.3       12 UNK        -0.1800 
     72 C          -3.2337  -23.5046  -46.7695 C.2       12 UNK         0.5000 
     73 O          -3.8842  -24.1852  -47.5614 O.2       12 UNK        -0.5000 
     74 N          -2.5248  -24.0136  -45.7525 N.am      13 UNK        -0.5000 
     75 CA         -2.3864  -25.4434  -45.4794 C.3       13 UNK         0.1400 
     76 CB         -1.7059  -25.6438  -44.1169 C.3       13 UNK        -0.1800 
     77 C          -1.6232  -26.1905  -46.5888 C.2       13 UNK         0.5000 
     78 O          -2.0378  -27.2842  -46.9733 O.2       13 UNK        -0.5000 
     79 N          -0.5384  -25.5840  -47.0921 N.am      14 UNK        -0.5000 
     80 CA          0.2997  -26.1338  -48.1585 C.3       14 UNK         0.1400 
     81 CB          1.5934  -25.3134  -48.2728 C.3       14 UNK        -0.1800 
     82 C          -0.4211  -26.2053  -49.5170 C.2       14 UNK         0.5000 
     83 O          -0.3491  -27.2362  -50.1873 O.2       14 UNK        -0.5000 
     84 N          -1.1039  -25.1170  -49.8980 N.am      15 UNK        -0.5000 
     85 CA         -1.8514  -25.0140  -51.1533 C.3       15 UNK         0.1400 
     86 CB         -2.0560  -23.5305  -51.4927 C.3       15 UNK        -0.1800 
     87 C          -3.2080  -25.7415  -51.1167 C.2       15 UNK         0.5000 
     88 O          -3.7530  -26.0471  -52.1778 O.2       15 UNK        -0.5000 
     89 N          -3.7478  -25.9647  -49.9095 N.am      16 UNK        -0.5000 
     90 CA         -5.0379  -26.5734  -49.5565 C.3       16 UNK         0.1400 
     91 CB         -5.1644  -28.0076  -50.1038 C.3       16 UNK        -0.1800 
     92 C          -6.2565  -25.7096  -49.9370 C.2       16 UNK         0.5000 
     93 O          -7.1402  -25.5044  -49.1046 O.2       16 UNK        -0.5000 
     94 N          -6.2691  -25.1935  -51.1710 N.am      17 UNK        -0.5000 
     95 CA         -7.2602  -24.2494  -51.6907 C.3       17 UNK         0.1400 
     96 CB         -7.3851  -24.4616  -53.2079 C.3       17 UNK        -0.1800 
     97 C          -6.9073  -22.7812  -51.3695 C.2       17 UNK         0.5000 
     98 O          -7.7024  -21.8912  -51.6738 O.2       17 UNK        -0.5000 
     99 N          -5.7255  -22.5487  -50.7772 N.am      18 UNK        -0.5000 
    100 CA        -5.1492  -21.2460  -50.4364 C.3       18 UNK         0.1400 
    101 CB        -5.9408  -20.5838  -49.2863 C.3       18 UNK        -0.1800 
    102 C         -4.9673  -20.3620  -51.6857 C.2       18 UNK         0.5000 
    103 O         -4.4260  -20.8416  -52.6824 O.2       18 UNK        -0.5000 
    104 N         -5.4231  -19.1038  -51.6299 N.am      19 UNK        -0.5000 
    105 CA        -5.3014  -18.1154  -52.7043 C.3       19 UNK         0.1400 
    106 CB        -5.8048  -16.7566  -52.1969 C.3       19 UNK        -0.1800 
    107 C         -6.0035  -18.5019  -54.0211 C.2       19 UNK         0.5000 
    108 O         -5.6182  -17.9922  -55.0726 O.2       19 UNK        -0.5000 
    109 N         -6.9821  -19.4178  -53.9651 N.am      20 UNK        -0.5000 
    110 CA        -7.6522  -19.9709  -55.1440 C.3       20 UNK         0.1400 
    111 CB        -8.9064  -20.7425  -54.7111 C.3       20 UNK        -0.1800 
    112 C         -6.7311  -20.8562  -56.0089 C.2       20 UNK         0.5000 
    113 O         -6.9831  -20.9864  -57.2075 O.2       20 UNK        -0.5000 
    114 N         -5.6599  -21.4109  -55.4174 N.am      21 UNK        -0.5000 
    115 CA        -4.6208  -22.1553  -56.1362 C.3       21 UNK         0.1400 
    116 CB        -3.7532  -22.9284  -55.1307 C.3       21 UNK        -0.1800 
    117 C         -3.7320  -21.2470  -57.0103 C.2       21 UNK         0.5000 
    118 O         -3.1209  -21.7353  -57.9615 O.2       21 UNK        -0.5000 
    119 N         -3.6780  -19.9507  -56.6778 N.am      22 UNK        -0.5000 
    120 CA        -2.9145  -18.9198  -57.3972 C.3       22 UNK         0.1400 
    121 C         -3.6363  -18.3629  -58.6606 C.2       22 UNK         0.5000 
    122 N         -4.8669  -18.7613  -58.9635 N.am      22 UNK        -0.7600 
    123 O         -3.0623  -17.5602  -59.3916 O.2       22 UNK        -0.5000 
    124 C124       -2.4711  -17.7703  -56.4538 C.3       23 UNK        -0.0398 
    125 S125       -1.5171  -18.3632  -55.0154 S.3       23 UNK        -0.2404 
    126 C126       -1.4962  -16.8660  -53.9853 C.3       23 UNK        -0.0205 
    127 H127        5.7544  -10.7136  -47.0382 H         1 UNK         0.0600 
    128 H128        5.6929  -11.2302  -48.7239 H         1 UNK         0.0600 
    129 H129        4.2432  -10.5852  -47.9464 H         1 UNK         0.0600 
    130 H130        4.6842  -13.2488  -49.2559 H         1 UNK         0.3000 
    131 H131        5.0313  -15.3129  -47.4003 H         1 UNK         0.0600 
    132 H132        4.1361  -16.8031  -49.2035 H         1 UNK         0.0800 
    133 H133        5.4325  -15.7640  -49.7061 H         1 UNK         0.0800 
    134 H134        3.5668  -17.4777  -51.3104 H         1 UNK         0.0800 
    135 H135        3.3186  -16.5010  -52.7258 H         1 UNK         0.0800 
    136 H136        1.1518  -16.3508  -53.6714 H         1 UNK         0.1150 
    137 H137       -2.2531  -17.8602  -51.5603 H         1 UNK         0.1150 
    138 H138        1.5684  -17.6086  -49.6086 H         1 UNK         0.1150 
    139 H139       -1.9735  -17.7640  -48.9548 H         1 UNK         0.0800 
    140 H140       -1.5126  -19.3753  -49.4415 H         1 UNK         0.0800 
    141 H141        1.9911  -19.6695  -47.8097 H         1 UNK         0.0800 
    142 H142        0.9676  -20.1299  -49.1335 H         1 UNK         0.0800 
    143 H143        1.3055  -22.0092  -47.7076 H         1 UNK         0.0600 
    144 H144        0.9379  -20.3073  -45.4354 H         1 UNK         0.3000 
    145 H145        0.9613  -23.1278  -43.1365 H         1 UNK         0.0600 
    146 H146        2.7555  -21.7224  -42.1974 H         1 UNK         0.0600 
    147 H147        3.3007  -22.4671  -43.6919 H         1 UNK         0.0600 
    148 H148        2.8387  -20.7709  -43.6777 H         1 UNK         0.0600 
    149 H149        0.6091  -20.3803  -42.5818 H         1 UNK         0.3000 
    150 H150       -2.9854  -20.3609  -42.6868 H         1 UNK         0.0600 
    151 H151       -2.2755  -21.3107  -40.4841 H         1 UNK         0.0600 
    152 H152       -2.5879  -19.5850  -40.3738 H         1 UNK         0.0600 
    153 H153       -0.9297  -20.1784  -40.4210 H         1 UNK         0.0600 
    154 H154       -1.1370  -18.3030  -42.0497 H         1 UNK         0.3000 
    155 H155       -0.7381  -17.0139  -45.3902 H         1 UNK         0.0600 
    156 H156       -2.0530  -15.9863  -42.8271 H         1 UNK         0.0600 
    157 H157       -2.7870  -16.0182  -44.4248 H         1 UNK         0.0600 
    158 H158       -1.3995  -14.9852  -44.1193 H         1 UNK         0.0600 
    159 H159        0.4855  -16.1684  -43.0121 H         1 UNK         0.3000 
    160 H160        3.3340  -18.3446  -43.0115 H         1 UNK         0.0600 
    161 H161        4.3428  -16.0471  -42.8173 H         1 UNK         0.0600 
    162 H162        2.8942  -15.3594  -43.5557 H         1 UNK         0.0600 
    163 H163        3.9142  -16.4634  -44.4648 H         1 UNK         0.0600 
    164 H164        2.3354  -16.3034  -41.2373 H         1 UNK         0.3000 
    165 H165        0.6486  -18.5049  -39.0001 H         1 UNK         0.0600 
    166 H166        2.2435  -17.4827  -37.4010 H         1 UNK         0.0600 
    167 H167        3.0628  -18.6876  -38.3815 H         1 UNK         0.0600 
    168 H168        3.2948  -16.9774  -38.7241 H         1 UNK         0.0600 
    169 H169        1.1888  -15.6895  -38.9549 H         1 UNK         0.3000 
    170 H170       -1.6987  -14.6517  -40.7623 H         1 UNK         0.0600 
    171 H171       -2.5236  -15.1278  -38.4507 H         1 UNK         0.0600 
    172 H172       -1.0304  -14.4878  -37.7748 H         1 UNK         0.0600 
    173 H173       -2.1317  -13.4285  -38.6562 H         1 UNK         0.0600 
    174 H174        0.2566  -13.1197  -39.4303 H         1 UNK         0.3000 
    175 H175        1.6334  -11.8122  -40.6833 H         1 UNK         0.0600 
    176 H176        3.6006  -14.0439  -41.4514 H         1 UNK         0.0600 
    177 H177        4.0415  -12.4429  -40.8650 H         1 UNK         0.0600 
    178 H178        3.1879  -13.5588  -39.8114 H         1 UNK         0.0600 
    179 H179        2.6248  -12.7599  -43.3198 H         1 UNK         0.3000 
    180 H180        0.6830  -10.3888  -45.1115 H         1 UNK         0.0600 
    181 H181        3.7158  -10.6168  -44.7543 H         1 UNK         0.0600 
    182 H182        2.7646   -9.1580  -44.5125 H         1 UNK         0.0600 
    183 H183        2.8727   -9.8684  -46.1128 H         1 UNK         0.0600 
    184 H184        2.5428  -12.5398  -45.7641 H         1 UNK         0.3000 
    185 H185        0.8181  -15.0796  -45.8049 H         1 UNK         0.0600 
    186 H186       -1.3252  -14.7370  -46.9746 H         1 UNK         0.0600 
    187 H187       -0.5374  -13.7928  -48.2366 H         1 UNK         0.0600 
    188 H188       -0.1996  -15.5135  -48.0745 H         1 UNK         0.0600 
    189 H189        2.2339  -13.3705  -47.7736 H         1 UNK         0.3000 
    190 H190       -1.6421  -20.7939  -46.0936 H         1 UNK         0.3000 
    191 H191       -3.5073  -21.7728  -47.9788 H         1 UNK         0.0600 
    192 H192       -3.7897  -21.3622  -44.9627 H         1 UNK         0.0600 
    193 H193       -5.1271  -21.6659  -46.0637 H         1 UNK         0.0600 
    194 H194       -4.1785  -20.1979  -46.2289 H         1 UNK         0.0600 
    195 H195       -2.0495  -23.3798  -45.1166 H         1 UNK         0.3000 
    196 H196       -3.3897  -25.8708  -45.4220 H         1 UNK         0.0600 
    197 H197       -1.6013  -26.7041  -43.8836 H         1 UNK         0.0600 
    198 H198       -2.2894  -25.1901  -43.3156 H         1 UNK         0.0600 
    199 H199       -0.7094  -25.2014  -44.0944 H         1 UNK         0.0600 
    200 H200       -0.2328  -24.7082  -46.6783 H         1 UNK         0.3000 
    201 H201        0.5732  -27.1522  -47.8747 H         1 UNK         0.0600 
    202 H202        2.1468  -25.3163  -47.3335 H         1 UNK         0.0600 
    203 H203        1.3899  -24.2761  -48.5384 H         1 UNK         0.0600 
    204 H204        2.2509  -25.7256  -49.0391 H         1 UNK         0.0600 
    205 H205       -1.0826  -24.2846  -49.3124 H         1 UNK         0.3000 
    206 H206       -1.2601  -25.4647  -51.9531 H         1 UNK         0.0600 
    207 H207       -1.1019  -23.0195  -51.6226 H         1 UNK         0.0600 
    208 H208       -2.6197  -23.4092  -52.4178 H         1 UNK         0.0600 
    209 H209       -2.6036  -23.0163  -50.7048 H         1 UNK         0.0600 
    210 H210       -3.2462  -25.5917  -49.1123 H         1 UNK         0.3000 
    211 H211       -5.0334  -26.6430  -48.4674 H         1 UNK         0.0600 
    212 H212       -5.2089  -28.0305  -51.1928 H         1 UNK         0.0600 
    213 H213       -6.0724  -28.4841  -49.7327 H         1 UNK         0.0600 
    214 H214       -4.3217  -28.6233  -49.7889 H         1 UNK         0.0600 
    215 H215       -5.4946  -25.4358  -51.7841 H         1 UNK         0.3000 
    216 H216       -8.2309  -24.4597  -51.2373 H         1 UNK         0.0600 
    217 H217       -8.1855  -23.8510  -53.6248 H         1 UNK         0.0600 
    218 H218       -7.6193  -25.5000  -53.4429 H         1 UNK         0.0600 
    219 H219       -6.4650  -24.1996  -53.7294 H         1 UNK         0.0600 
    220 H220       -5.1456  -23.3507  -50.5831 H         1 UNK         0.3000 
    221 H221       -4.1408  -21.4389  -50.0767 H         1 UNK         0.0600 
    222 H222       -6.9474  -20.2953  -49.5909 H         1 UNK         0.0600 
    223 H223       -6.0405  -21.2665  -48.4425 H         1 UNK         0.0600 
    224 H224       -5.4320  -19.6931  -48.9157 H         1 UNK         0.0600 
    225 H225       -5.8820  -18.7949  -50.7853 H         1 UNK         0.3000 
    226 H226       -4.2396  -18.0210  -52.9354 H         1 UNK         0.0600 
    227 H227       -6.8580  -16.7980  -51.9162 H         1 UNK         0.0600 
    228 H228       -5.2364  -16.4242  -51.3281 H         1 UNK         0.0600 
    229 H229       -5.6991  -15.9887  -52.9646 H         1 UNK         0.0600 
    230 H230       -7.2287  -19.8187  -53.0698 H         1 UNK         0.3000 
    231 H231       -7.9748  -19.1343  -55.7675 H         1 UNK         0.0600 
    232 H232       -9.5816  -20.1100  -54.1346 H         1 UNK         0.0600 
    233 H233       -8.6548  -21.6084  -54.1014 H         1 UNK         0.0600 
    234 H234       -9.4602  -21.1041  -55.5784 H         1 UNK         0.0600 
    235 H235       -5.4834  -21.2300  -54.4348 H         1 UNK         0.3000 
    236 H236       -5.1095  -22.8788  -56.7921 H         1 UNK         0.0600 
    237 H237       -3.0547  -23.5875  -55.6476 H         1 UNK         0.0600 
    238 H238       -3.1619  -22.2530  -54.5119 H         1 UNK         0.0600 
    239 H239       -4.3556  -23.5497  -54.4695 H         1 UNK         0.0600 
    240 H240       -4.2307  -19.6214  -55.8982 H         1 UNK         0.3000 
    241 H241       -2.0023  -19.3884  -57.7715 H         1 UNK         0.0600 
    242 H242       -5.3175  -18.3958  -59.7877 H         1 UNK         0.3800 
    243 H243       -5.3518  -19.4267  -58.3802 H         1 UNK         0.3800 
    244 H244       -1.8471  -17.0550  -56.9924 H         1 UNK         0.0800 
    245 H245       -3.3385  -17.2121  -56.0998 H         1 UNK         0.0800 
    246 H246       -1.1066  -16.0305  -54.5692 H         1 UNK         0.0800 
    247 H247       -2.5142  -16.5947  -53.7037 H         1 UNK         0.0800 
@<TRIPOS>BOND
     1    1    2 1    
     2    1  127 1    
     3    1  128 1    
     4    1  129 1    
     5    2    3 2    
     6    2    4 am   BACKBONE|DICT|INTERRES
     7    4    5 1    
     8    4  130 1    
     9    5    6 1    
    10    5   65 1    
    11    5  131 1    
    12    6    7 1    
    13    6  132 1    
    14    6  133 1    
    15    7    8 1    
    16    8    9 1    
    17    8  134 1    
    18    8  135 1    
    19    9   10 ar   
    20    9   14 ar   
    21   10   11 ar   
    22   10  136 1    
    23   11   12 ar   
    24   11  126 1    
    25   12   13 ar   
    26   12  137 1    
    27   13   14 ar   
    28   13   15 1    
    29   14  138 1    
    30   15   16 1    
    31   15  139 1    
    32   15  140 1    
    33   16   17 1    
    34   17   18 1    
    35   17  141 1    
    36   17  142 1    
    37   18   19 1    
    38   18   67 1    
    39   18  143 1    
    40   19   20 am   BACKBONE|DICT|INTERRES
    41   19  144 1    
    42   20   21 2    
    43   20   22 1    
    44   22   23 1    
    45   22   24 1    
    46   22  145 1    
    47   23  146 1    
    48   23  147 1    
    49   23  148 1    
    50   24   25 am   BACKBONE|DICT|INTERRES
    51   24  149 1    
    52   25   26 2    
    53   25   27 1    
    54   27   28 1    
    55   27   29 1    
    56   27  150 1    
    57   28  151 1    
    58   28  152 1    
    59   28  153 1    
    60   29   30 am   BACKBONE|DICT|INTERRES
    61   29  154 1    
    62   30   31 2    
    63   30   32 1    
    64   32   33 1    
    65   32   34 1    
    66   32  155 1    
    67   33  156 1    
    68   33  157 1    
    69   33  158 1    
    70   34   35 am   BACKBONE|DICT|INTERRES
    71   34  159 1    
    72   35   36 2    
    73   35   37 1    
    74   37   38 1    
    75   37   39 1    
    76   37  160 1    
    77   38  161 1    
    78   38  162 1    
    79   38  163 1    
    80   39   40 am   BACKBONE|DICT|INTERRES
    81   39  164 1    
    82   40   41 2    
    83   40   42 1    
    84   42   43 1    
    85   42   44 1    
    86   42  165 1    
    87   43  166 1    
    88   43  167 1    
    89   43  168 1    
    90   44   45 am   BACKBONE|DICT|INTERRES
    91   44  169 1    
    92   45   46 2    
    93   45   47 1    
    94   47   48 1    
    95   47   49 1    
    96   47  170 1    
    97   48  171 1    
    98   48  172 1    
    99   48  173 1    
   100   49   50 am   BACKBONE|DICT|INTERRES
   101   49  174 1    
   102   50   51 2    
   103   50   52 1    
   104   52   53 1    
   105   52   54 1    
   106   52  175 1    
   107   53  176 1    
   108   53  177 1    
   109   53  178 1    
   110   54   55 am   BACKBONE|DICT|INTERRES
   111   54  179 1    
   112   55   56 2    
   113   55   57 1    
   114   57   58 1    
   115   57   59 1    
   116   57  180 1    
   117   58  181 1    
   118   58  182 1    
   119   58  183 1    
   120   59   60 am   BACKBONE|DICT|INTERRES
   121   59  184 1    
   122   60   61 2    
   123   60   62 1    
   124   62   63 1    
   125   62   64 1    
   126   62  185 1    
   127   63  186 1    
   128   63  187 1    
   129   63  188 1    
   130   64   65 am   BACKBONE|DICT|INTERRES
   131   64  189 1    
   132   65   66 2    
   133   67   68 2    
   134   67   69 am   BACKBONE|DICT|INTERRES
   135   69   70 1    
   136   69  190 1    
   137   70   71 1    
   138   70   72 1    
   139   70  191 1    
   140   71  192 1    
   141   71  193 1    
   142   71  194 1    
   143   72   73 2    
   144   72   74 am   BACKBONE|DICT|INTERRES
   145   74   75 1    
   146   74  195 1    
   147   75   76 1    
   148   75   77 1    
   149   75  196 1    
   150   76  197 1    
   151   76  198 1    
   152   76  199 1    
   153   77   78 2    
   154   77   79 am   BACKBONE|DICT|INTERRES
   155   79   80 1    
   156   79  200 1    
   157   80   81 1    
   158   80   82 1    
   159   80  201 1    
   160   81  202 1    
   161   81  203 1    
   162   81  204 1    
   163   82   83 2    
   164   82   84 am   BACKBONE|DICT|INTERRES
   165   84   85 1    
   166   84  205 1    
   167   85   86 1    
   168   85   87 1    
   169   85  206 1    
   170   86  207 1    
   171   86  208 1    
   172   86  209 1    
   173   87   88 2    
   174   87   89 am   BACKBONE|DICT|INTERRES
   175   89   90 1    
   176   89  210 1    
   177   90   91 1    
   178   90   92 1    
   179   90  211 1    
   180   91  212 1    
   181   91  213 1    
   182   91  214 1    
   183   92   93 2    
   184   92   94 am   BACKBONE|DICT|INTERRES
   185   94   95 1    
   186   94  215 1    
   187   95   96 1    
   188   95   97 1    
   189   95  216 1    
   190   96  217 1    
   191   96  218 1    
   192   96  219 1    
   193   97   98 2    
   194   97   99 am   BACKBONE|DICT|INTERRES
   195   99  100 1    
   196   99  220 1    
   197  100  101 1    
   198  100  102 1    
   199  100  221 1    
   200  101  222 1    
   201  101  223 1    
   202  101  224 1    
   203  102  103 2    
   204  102  104 am   BACKBONE|DICT|INTERRES
   205  104  105 1    
   206  104  225 1    
   207  105  106 1    
   208  105  107 1    
   209  105  226 1    
   210  106  227 1    
   211  106  228 1    
   212  106  229 1    
   213  107  108 2    
   214  107  109 am   BACKBONE|DICT|INTERRES
   215  109  110 1    
   216  109  230 1    
   217  110  111 1    
   218  110  112 1    
   219  110  231 1    
   220  111  232 1    
   221  111  233 1    
   222  111  234 1    
   223  112  113 2    
   224  112  114 am   BACKBONE|DICT|INTERRES
   225  114  115 1    
   226  114  235 1    
   227  115  116 1    
   228  115  117 1    
   229  115  236 1    
   230  116  237 1    
   231  116  238 1    
   232  116  239 1    
   233  117  118 2    
   234  117  119 am   BACKBONE|DICT|INTERRES
   235  119  120 1    
   236  119  240 1    
   237  120  121 1    
   238  120  124 1    
   239  120  241 1    
   240  121  122 am   BACKBONE|DICT|INTERRES
   241  121  123 2    
   242  122  242 1    
   243  122  243 1    
   244  124  125 1    
   245  124  244 1    
   246  124  245 1    
   247  125  126 1    
   248  126  246 1    
   249  126  247 1    
@<TRIPOS>SUBSTRUCTURE
     1 UNK         1 GROUP             0       ****    0 ROOT    
