@<TRIPOS>MOLECULE
3R540
247   249    1
SMALL
USER_CHARGES


@<TRIPOS>ATOM
      1 CA         -1.6801  -11.1350  -49.0765 C.3       0 UNK        -0.1800 
      2 C          -0.5486  -11.3436  -48.0805 C.2       0 UNK         0.5000 
      3 O          -0.3379  -10.5048  -47.2040 O.2       0 UNK        -0.5000 
      4 N           0.1720  -12.4671  -48.1976 N.am      1 UNK        -0.5000 
      5 CA          1.3047  -12.8342  -47.3363 C.3       1 UNK         0.1400 
      6 C6          2.2146  -13.9034  -47.9857 C.3       23 UNK        -0.0398 
      7 S7          1.3852  -15.4851  -48.3769 S.3       23 UNK        -0.2404 
      8 C8          2.3828  -15.9966  -49.8052 C.3       23 UNK        -0.0205 
      9 C9          2.1737  -17.4572  -50.1722 C.ar      23 UNK        -0.0193 
     10 C10         1.3379  -17.8080  -51.2360 C.ar      23 UNK        -0.1150 
     11 C11         1.2444  -19.1385  -51.6557 C.ar      23 UNK        -0.0193 
     12 C12         1.9803  -20.1231  -50.9874 C.ar      23 UNK        -0.1150 
     13 C13         2.8051  -19.7879  -49.9080 C.ar      23 UNK        -0.0193 
     14 C14         2.8893  -18.4530  -49.5013 C.ar      23 UNK        -0.1150 
     15 C15         3.6807  -20.8424  -49.2394 C.3       23 UNK        -0.0205 
     16 S16         2.7436  -22.1704  -48.4184 S.3       23 UNK        -0.2404 
     17 C17         1.9263  -21.2837  -47.0481 C.3       23 UNK        -0.0398 
     18 CA          0.4244  -21.6384  -46.9399 C.3       11 UNK         0.1400 
     19 N          -0.1207  -21.3356  -45.6087 N.am      11 UNK        -0.5000 
     20 C          -1.3734  -21.5958  -45.2001 C.2       10 UNK         0.5000 
     21 O          -2.2434  -22.0867  -45.9194 O.2       10 UNK        -0.5000 
     22 CA         -1.7340  -21.1973  -43.7596 C.3       10 UNK         0.1400 
     23 CB         -1.0349  -22.1020  -42.7334 C.3       10 UNK        -0.1800 
     24 N          -1.4114  -19.7988  -43.4955 N.am      10 UNK        -0.5000 
     25 C          -2.0262  -18.7604  -44.0782 C.2       9 UNK         0.5000 
     26 O          -3.0084  -18.8665  -44.8125 O.2       9 UNK        -0.5000 
     27 CA         -1.4225  -17.3691  -43.8209 C.3       9 UNK         0.1400 
     28 CB         -1.9549  -16.7940  -42.4979 C.3       9 UNK        -0.1800 
     29 N           0.0437  -17.3696  -43.8139 N.am      9 UNK        -0.5000 
     30 C           0.8133  -17.7342  -44.8520 C.2       8 UNK         0.5000 
     31 O           0.3703  -18.0824  -45.9440 O.2       8 UNK        -0.5000 
     32 CA          2.3303  -17.7984  -44.6065 C.3       8 UNK         0.1400 
     33 CB          2.9835  -16.4149  -44.7329 C.3       8 UNK        -0.1800 
     34 N           2.6389  -18.3765  -43.3000 N.am      8 UNK        -0.5000 
     35 C           2.4366  -19.6626  -42.9798 C.2       7 UNK         0.5000 
     36 O           2.0232  -20.5080  -43.7733 O.2       7 UNK        -0.5000 
     37 CA          2.6876  -20.0525  -41.5120 C.3       7 UNK         0.1400 
     38 CB          4.1813  -20.3111  -41.2662 C.3       7 UNK        -0.1800 
     39 N           2.2107  -19.0288  -40.5804 N.am      7 UNK        -0.5000 
     40 C           0.9212  -18.7012  -40.4114 C.2       6 UNK         0.5000 
     41 O          -0.0060  -19.2841  -40.9716 O.2       6 UNK        -0.5000 
     42 CA          0.6228  -17.4917  -39.5038 C.3       6 UNK         0.1400 
     43 CB          0.4079  -17.9468  -38.0530 C.3       6 UNK        -0.1800 
     44 N           1.6784  -16.4756  -39.5435 N.am      6 UNK        -0.5000 
     45 C           1.9895  -15.7453  -40.6223 C.2       5 UNK         0.5000 
     46 O           1.3934  -15.8213  -41.6993 O.2       5 UNK        -0.5000 
     47 CA          3.2295  -14.8540  -40.4950 C.3       5 UNK         0.1400 
     48 CB          4.4988  -15.6925  -40.7521 C.3       5 UNK        -0.1800 
     49 N           3.1530  -13.7499  -41.4479 N.am      5 UNK        -0.5000 
     50 C           3.9371  -12.6645  -41.4209 C.2       4 UNK         0.5000 
     51 O           4.7840  -12.4547  -40.5510 O.2       4 UNK        -0.5000 
     52 CA          3.7569  -11.6380  -42.5509 C.3       4 UNK         0.1400 
     53 CB          4.5266  -12.0789  -43.8064 C.3       4 UNK        -0.1800 
     54 N           2.3511  -11.4084  -42.8849 N.am      4 UNK        -0.5000 
     55 C           1.5343  -10.6145  -42.1747 C.2       3 UNK         0.5000 
     56 O           1.8834  -10.0305  -41.1478 O.2       3 UNK        -0.5000 
     57 CA          0.0969  -10.4032  -42.6957 C.3       3 UNK         0.1400 
     58 CB         -0.0153   -9.0544  -43.4231 C.3       3 UNK        -0.1800 
     59 N          -0.3571  -11.4575  -43.5992 N.am      3 UNK        -0.5000 
     60 C          -0.6765  -12.7009  -43.2183 C.2       2 UNK         0.5000 
     61 O          -0.7097  -13.0650  -42.0432 O.2       2 UNK        -0.5000 
     62 CA         -0.9909  -13.7139  -44.3376 C.3       2 UNK         0.1400 
     63 CB         -2.5105  -13.8689  -44.5059 C.3       2 UNK        -0.1800 
     64 N          -0.4068  -13.3905  -45.6414 N.am      2 UNK        -0.5000 
     65 C           0.8983  -13.2200  -45.8967 C.2       1 UNK         0.5000 
     66 O           1.7691  -13.3154  -45.0333 O.2       1 UNK        -0.5000 
     67 C          -0.3922  -21.0142  -48.0907 C.2       11 UNK         0.5000 
     68 O          -0.6329  -21.6916  -49.0900 O.2       11 UNK        -0.5000 
     69 N          -0.8775  -19.7812  -47.8830 N.am      12 UNK        -0.5000 
     70 CA         -1.7451  -19.0264  -48.7901 C.3       12 UNK         0.1400 
     71 CB         -2.0180  -17.6407  -48.1839 C.3       12 UNK        -0.1800 
     72 C          -3.0733  -19.7207  -49.1655 C.2       12 UNK         0.5000 
     73 O          -3.7183  -19.2797  -50.1153 O.2       12 UNK        -0.5000 
     74 N          -3.4580  -20.7782  -48.4389 N.am      13 UNK        -0.5000 
     75 CA         -4.5199  -21.7048  -48.8154 C.3       13 UNK         0.1400 
     76 CB         -5.6080  -21.7087  -47.7308 C.3       13 UNK        -0.1800 
     77 C          -3.9487  -23.1153  -49.0285 C.2       13 UNK         0.5000 
     78 O          -4.1965  -23.7202  -50.0707 O.2       13 UNK        -0.5000 
     79 N          -3.1929  -23.6181  -48.0412 N.am      14 UNK        -0.5000 
     80 CA         -2.7421  -25.0070  -47.9255 C.3       14 UNK         0.1400 
     81 CB         -2.0439  -25.2002  -46.5704 C.3       14 UNK        -0.1800 
     82 C          -1.8437  -25.5226  -49.0638 C.2       14 UNK         0.5000 
     83 O          -1.7696  -26.7386  -49.2432 O.2       14 UNK        -0.5000 
     84 N          -1.2002  -24.6229  -49.8221 N.am      15 UNK        -0.5000 
     85 CA         -0.3289  -24.9566  -50.9535 C.3       15 UNK         0.1400 
     86 CB          0.3144  -23.6741  -51.4935 C.3       15 UNK        -0.1800 
     87 C          -1.0169  -25.7457  -52.0886 C.2       15 UNK         0.5000 
     88 O          -0.3408  -26.5166  -52.7709 O.2       15 UNK        -0.5000 
     89 N          -2.3372  -25.5802  -52.2495 N.am      16 UNK        -0.5000 
     90 CA         -3.1611  -26.3686  -53.1711 C.3       16 UNK         0.1400 
     91 CB         -3.1057  -25.7678  -54.5862 C.3       16 UNK        -0.1800 
     92 C          -4.5994  -26.5264  -52.6483 C.2       16 UNK         0.5000 
     93 O          -5.5296  -26.6484  -53.4469 O.2       16 UNK        -0.5000 
     94 N          -4.7620  -26.4946  -51.3173 N.am      17 UNK        -0.5000 
     95 CA         -6.0042  -26.5222  -50.5294 C.3       17 UNK         0.1400 
     96 CB         -6.7784  -27.8365  -50.7430 C.3       17 UNK        -0.1800 
     97 C          -6.9219  -25.2954  -50.7236 C.2       17 UNK         0.5000 
     98 O          -7.4055  -24.7423  -49.7349 O.2       17 UNK        -0.5000 
     99 N          -7.1381  -24.8859  -51.9769 N.am      18 UNK        -0.5000 
    100 CA        -7.8567  -23.6803  -52.3621 C.3       18 UNK         0.1400 
    101 CB        -8.5931  -23.9377  -53.6863 C.3       18 UNK        -0.1800 
    102 C         -6.8660  -22.5188  -52.5219 C.2       18 UNK         0.5000 
    103 O         -5.8896  -22.6431  -53.2674 O.2       18 UNK        -0.5000 
    104 N         -7.1736  -21.3866  -51.8772 N.am      19 UNK        -0.5000 
    105 CA        -6.4134  -20.1363  -51.9755 C.3       19 UNK         0.1400 
    106 CB        -6.9048  -19.1682  -50.8882 C.3       19 UNK        -0.1800 
    107 C         -6.4984  -19.4757  -53.3639 C.2       19 UNK         0.5000 
    108 O         -5.5902  -18.7383  -53.7461 O.2       19 UNK        -0.5000 
    109 N         -7.5749  -19.7744  -54.1050 N.am      20 UNK        -0.5000 
    110 CA        -7.7705  -19.3694  -55.4970 C.3       20 UNK         0.1400 
    111 CB        -9.2281  -19.6481  -55.8952 C.3       20 UNK        -0.1800 
    112 C         -6.8021  -20.0719  -56.4699 C.2       20 UNK         0.5000 
    113 O         -6.5276  -19.5279  -57.5401 O.2       20 UNK        -0.5000 
    114 N         -6.3061  -21.2563  -56.0848 N.am      21 UNK        -0.5000 
    115 CA        -5.3005  -22.0112  -56.8217 C.3       21 UNK         0.1400 
    116 CB        -5.5841  -23.5190  -56.6884 C.3       21 UNK        -0.1800 
    117 C         -3.8991  -21.6384  -56.3144 C.2       21 UNK         0.5000 
    118 O         -3.1305  -21.0237  -57.0536 O.2       21 UNK        -0.5000 
    119 N         -3.5962  -22.0213  -55.0657 N.am      22 UNK        -0.5000 
    120 CA        -2.3004  -21.8417  -54.3810 C.3       22 UNK         0.1400 
    121 C         -1.0749  -22.5613  -55.0389 C.2       22 UNK         0.5000 
    122 N         -1.2459  -23.3863  -56.0645 N.am      22 UNK        -0.7600 
    123 O          0.0589  -22.3949  -54.6024 O.2       22 UNK        -0.5000 
    124 C124       -2.0174  -20.3454  -54.0563 C.3       23 UNK        -0.0398 
    125 S125       -1.2464  -20.0973  -52.4189 S.3       23 UNK        -0.2404 
    126 C126        0.4078  -19.4980  -52.8756 C.3       23 UNK        -0.0205 
    127 H127       -2.6313  -11.0504  -48.5512 H         1 UNK         0.0600 
    128 H128       -1.7543  -11.9607  -49.7845 H         1 UNK         0.0600 
    129 H129       -1.5179  -10.2166  -49.6406 H         1 UNK         0.0600 
    130 H130       -0.0527  -13.1331  -48.9238 H         1 UNK         0.3000 
    131 H131        1.9180  -11.9369  -47.2269 H         1 UNK         0.0600 
    132 H132        3.0762  -14.1121  -47.3489 H         1 UNK         0.0800 
    133 H133        2.6303  -13.4898  -48.9056 H         1 UNK         0.0800 
    134 H134        3.4391  -15.8346  -49.5842 H         1 UNK         0.0800 
    135 H135        2.1474  -15.3537  -50.6547 H         1 UNK         0.0800 
    136 H136        0.7913  -17.0394  -51.7643 H         1 UNK         0.1150 
    137 H137        1.9278  -21.1487  -51.3229 H         1 UNK         0.1150 
    138 H138        3.5460  -18.1773  -48.6880 H         1 UNK         0.1150 
    139 H139        4.3207  -21.2919  -49.9998 H         1 UNK         0.0800 
    140 H140        4.3532  -20.3860  -48.5114 H         1 UNK         0.0800 
    141 H141        2.0683  -20.2056  -47.1401 H         1 UNK         0.0800 
    142 H142        2.4460  -21.5791  -46.1365 H         1 UNK         0.0800 
    143 H143        0.3338  -22.7212  -47.0469 H         1 UNK         0.0600 
    144 H144        0.5309  -20.9281  -44.9437 H         1 UNK         0.3000 
    145 H145       -2.8119  -21.3242  -43.6381 H         1 UNK         0.0600 
    146 H146       -1.3482  -21.8580  -41.7182 H         1 UNK         0.0600 
    147 H147        0.0499  -22.0078  -42.7768 H         1 UNK         0.0600 
    148 H148       -1.2807  -23.1502  -42.9076 H         1 UNK         0.0600 
    149 H149       -0.6626  -19.6150  -42.8358 H         1 UNK         0.3000 
    150 H150       -1.7398  -16.7197  -44.6378 H         1 UNK         0.0600 
    151 H151       -3.0251  -16.5970  -42.5682 H         1 UNK         0.0600 
    152 H152       -1.4669  -15.8570  -42.2318 H         1 UNK         0.0600 
    153 H153       -1.8110  -17.4862  -41.6694 H         1 UNK         0.0600 
    154 H154        0.4983  -17.0480  -42.9651 H         1 UNK         0.3000 
    155 H155        2.7640  -18.4430  -45.3740 H         1 UNK         0.0600 
    156 H156        2.8015  -15.9921  -45.7204 H         1 UNK         0.0600 
    157 H157        4.0636  -16.4727  -44.5992 H         1 UNK         0.0600 
    158 H158        2.5930  -15.7088  -44.0013 H         1 UNK         0.0600 
    159 H159        2.9316  -17.7359  -42.5786 H         1 UNK         0.3000 
    160 H160        2.1413  -20.9771  -41.3134 H         1 UNK         0.0600 
    161 H161        4.7795  -19.4127  -41.4242 H         1 UNK         0.0600 
    162 H162        4.5595  -21.0805  -41.9408 H         1 UNK         0.0600 
    163 H163        4.3586  -20.6579  -40.2480 H         1 UNK         0.0600 
    164 H164        2.9103  -18.5134  -40.0681 H         1 UNK         0.3000 
    165 H165       -0.3013  -17.0301  -39.8564 H         1 UNK         0.0600 
    166 H166        0.1222  -17.1100  -37.4154 H         1 UNK         0.0600 
    167 H167       -0.3903  -18.6879  -37.9913 H         1 UNK         0.0600 
    168 H168        1.3080  -18.3980  -37.6335 H         1 UNK         0.0600 
    169 H169        2.2207  -16.3599  -38.6992 H         1 UNK         0.3000 
    170 H170        3.2565  -14.4449  -39.4829 H         1 UNK         0.0600 
    171 H171        4.5277  -16.0717  -41.7744 H         1 UNK         0.0600 
    172 H172        5.4050  -15.1093  -40.5898 H         1 UNK         0.0600 
    173 H173        4.5514  -16.5502  -40.0806 H         1 UNK         0.0600 
    174 H174        2.4481  -13.8525  -42.1678 H         1 UNK         0.3000 
    175 H175        4.1907  -10.6929  -42.2164 H         1 UNK         0.0600 
    176 H176        4.2110  -13.0633  -44.1530 H         1 UNK         0.0600 
    177 H177        4.3883  -11.3730  -44.6254 H         1 UNK         0.0600 
    178 H178        5.5965  -12.1364  -43.6029 H         1 UNK         0.0600 
    179 H179        1.9931  -11.9067  -43.6936 H         1 UNK         0.3000 
    180 H180       -0.5672  -10.3803  -41.8291 H         1 UNK         0.0600 
    181 H181       -1.0421   -8.8569  -43.7319 H         1 UNK         0.0600 
    182 H182        0.6142   -9.0246  -44.3136 H         1 UNK         0.0600 
    183 H183        0.2918   -8.2324  -42.7751 H         1 UNK         0.0600 
    184 H184       -0.3612  -11.2404  -44.5864 H         1 UNK         0.3000 
    185 H185       -0.5617  -14.6658  -44.0285 H         1 UNK         0.0600 
    186 H186       -2.9727  -12.9368  -44.8332 H         1 UNK         0.0600 
    187 H187       -2.7550  -14.6372  -45.2394 H         1 UNK         0.0600 
    188 H188       -2.9831  -14.1542  -43.5653 H         1 UNK         0.0600 
    189 H189       -1.0510  -13.2810  -46.4103 H         1 UNK         0.3000 
    190 H190       -0.5824  -19.2857  -47.0449 H         1 UNK         0.3000 
    191 H191       -1.1853  -18.8835  -49.7153 H         1 UNK         0.0600 
    192 H192       -2.5438  -17.7160  -47.2322 H         1 UNK         0.0600 
    193 H193       -2.6291  -17.0323  -48.8515 H         1 UNK         0.0600 
    194 H194       -1.0906  -17.0962  -48.0123 H         1 UNK         0.0600 
    195 H195       -2.8675  -21.0623  -47.6664 H         1 UNK         0.3000 
    196 H196       -4.9828  -21.4053  -49.7553 H         1 UNK         0.0600 
    197 H197       -6.0654  -20.7242  -47.6325 H         1 UNK         0.0600 
    198 H198       -5.2081  -21.9888  -46.7554 H         1 UNK         0.0600 
    199 H199       -6.4021  -22.4144  -47.9790 H         1 UNK         0.0600 
    200 H200       -2.9831  -23.0316  -47.2359 H         1 UNK         0.3000 
    201 H201       -3.6394  -25.6287  -47.9291 H         1 UNK         0.0600 
    202 H202       -2.6984  -24.9223  -45.7441 H         1 UNK         0.0600 
    203 H203       -1.1371  -24.5998  -46.4976 H         1 UNK         0.0600 
    204 H204       -1.7589  -26.2424  -46.4202 H         1 UNK         0.0600 
    205 H205       -1.2923  -23.6367  -49.5991 H         1 UNK         0.3000 
    206 H206        0.4705  -25.5917  -50.5669 H         1 UNK         0.0600 
    207 H207        0.9505  -23.8808  -52.3549 H         1 UNK         0.0600 
    208 H208       -0.4378  -22.9491  -51.8037 H         1 UNK         0.0600 
    209 H209        0.9395  -23.2047  -50.7351 H         1 UNK         0.0600 
    210 H210       -2.8250  -24.9155  -51.6603 H         1 UNK         0.3000 
    211 H211       -2.7612  -27.3835  -53.2207 H         1 UNK         0.0600 
    212 H212       -3.4946  -24.7511  -54.5968 H         1 UNK         0.0600 
    213 H213       -3.6931  -26.3544  -55.2933 H         1 UNK         0.0600 
    214 H214       -2.0834  -25.7490  -54.9617 H         1 UNK         0.0600 
    215 H215       -3.9235  -26.3905  -50.7643 H         1 UNK         0.3000 
    216 H216       -5.6827  -26.5016  -49.4868 H         1 UNK         0.0600 
    217 H217       -7.6390  -27.8919  -50.0754 H         1 UNK         0.0600 
    218 H218       -6.1497  -28.7023  -50.5352 H         1 UNK         0.0600 
    219 H219       -7.1530  -27.9304  -51.7625 H         1 UNK         0.0600 
    220 H220       -6.6608  -25.3906  -52.7196 H         1 UNK         0.3000 
    221 H221       -8.5984  -23.4291  -51.6009 H         1 UNK         0.0600 
    222 H222       -7.9041  -24.2120  -54.4864 H         1 UNK         0.0600 
    223 H223       -9.3181  -24.7449  -53.5811 H         1 UNK         0.0600 
    224 H224       -9.1387  -23.0509  -54.0113 H         1 UNK         0.0600 
    225 H225       -7.9943  -21.3651  -51.2890 H         1 UNK         0.3000 
    226 H226       -5.3615  -20.3660  -51.8004 H         1 UNK         0.0600 
    227 H227       -6.7785  -19.5940  -49.8929 H         1 UNK         0.0600 
    228 H228       -6.3373  -18.2369  -50.9125 H         1 UNK         0.0600 
    229 H229       -7.9579  -18.9160  -51.0170 H         1 UNK         0.0600 
    230 H230       -8.2841  -20.3674  -53.7011 H         1 UNK         0.3000 
    231 H231       -7.5927  -18.2944  -55.5699 H         1 UNK         0.0600 
    232 H232       -9.4195  -19.3326  -56.9217 H         1 UNK         0.0600 
    233 H233       -9.9232  -19.1047  -55.2551 H         1 UNK         0.0600 
    234 H234       -9.4680  -20.7101  -55.8284 H         1 UNK         0.0600 
    235 H235       -6.5360  -21.6013  -55.1629 H         1 UNK         0.3000 
    236 H236       -5.3490  -21.7628  -57.8841 H         1 UNK         0.0600 
    237 H237       -5.6145  -23.8484  -55.6500 H         1 UNK         0.0600 
    238 H238       -6.5422  -23.7751  -57.1407 H         1 UNK         0.0600 
    239 H239       -4.8193  -24.1069  -57.1968 H         1 UNK         0.0600 
    240 H240       -4.3205  -22.4661  -54.5097 H         1 UNK         0.3000 
    241 H241       -2.4432  -22.3663  -53.4354 H         1 UNK         0.0600 
    242 H242       -2.1575  -23.5300  -56.4652 H         1 UNK         0.3800 
    243 H243       -0.4416  -23.8406  -56.4665 H         1 UNK         0.3800 
    244 H244       -1.4235  -19.8745  -54.8413 H         1 UNK         0.0800 
    245 H245       -2.9537  -19.7860  -54.0293 H         1 UNK         0.0800 
    246 H246        0.3074  -18.6300  -53.5290 H         1 UNK         0.0800 
    247 H247        0.9269  -20.2597  -53.4571 H         1 UNK         0.0800 
@<TRIPOS>BOND
     1    1    2 1    
     2    1  127 1    
     3    1  128 1    
     4    1  129 1    
     5    2    3 2    
     6    2    4 am   BACKBONE|DICT|INTERRES
     7    4    5 1    
     8    4  130 1    
     9    5    6 1    
    10    5   65 1    
    11    5  131 1    
    12    6    7 1    
    13    6  132 1    
    14    6  133 1    
    15    7    8 1    
    16    8    9 1    
    17    8  134 1    
    18    8  135 1    
    19    9   10 ar   
    20    9   14 ar   
    21   10   11 ar   
    22   10  136 1    
    23   11   12 ar   
    24   11  126 1    
    25   12   13 ar   
    26   12  137 1    
    27   13   14 ar   
    28   13   15 1    
    29   14  138 1    
    30   15   16 1    
    31   15  139 1    
    32   15  140 1    
    33   16   17 1    
    34   17   18 1    
    35   17  141 1    
    36   17  142 1    
    37   18   19 1    
    38   18   67 1    
    39   18  143 1    
    40   19   20 am   BACKBONE|DICT|INTERRES
    41   19  144 1    
    42   20   21 2    
    43   20   22 1    
    44   22   23 1    
    45   22   24 1    
    46   22  145 1    
    47   23  146 1    
    48   23  147 1    
    49   23  148 1    
    50   24   25 am   BACKBONE|DICT|INTERRES
    51   24  149 1    
    52   25   26 2    
    53   25   27 1    
    54   27   28 1    
    55   27   29 1    
    56   27  150 1    
    57   28  151 1    
    58   28  152 1    
    59   28  153 1    
    60   29   30 am   BACKBONE|DICT|INTERRES
    61   29  154 1    
    62   30   31 2    
    63   30   32 1    
    64   32   33 1    
    65   32   34 1    
    66   32  155 1    
    67   33  156 1    
    68   33  157 1    
    69   33  158 1    
    70   34   35 am   BACKBONE|DICT|INTERRES
    71   34  159 1    
    72   35   36 2    
    73   35   37 1    
    74   37   38 1    
    75   37   39 1    
    76   37  160 1    
    77   38  161 1    
    78   38  162 1    
    79   38  163 1    
    80   39   40 am   BACKBONE|DICT|INTERRES
    81   39  164 1    
    82   40   41 2    
    83   40   42 1    
    84   42   43 1    
    85   42   44 1    
    86   42  165 1    
    87   43  166 1    
    88   43  167 1    
    89   43  168 1    
    90   44   45 am   BACKBONE|DICT|INTERRES
    91   44  169 1    
    92   45   46 2    
    93   45   47 1    
    94   47   48 1    
    95   47   49 1    
    96   47  170 1    
    97   48  171 1    
    98   48  172 1    
    99   48  173 1    
   100   49   50 am   BACKBONE|DICT|INTERRES
   101   49  174 1    
   102   50   51 2    
   103   50   52 1    
   104   52   53 1    
   105   52   54 1    
   106   52  175 1    
   107   53  176 1    
   108   53  177 1    
   109   53  178 1    
   110   54   55 am   BACKBONE|DICT|INTERRES
   111   54  179 1    
   112   55   56 2    
   113   55   57 1    
   114   57   58 1    
   115   57   59 1    
   116   57  180 1    
   117   58  181 1    
   118   58  182 1    
   119   58  183 1    
   120   59   60 am   BACKBONE|DICT|INTERRES
   121   59  184 1    
   122   60   61 2    
   123   60   62 1    
   124   62   63 1    
   125   62   64 1    
   126   62  185 1    
   127   63  186 1    
   128   63  187 1    
   129   63  188 1    
   130   64   65 am   BACKBONE|DICT|INTERRES
   131   64  189 1    
   132   65   66 2    
   133   67   68 2    
   134   67   69 am   BACKBONE|DICT|INTERRES
   135   69   70 1    
   136   69  190 1    
   137   70   71 1    
   138   70   72 1    
   139   70  191 1    
   140   71  192 1    
   141   71  193 1    
   142   71  194 1    
   143   72   73 2    
   144   72   74 am   BACKBONE|DICT|INTERRES
   145   74   75 1    
   146   74  195 1    
   147   75   76 1    
   148   75   77 1    
   149   75  196 1    
   150   76  197 1    
   151   76  198 1    
   152   76  199 1    
   153   77   78 2    
   154   77   79 am   BACKBONE|DICT|INTERRES
   155   79   80 1    
   156   79  200 1    
   157   80   81 1    
   158   80   82 1    
   159   80  201 1    
   160   81  202 1    
   161   81  203 1    
   162   81  204 1    
   163   82   83 2    
   164   82   84 am   BACKBONE|DICT|INTERRES
   165   84   85 1    
   166   84  205 1    
   167   85   86 1    
   168   85   87 1    
   169   85  206 1    
   170   86  207 1    
   171   86  208 1    
   172   86  209 1    
   173   87   88 2    
   174   87   89 am   BACKBONE|DICT|INTERRES
   175   89   90 1    
   176   89  210 1    
   177   90   91 1    
   178   90   92 1    
   179   90  211 1    
   180   91  212 1    
   181   91  213 1    
   182   91  214 1    
   183   92   93 2    
   184   92   94 am   BACKBONE|DICT|INTERRES
   185   94   95 1    
   186   94  215 1    
   187   95   96 1    
   188   95   97 1    
   189   95  216 1    
   190   96  217 1    
   191   96  218 1    
   192   96  219 1    
   193   97   98 2    
   194   97   99 am   BACKBONE|DICT|INTERRES
   195   99  100 1    
   196   99  220 1    
   197  100  101 1    
   198  100  102 1    
   199  100  221 1    
   200  101  222 1    
   201  101  223 1    
   202  101  224 1    
   203  102  103 2    
   204  102  104 am   BACKBONE|DICT|INTERRES
   205  104  105 1    
   206  104  225 1    
   207  105  106 1    
   208  105  107 1    
   209  105  226 1    
   210  106  227 1    
   211  106  228 1    
   212  106  229 1    
   213  107  108 2    
   214  107  109 am   BACKBONE|DICT|INTERRES
   215  109  110 1    
   216  109  230 1    
   217  110  111 1    
   218  110  112 1    
   219  110  231 1    
   220  111  232 1    
   221  111  233 1    
   222  111  234 1    
   223  112  113 2    
   224  112  114 am   BACKBONE|DICT|INTERRES
   225  114  115 1    
   226  114  235 1    
   227  115  116 1    
   228  115  117 1    
   229  115  236 1    
   230  116  237 1    
   231  116  238 1    
   232  116  239 1    
   233  117  118 2    
   234  117  119 am   BACKBONE|DICT|INTERRES
   235  119  120 1    
   236  119  240 1    
   237  120  121 1    
   238  120  124 1    
   239  120  241 1    
   240  121  122 am   BACKBONE|DICT|INTERRES
   241  121  123 2    
   242  122  242 1    
   243  122  243 1    
   244  124  125 1    
   245  124  244 1    
   246  124  245 1    
   247  125  126 1    
   248  126  246 1    
   249  126  247 1    
@<TRIPOS>SUBSTRUCTURE
     1 UNK         1 GROUP             0       ****    0 ROOT    
