@<TRIPOS>MOLECULE
3R540
247   249    1
SMALL
USER_CHARGES


@<TRIPOS>ATOM
      1 CA          4.1078  -11.3675  -47.9173 C.3       0 UNK        -0.1800 
      2 C           3.7946  -11.2746  -49.4093 C.2       0 UNK         0.5000 
      3 O           3.9201  -10.1955  -49.9838 O.2       0 UNK        -0.5000 
      4 N           3.3985  -12.3625  -50.0855 N.am      1 UNK        -0.5000 
      5 CA          3.1133  -13.6925  -49.5373 C.3       1 UNK         0.1400 
      6 C6          3.2179  -14.7836  -50.6359 C.3       23 UNK        -0.0398 
      7 S7          2.7014  -16.4601  -50.1167 S.3       23 UNK        -0.2404 
      8 C8          1.2614  -16.7007  -51.2052 C.3       23 UNK        -0.0205 
      9 C9          0.4537  -17.9368  -50.8426 C.ar      23 UNK        -0.0193 
     10 C10        -0.9032  -17.8196  -50.5316 C.ar      23 UNK        -0.1150 
     11 C11        -1.6708  -18.9508  -50.2479 C.ar      23 UNK        -0.0193 
     12 C12        -1.0616  -20.2104  -50.2495 C.ar      23 UNK        -0.1150 
     13 C13         0.2977  -20.3431  -50.5558 C.ar      23 UNK        -0.0193 
     14 C14         1.0452  -19.2028  -50.8625 C.ar      23 UNK        -0.1150 
     15 C15         0.9482  -21.7211  -50.5999 C.3       23 UNK        -0.0205 
     16 S16         2.3694  -21.8990  -49.4629 S.3       23 UNK        -0.2404 
     17 C17         1.6494  -21.4650  -47.8415 C.3       23 UNK        -0.0398 
     18 CA          1.1421  -22.6773  -47.0231 C.3       11 UNK         0.1400 
     19 N           0.8604  -22.3102  -45.6337 N.am      11 UNK        -0.5000 
     20 C           0.4952  -23.1586  -44.6619 C.2       10 UNK         0.5000 
     21 O           0.4416  -24.3803  -44.8019 O.2       10 UNK        -0.5000 
     22 CA          0.0513  -22.5287  -43.3282 C.3       10 UNK         0.1400 
     23 CB          1.2608  -22.1721  -42.4517 C.3       10 UNK        -0.1800 
     24 N          -0.7895  -21.3456  -43.5272 N.am      10 UNK        -0.5000 
     25 C          -1.9998  -21.3764  -44.1056 C.2       9 UNK         0.5000 
     26 O          -2.5575  -22.4151  -44.4601 O.2       9 UNK        -0.5000 
     27 CA         -2.6864  -20.0248  -44.3726 C.3       9 UNK         0.1400 
     28 CB         -3.4165  -19.5321  -43.1149 C.3       9 UNK        -0.1800 
     29 N          -1.7569  -18.9971  -44.8461 N.am      9 UNK        -0.5000 
     30 C          -1.0934  -19.0579  -46.0102 C.2       8 UNK         0.5000 
     31 O          -1.2344  -19.9760  -46.8149 O.2       8 UNK        -0.5000 
     32 CA         -0.0437  -17.9623  -46.2871 C.3       8 UNK         0.1400 
     33 CB         -0.6844  -16.6583  -46.7807 C.3       8 UNK        -0.1800 
     34 N           0.7687  -17.6732  -45.1089 N.am      8 UNK        -0.5000 
     35 C           1.5994  -18.5421  -44.5206 C.2       7 UNK         0.5000 
     36 O           1.8028  -19.6828  -44.9341 O.2       7 UNK        -0.5000 
     37 CA          2.2801  -18.0685  -43.2267 C.3       7 UNK         0.1400 
     38 CB          3.5368  -17.2415  -43.5386 C.3       7 UNK        -0.1800 
     39 N           1.3674  -17.2835  -42.3957 N.am      7 UNK        -0.5000 
     40 C           0.3393  -17.8005  -41.7094 C.2       6 UNK         0.5000 
     41 O           0.0742  -19.0029  -41.6779 O.2       6 UNK        -0.5000 
     42 CA         -0.5623  -16.7992  -40.9624 C.3       6 UNK         0.1400 
     43 CB          0.0715  -16.3893  -39.6246 C.3       6 UNK        -0.1800 
     44 N          -0.8542  -15.5996  -41.7511 N.am      6 UNK        -0.5000 
     45 C          -1.5969  -15.6002  -42.8664 C.2       5 UNK         0.5000 
     46 O          -2.1242  -16.6085  -43.3305 O.2       5 UNK        -0.5000 
     47 CA         -1.7552  -14.2648  -43.6151 C.3       5 UNK         0.1400 
     48 CB         -2.9377  -13.4663  -43.0476 C.3       5 UNK        -0.1800 
     49 N          -0.5656  -13.4100  -43.6380 N.am      5 UNK        -0.5000 
     50 C           0.6621  -13.7732  -44.0325 C.2       4 UNK         0.5000 
     51 O           0.9955  -14.9354  -44.2646 O.2       4 UNK        -0.5000 
     52 CA          1.6512  -12.6205  -44.2640 C.3       4 UNK         0.1400 
     53 CB          3.0941  -13.1070  -44.4916 C.3       4 UNK        -0.1800 
     54 N           1.2045  -11.8796  -45.4404 N.am      4 UNK        -0.5000 
     55 C           0.4108  -10.7996  -45.4177 C.2       3 UNK         0.5000 
     56 O           0.0406  -10.2539  -44.3776 O.2       3 UNK        -0.5000 
     57 CA         -0.0785  -10.2474  -46.7730 C.3       3 UNK         0.1400 
     58 CB          0.8012   -9.0710  -47.2231 C.3       3 UNK        -0.1800 
     59 N          -0.1070  -11.2530  -47.8366 N.am      3 UNK        -0.5000 
     60 C          -0.9400  -12.3031  -47.8850 C.2       2 UNK         0.5000 
     61 O          -1.8429  -12.4970  -47.0712 O.2       2 UNK        -0.5000 
     62 CA         -0.6992  -13.3272  -49.0142 C.3       2 UNK         0.1400 
     63 CB         -1.6751  -13.1023  -50.1797 C.3       2 UNK        -0.1800 
     64 N           0.6765  -13.3370  -49.5300 N.am      2 UNK        -0.5000 
     65 C           1.7549  -13.6779  -48.8072 C.2       1 UNK         0.5000 
     66 O           1.7164  -13.9167  -47.6017 O.2       1 UNK        -0.5000 
     67 C          -0.0809  -23.3442  -47.6835 C.2       11 UNK         0.5000 
     68 O           0.0596  -24.4255  -48.2524 O.2       11 UNK        -0.5000 
     69 N          -1.2582  -22.7123  -47.5662 N.am      12 UNK        -0.5000 
     70 CA         -2.5274  -23.2071  -48.1016 C.3       12 UNK         0.1400 
     71 CB         -3.6349  -22.1720  -47.8539 C.3       12 UNK        -0.1800 
     72 C          -2.9302  -24.5754  -47.5271 C.2       12 UNK         0.5000 
     73 O          -3.3795  -25.4387  -48.2797 O.2       12 UNK        -0.5000 
     74 N          -2.7285  -24.7595  -46.2153 N.am      13 UNK        -0.5000 
     75 CA         -2.9490  -26.0214  -45.5117 C.3       13 UNK         0.1400 
     76 CB         -2.8503  -25.7884  -43.9965 C.3       13 UNK        -0.1800 
     77 C          -1.9798  -27.1300  -45.9625 C.2       13 UNK         0.5000 
     78 O          -2.4162  -28.2617  -46.1739 O.2       13 UNK        -0.5000 
     79 N          -0.6939  -26.7851  -46.1208 N.am      14 UNK        -0.5000 
     80 CA          0.3605  -27.6940  -46.5745 C.3       14 UNK         0.1400 
     81 CB          1.7333  -27.0423  -46.3467 C.3       14 UNK        -0.1800 
     82 C           0.1949  -28.1190  -48.0453 C.2       14 UNK         0.5000 
     83 O           0.3517  -29.2998  -48.3586 O.2       14 UNK        -0.5000 
     84 N          -0.1303  -27.1548  -48.9161 N.am      15 UNK        -0.5000 
     85 CA         -0.3751  -27.3660  -50.3442 C.3       15 UNK         0.1400 
     86 CB         -0.2814  -26.0132  -51.0677 C.3       15 UNK        -0.1800 
     87 C          -1.7321  -28.0348  -50.6376 C.2       15 UNK         0.5000 
     88 O          -1.8953  -28.6156  -51.7111 O.2       15 UNK        -0.5000 
     89 N          -2.6764  -27.9206  -49.6919 N.am      16 UNK        -0.5000 
     90 CA         -4.0757  -28.3576  -49.7536 C.3       16 UNK         0.1400 
     91 CB         -4.1782  -29.8900  -49.8998 C.3       16 UNK        -0.1800 
     92 C          -4.9066  -27.5895  -50.8062 C.2       16 UNK         0.5000 
     93 O          -5.9206  -28.1006  -51.2852 O.2       16 UNK        -0.5000 
     94 N          -4.4716  -26.3680  -51.1331 N.am      17 UNK        -0.5000 
     95 CA         -5.0765  -25.4438  -52.0833 C.3       17 UNK         0.1400 
     96 CB         -4.8715  -25.9379  -53.5276 C.3       17 UNK        -0.1800 
     97 C          -4.4186  -24.0728  -51.8866 C.2       17 UNK         0.5000 
     98 O          -3.2348  -24.0091  -51.5467 O.2       17 UNK        -0.5000 
     99 N          -5.1837  -23.0002  -52.1117 N.am      18 UNK        -0.5000 
    100 CA        -4.6940  -21.6269  -52.0408 C.3       18 UNK         0.1400 
    101 CB        -5.8681  -20.6862  -51.7254 C.3       18 UNK        -0.1800 
    102 C         -4.0058  -21.2336  -53.3587 C.2       18 UNK         0.5000 
    103 O         -4.6271  -21.3370  -54.4184 O.2       18 UNK        -0.5000 
    104 N         -2.7464  -20.7875  -53.2714 N.am      19 UNK        -0.5000 
    105 CA        -1.9425  -20.3623  -54.4217 C.3       19 UNK         0.1400 
    106 CB        -0.4661  -20.6763  -54.1359 C.3       19 UNK        -0.1800 
    107 C         -2.1134  -18.8673  -54.7585 C.2       19 UNK         0.5000 
    108 O         -1.6925  -18.4437  -55.8359 O.2       19 UNK        -0.5000 
    109 N         -2.7117  -18.0947  -53.8445 N.am      20 UNK        -0.5000 
    110 CA        -2.9716  -16.6640  -53.9741 C.3       20 UNK         0.1400 
    111 CB        -1.7020  -15.8523  -53.6388 C.3       20 UNK        -0.1800 
    112 C         -4.1868  -16.2858  -53.1078 C.2       20 UNK         0.5000 
    113 O         -4.9783  -17.1600  -52.7440 O.2       20 UNK        -0.5000 
    114 N         -4.3288  -14.9898  -52.8070 N.am      21 UNK        -0.5000 
    115 CA        -5.4692  -14.3720  -52.1268 C.3       21 UNK         0.1400 
    116 CB        -5.4492  -12.8630  -52.4345 C.3       21 UNK        -0.1800 
    117 C         -5.5489  -14.6640  -50.6097 C.2       21 UNK         0.5000 
    118 O         -5.5693  -13.7311  -49.8045 O.2       21 UNK        -0.5000 
    119 N         -5.6258  -15.9484  -50.2428 N.am      22 UNK        -0.5000 
    120 CA        -5.9376  -16.4047  -48.8739 C.3       22 UNK         0.1400 
    121 C         -7.4530  -16.3356  -48.5161 C.2       22 UNK         0.5000 
    122 N         -8.3577  -16.1106  -49.4619 N.am      22 UNK        -0.7600 
    123 O         -7.8160  -16.4790  -47.3520 O.2       22 UNK        -0.5000 
    124 C124       -5.3739  -17.8182  -48.5794 C.3       23 UNK        -0.0398 
    125 S125       -3.5538  -17.8372  -48.5248 S.3       23 UNK        -0.2404 
    126 C126       -3.1665  -18.8074  -50.0064 C.3       23 UNK        -0.0205 
    127 H127        4.5099  -10.4220  -47.5528 H         1 UNK         0.0600 
    128 H128        4.8512  -12.1387  -47.7179 H         1 UNK         0.0600 
    129 H129        3.2106  -11.5861  -47.3426 H         1 UNK         0.0600 
    130 H130        3.2262  -12.2591  -51.0753 H         1 UNK         0.3000 
    131 H131        3.8726  -13.9337  -48.7914 H         1 UNK         0.0600 
    132 H132        4.2524  -14.8507  -50.9753 H         1 UNK         0.0800 
    133 H133        2.6452  -14.4884  -51.5164 H         1 UNK         0.0800 
    134 H134        0.6293  -15.8130  -51.1577 H         1 UNK         0.0800 
    135 H135        1.5993  -16.7881  -52.2387 H         1 UNK         0.0800 
    136 H136       -1.3746  -16.8476  -50.5195 H         1 UNK         0.1150 
    137 H137       -1.6466  -21.0902  -50.0258 H         1 UNK         0.1150 
    138 H138        2.0913  -19.3009  -51.1163 H         1 UNK         0.1150 
    139 H139        0.2166  -22.5028  -50.3929 H         1 UNK         0.0800 
    140 H140        1.2973  -21.9053  -51.6166 H         1 UNK         0.0800 
    141 H141        0.8703  -20.7168  -47.9707 H         1 UNK         0.0800 
    142 H142        2.4386  -20.9618  -47.2817 H         1 UNK         0.0800 
    143 H143        1.9420  -23.4200  -46.9925 H         1 UNK         0.0600 
    144 H144        0.9306  -21.3217  -45.4079 H         1 UNK         0.3000 
    145 H145       -0.5432  -23.2725  -42.7934 H         1 UNK         0.0600 
    146 H146        0.9445  -21.7775  -41.4859 H         1 UNK         0.0600 
    147 H147        1.8740  -23.0532  -42.2586 H         1 UNK         0.0600 
    148 H148        1.8995  -21.4263  -42.9237 H         1 UNK         0.0600 
    149 H149       -0.4123  -20.4563  -43.2216 H         1 UNK         0.3000 
    150 H150       -3.4313  -20.1823  -45.1554 H         1 UNK         0.0600 
    151 H151       -4.1073  -20.2889  -42.7411 H         1 UNK         0.0600 
    152 H152       -4.0004  -18.6361  -43.3256 H         1 UNK         0.0600 
    153 H153       -2.7184  -19.2961  -42.3110 H         1 UNK         0.0600 
    154 H154       -1.6418  -18.1815  -44.2503 H         1 UNK         0.3000 
    155 H155        0.6277  -18.3239  -47.0689 H         1 UNK         0.0600 
    156 H156        0.0340  -15.8391  -46.7837 H         1 UNK         0.0600 
    157 H157       -1.0377  -16.7694  -47.8038 H         1 UNK         0.0600 
    158 H158       -1.5312  -16.3590  -46.1632 H         1 UNK         0.0600 
    159 H159        0.7066  -16.7319  -44.7282 H         1 UNK         0.3000 
    160 H160        2.5865  -18.9528  -42.6639 H         1 UNK         0.0600 
    161 H161        3.3006  -16.3435  -44.1102 H         1 UNK         0.0600 
    162 H162        4.2486  -17.8239  -44.1248 H         1 UNK         0.0600 
    163 H163        4.0434  -16.9335  -42.6239 H         1 UNK         0.0600 
    164 H164        1.4590  -16.2786  -42.4510 H         1 UNK         0.3000 
    165 H165       -1.5080  -17.3023  -40.7489 H         1 UNK         0.0600 
    166 H166       -0.5981  -15.7478  -39.0516 H         1 UNK         0.0600 
    167 H167        0.2857  -17.2650  -39.0103 H         1 UNK         0.0600 
    168 H168        1.0097  -15.8522  -39.7693 H         1 UNK         0.0600 
    169 H169       -0.4464  -14.7300  -41.4409 H         1 UNK         0.3000 
    170 H170       -1.9847  -14.5060  -44.6547 H         1 UNK         0.0600 
    171 H171       -3.8477  -14.0679  -43.0376 H         1 UNK         0.0600 
    172 H172       -2.7481  -13.1389  -42.0246 H         1 UNK         0.0600 
    173 H173       -3.1420  -12.5822  -43.6520 H         1 UNK         0.0600 
    174 H174       -0.7314  -12.4237  -43.4909 H         1 UNK         0.3000 
    175 H175        1.6469  -11.9814  -43.3787 H         1 UNK         0.0600 
    176 H176        3.4588  -13.6601  -43.6254 H         1 UNK         0.0600 
    177 H177        3.1715  -13.7662  -45.3568 H         1 UNK         0.0600 
    178 H178        3.7708  -12.2676  -44.6513 H         1 UNK         0.0600 
    179 H179        1.3769  -12.3417  -46.3265 H         1 UNK         0.3000 
    180 H180       -1.0961   -9.8785  -46.6289 H         1 UNK         0.0600 
    181 H181        1.8321   -9.3803  -47.3982 H         1 UNK         0.0600 
    182 H182        0.8192   -8.2854  -46.4665 H         1 UNK         0.0600 
    183 H183        0.4235   -8.6248  -48.1432 H         1 UNK         0.0600 
    184 H184        0.5910  -11.1688  -48.5600 H         1 UNK         0.3000 
    185 H185       -0.9011  -14.3152  -48.5964 H         1 UNK         0.0600 
    186 H186       -2.7087  -13.1122  -49.8305 H         1 UNK         0.0600 
    187 H187       -1.5034  -12.1433  -50.6698 H         1 UNK         0.0600 
    188 H188       -1.5822  -13.8873  -50.9301 H         1 UNK         0.0600 
    189 H189        0.7925  -13.1009  -50.5043 H         1 UNK         0.3000 
    190 H190       -1.2794  -21.7965  -47.1213 H         1 UNK         0.3000 
    191 H191       -2.3957  -23.3204  -49.1781 H         1 UNK         0.0600 
    192 H192       -3.9051  -22.1132  -46.7996 H         1 UNK         0.0600 
    193 H193       -4.5368  -22.4276  -48.4112 H         1 UNK         0.0600 
    194 H194       -3.3256  -21.1762  -48.1642 H         1 UNK         0.0600 
    195 H195       -2.4086  -23.9730  -45.6574 H         1 UNK         0.3000 
    196 H196       -3.9639  -26.3557  -45.7368 H         1 UNK         0.0600 
    197 H197       -3.0338  -26.7119  -43.4462 H         1 UNK         0.0600 
    198 H198       -3.5870  -25.0576  -43.6622 H         1 UNK         0.0600 
    199 H199       -1.8646  -25.4232  -43.7074 H         1 UNK         0.0600 
    200 H200       -0.4078  -25.8382  -45.8906 H         1 UNK         0.3000 
    201 H201        0.3113  -28.5965  -45.9617 H         1 UNK         0.0600 
    202 H202        1.8930  -26.8208  -45.2914 H         1 UNK         0.0600 
    203 H203        1.8341  -26.1092  -46.9018 H         1 UNK         0.0600 
    204 H204        2.5389  -27.7045  -46.6661 H         1 UNK         0.0600 
    205 H205       -0.1835  -26.1920  -48.5856 H         1 UNK         0.3000 
    206 H206        0.4068  -28.0187  -50.7377 H         1 UNK         0.0600 
    207 H207        0.7032  -25.5634  -50.9383 H         1 UNK         0.0600 
    208 H208       -0.4517  -26.1252  -52.1392 H         1 UNK         0.0600 
    209 H209       -1.0211  -25.3066  -50.6897 H         1 UNK         0.0600 
    210 H210       -2.4459  -27.3676  -48.8757 H         1 UNK         0.3000 
    211 H211       -4.5069  -28.0943  -48.7867 H         1 UNK         0.0600 
    212 H212       -3.8460  -30.2285  -50.8814 H         1 UNK         0.0600 
    213 H213       -5.2076  -30.2263  -49.7715 H         1 UNK         0.0600 
    214 H214       -3.5760  -30.3981  -49.1465 H         1 UNK         0.0600 
    215 H215       -3.6598  -25.9958  -50.6529 H         1 UNK         0.3000 
    216 H216       -6.1435  -25.3628  -51.8667 H         1 UNK         0.0600 
    217 H217       -3.8136  -26.0739  -53.7561 H         1 UNK         0.0600 
    218 H218       -5.2745  -25.2234  -54.2465 H         1 UNK         0.0600 
    219 H219       -5.3755  -26.8884  -53.7017 H         1 UNK         0.0600 
    220 H220       -6.1313  -23.1238  -52.4384 H         1 UNK         0.3000 
    221 H221       -3.9717  -21.5566  -51.2264 H         1 UNK         0.0600 
    222 H222       -6.3040  -20.9134  -50.7523 H         1 UNK         0.0600 
    223 H223       -6.6583  -20.7625  -52.4733 H         1 UNK         0.0600 
    224 H224       -5.5453  -19.6456  -51.7026 H         1 UNK         0.0600 
    225 H225       -2.2863  -20.7550  -52.3734 H         1 UNK         0.3000 
    226 H226       -2.2401  -20.9346  -55.3030 H         1 UNK         0.0600 
    227 H227        0.1480  -20.4930  -55.0183 H         1 UNK         0.0600 
    228 H228       -0.0731  -20.0525  -53.3343 H         1 UNK         0.0600 
    229 H229       -0.3267  -21.7202  -53.8542 H         1 UNK         0.0600 
    230 H230       -3.1109  -18.5285  -53.0255 H         1 UNK         0.3000 
    231 H231       -3.2543  -16.4567  -55.0082 H         1 UNK         0.0600 
    232 H232       -1.4655  -15.8948  -52.5778 H         1 UNK         0.0600 
    233 H233       -1.8187  -14.8024  -53.9083 H         1 UNK         0.0600 
    234 H234       -0.8350  -16.2222  -54.1862 H         1 UNK         0.0600 
    235 H235       -3.6128  -14.3508  -53.1191 H         1 UNK         0.3000 
    236 H236       -6.3813  -14.7796  -52.5676 H         1 UNK         0.0600 
    237 H237       -5.4780  -12.6781  -53.5085 H         1 UNK         0.0600 
    238 H238       -6.3148  -12.3611  -52.0001 H         1 UNK         0.0600 
    239 H239       -4.5549  -12.3830  -52.0347 H         1 UNK         0.0600 
    240 H240       -5.5678  -16.6543  -50.9700 H         1 UNK         0.3000 
    241 H241       -5.4517  -15.7192  -48.1766 H         1 UNK         0.0600 
    242 H242       -9.3332  -16.0636  -49.2116 H         1 UNK         0.3800 
    243 H243       -8.0829  -15.9979  -50.4238 H         1 UNK         0.3800 
    244 H244       -5.7435  -18.5401  -49.3090 H         1 UNK         0.0800 
    245 H245       -5.7131  -18.1757  -47.6054 H         1 UNK         0.0800 
    246 H246       -3.6173  -18.3246  -50.8703 H         1 UNK         0.0800 
    247 H247       -3.6390  -19.7813  -49.9084 H         1 UNK         0.0800 
@<TRIPOS>BOND
     1    1    2 1    
     2    1  127 1    
     3    1  128 1    
     4    1  129 1    
     5    2    3 2    
     6    2    4 am   BACKBONE|DICT|INTERRES
     7    4    5 1    
     8    4  130 1    
     9    5    6 1    
    10    5   65 1    
    11    5  131 1    
    12    6    7 1    
    13    6  132 1    
    14    6  133 1    
    15    7    8 1    
    16    8    9 1    
    17    8  134 1    
    18    8  135 1    
    19    9   10 ar   
    20    9   14 ar   
    21   10   11 ar   
    22   10  136 1    
    23   11   12 ar   
    24   11  126 1    
    25   12   13 ar   
    26   12  137 1    
    27   13   14 ar   
    28   13   15 1    
    29   14  138 1    
    30   15   16 1    
    31   15  139 1    
    32   15  140 1    
    33   16   17 1    
    34   17   18 1    
    35   17  141 1    
    36   17  142 1    
    37   18   19 1    
    38   18   67 1    
    39   18  143 1    
    40   19   20 am   BACKBONE|DICT|INTERRES
    41   19  144 1    
    42   20   21 2    
    43   20   22 1    
    44   22   23 1    
    45   22   24 1    
    46   22  145 1    
    47   23  146 1    
    48   23  147 1    
    49   23  148 1    
    50   24   25 am   BACKBONE|DICT|INTERRES
    51   24  149 1    
    52   25   26 2    
    53   25   27 1    
    54   27   28 1    
    55   27   29 1    
    56   27  150 1    
    57   28  151 1    
    58   28  152 1    
    59   28  153 1    
    60   29   30 am   BACKBONE|DICT|INTERRES
    61   29  154 1    
    62   30   31 2    
    63   30   32 1    
    64   32   33 1    
    65   32   34 1    
    66   32  155 1    
    67   33  156 1    
    68   33  157 1    
    69   33  158 1    
    70   34   35 am   BACKBONE|DICT|INTERRES
    71   34  159 1    
    72   35   36 2    
    73   35   37 1    
    74   37   38 1    
    75   37   39 1    
    76   37  160 1    
    77   38  161 1    
    78   38  162 1    
    79   38  163 1    
    80   39   40 am   BACKBONE|DICT|INTERRES
    81   39  164 1    
    82   40   41 2    
    83   40   42 1    
    84   42   43 1    
    85   42   44 1    
    86   42  165 1    
    87   43  166 1    
    88   43  167 1    
    89   43  168 1    
    90   44   45 am   BACKBONE|DICT|INTERRES
    91   44  169 1    
    92   45   46 2    
    93   45   47 1    
    94   47   48 1    
    95   47   49 1    
    96   47  170 1    
    97   48  171 1    
    98   48  172 1    
    99   48  173 1    
   100   49   50 am   BACKBONE|DICT|INTERRES
   101   49  174 1    
   102   50   51 2    
   103   50   52 1    
   104   52   53 1    
   105   52   54 1    
   106   52  175 1    
   107   53  176 1    
   108   53  177 1    
   109   53  178 1    
   110   54   55 am   BACKBONE|DICT|INTERRES
   111   54  179 1    
   112   55   56 2    
   113   55   57 1    
   114   57   58 1    
   115   57   59 1    
   116   57  180 1    
   117   58  181 1    
   118   58  182 1    
   119   58  183 1    
   120   59   60 am   BACKBONE|DICT|INTERRES
   121   59  184 1    
   122   60   61 2    
   123   60   62 1    
   124   62   63 1    
   125   62   64 1    
   126   62  185 1    
   127   63  186 1    
   128   63  187 1    
   129   63  188 1    
   130   64   65 am   BACKBONE|DICT|INTERRES
   131   64  189 1    
   132   65   66 2    
   133   67   68 2    
   134   67   69 am   BACKBONE|DICT|INTERRES
   135   69   70 1    
   136   69  190 1    
   137   70   71 1    
   138   70   72 1    
   139   70  191 1    
   140   71  192 1    
   141   71  193 1    
   142   71  194 1    
   143   72   73 2    
   144   72   74 am   BACKBONE|DICT|INTERRES
   145   74   75 1    
   146   74  195 1    
   147   75   76 1    
   148   75   77 1    
   149   75  196 1    
   150   76  197 1    
   151   76  198 1    
   152   76  199 1    
   153   77   78 2    
   154   77   79 am   BACKBONE|DICT|INTERRES
   155   79   80 1    
   156   79  200 1    
   157   80   81 1    
   158   80   82 1    
   159   80  201 1    
   160   81  202 1    
   161   81  203 1    
   162   81  204 1    
   163   82   83 2    
   164   82   84 am   BACKBONE|DICT|INTERRES
   165   84   85 1    
   166   84  205 1    
   167   85   86 1    
   168   85   87 1    
   169   85  206 1    
   170   86  207 1    
   171   86  208 1    
   172   86  209 1    
   173   87   88 2    
   174   87   89 am   BACKBONE|DICT|INTERRES
   175   89   90 1    
   176   89  210 1    
   177   90   91 1    
   178   90   92 1    
   179   90  211 1    
   180   91  212 1    
   181   91  213 1    
   182   91  214 1    
   183   92   93 2    
   184   92   94 am   BACKBONE|DICT|INTERRES
   185   94   95 1    
   186   94  215 1    
   187   95   96 1    
   188   95   97 1    
   189   95  216 1    
   190   96  217 1    
   191   96  218 1    
   192   96  219 1    
   193   97   98 2    
   194   97   99 am   BACKBONE|DICT|INTERRES
   195   99  100 1    
   196   99  220 1    
   197  100  101 1    
   198  100  102 1    
   199  100  221 1    
   200  101  222 1    
   201  101  223 1    
   202  101  224 1    
   203  102  103 2    
   204  102  104 am   BACKBONE|DICT|INTERRES
   205  104  105 1    
   206  104  225 1    
   207  105  106 1    
   208  105  107 1    
   209  105  226 1    
   210  106  227 1    
   211  106  228 1    
   212  106  229 1    
   213  107  108 2    
   214  107  109 am   BACKBONE|DICT|INTERRES
   215  109  110 1    
   216  109  230 1    
   217  110  111 1    
   218  110  112 1    
   219  110  231 1    
   220  111  232 1    
   221  111  233 1    
   222  111  234 1    
   223  112  113 2    
   224  112  114 am   BACKBONE|DICT|INTERRES
   225  114  115 1    
   226  114  235 1    
   227  115  116 1    
   228  115  117 1    
   229  115  236 1    
   230  116  237 1    
   231  116  238 1    
   232  116  239 1    
   233  117  118 2    
   234  117  119 am   BACKBONE|DICT|INTERRES
   235  119  120 1    
   236  119  240 1    
   237  120  121 1    
   238  120  124 1    
   239  120  241 1    
   240  121  122 am   BACKBONE|DICT|INTERRES
   241  121  123 2    
   242  122  242 1    
   243  122  243 1    
   244  124  125 1    
   245  124  244 1    
   246  124  245 1    
   247  125  126 1    
   248  126  246 1    
   249  126  247 1    
@<TRIPOS>SUBSTRUCTURE
     1 UNK         1 GROUP             0       ****    0 ROOT    
