@<TRIPOS>MOLECULE
3R540
247   249    1
SMALL
USER_CHARGES


@<TRIPOS>ATOM
      1 CA         -5.9420  -13.9189  -49.4806 C.3       0 UNK        -0.1800 
      2 C          -4.7621  -13.1651  -50.0771 C.2       0 UNK         0.5000 
      3 O          -4.9199  -12.0123  -50.4782 O.2       0 UNK        -0.5000 
      4 N          -3.5891  -13.8114  -50.1382 N.am      1 UNK        -0.5000 
      5 CA         -2.3164  -13.2442  -50.6001 C.3       1 UNK         0.1400 
      6 C6         -1.2168  -14.3407  -50.6464 C.3       23 UNK        -0.0398 
      7 S7          0.4337  -13.7619  -51.1818 S.3       23 UNK        -0.2404 
      8 C8          1.5195  -14.5039  -49.9168 C.3       23 UNK        -0.0205 
      9 C9          1.6690  -16.0042  -50.1262 C.ar      23 UNK        -0.0193 
     10 C10         2.4124  -16.4836  -51.2067 C.ar      23 UNK        -0.1150 
     11 C11         2.5003  -17.8548  -51.4575 C.ar      23 UNK        -0.0193 
     12 C12         1.8565  -18.7538  -50.6005 C.ar      23 UNK        -0.1150 
     13 C13         1.1322  -18.2905  -49.4964 C.ar      23 UNK        -0.0193 
     14 C14         1.0484  -16.9132  -49.2647 C.ar      23 UNK        -0.1150 
     15 C15         0.3964  -19.2642  -48.5824 C.3       23 UNK        -0.0205 
     16 S16         1.5074  -20.1025  -47.4042 S.3       23 UNK        -0.2404 
     17 C17         1.8618  -21.6745  -48.2776 C.3       23 UNK        -0.0398 
     18 CA          1.0824  -22.9108  -47.7541 C.3       11 UNK         0.1400 
     19 N           1.3364  -23.1910  -46.3370 N.am      11 UNK        -0.5000 
     20 C           0.9734  -24.3247  -45.7186 C.2       10 UNK         0.5000 
     21 O           0.3974  -25.2562  -46.2790 O.2       10 UNK        -0.5000 
     22 CA          1.2650  -24.4245  -44.2130 C.3       10 UNK         0.1400 
     23 CB          2.7222  -24.8440  -43.9701 C.3       10 UNK        -0.1800 
     24 N           0.9890  -23.1930  -43.4753 N.am      10 UNK        -0.5000 
     25 C          -0.1907  -22.5669  -43.3941 C.2       9 UNK         0.5000 
     26 O          -1.1907  -22.9151  -44.0206 O.2       9 UNK        -0.5000 
     27 CA         -0.2744  -21.3445  -42.4624 C.3       9 UNK         0.1400 
     28 CB         -0.4200  -21.7773  -40.9919 C.3       9 UNK        -0.1800 
     29 N           0.8111  -20.3715  -42.6304 N.am      9 UNK        -0.5000 
     30 C           2.1228  -20.5015  -42.3797 C.2       8 UNK         0.5000 
     31 O           2.6532  -21.5342  -41.9679 O.2       8 UNK        -0.5000 
     32 CA          2.9896  -19.2581  -42.6346 C.3       8 UNK         0.1400 
     33 CB          3.2825  -19.1065  -44.1348 C.3       8 UNK        -0.1800 
     34 N           2.3586  -18.0397  -42.1279 N.am      8 UNK        -0.5000 
     35 C           2.2220  -17.7467  -40.8261 C.2       7 UNK         0.5000 
     36 O           2.6850  -18.4362  -39.9165 O.2       7 UNK        -0.5000 
     37 CA          1.4188  -16.4801  -40.4782 C.3       7 UNK         0.1400 
     38 CB          2.2775  -15.2207  -40.6639 C.3       7 UNK        -0.1800 
     39 N           0.1907  -16.3613  -41.2645 N.am      7 UNK        -0.5000 
     40 C          -0.8625  -17.1845  -41.1555 C.2       6 UNK         0.5000 
     41 O          -0.9286  -18.1118  -40.3489 O.2       6 UNK        -0.5000 
     42 CA         -2.0377  -16.9394  -42.1172 C.3       6 UNK         0.1400 
     43 CB         -3.0056  -15.8936  -41.5428 C.3       6 UNK        -0.1800 
     44 N          -1.5883  -16.5082  -43.4389 N.am      6 UNK        -0.5000 
     45 C          -1.0164  -17.3124  -44.3448 C.2       5 UNK         0.5000 
     46 O          -0.8247  -18.5157  -44.1756 O.2       5 UNK        -0.5000 
     47 CA         -0.5474  -16.6417  -45.6458 C.3       5 UNK         0.1400 
     48 CB         -1.7431  -16.4252  -46.5894 C.3       5 UNK        -0.1800 
     49 N           0.1273  -15.3656  -45.3968 N.am      5 UNK        -0.5000 
     50 C           1.2907  -15.2461  -44.7348 C.2       4 UNK         0.5000 
     51 O           1.9240  -16.2040  -44.2963 O.2       4 UNK        -0.5000 
     52 CA          1.8249  -13.8242  -44.4720 C.3       4 UNK         0.1400 
     53 CB          2.7483  -13.3878  -45.6192 C.3       4 UNK        -0.1800 
     54 N           0.7748  -12.8230  -44.2976 N.am      4 UNK        -0.5000 
     55 C          -0.2257  -12.8680  -43.4049 C.2       3 UNK         0.5000 
     56 O          -0.3206  -13.7267  -42.5277 O.2       3 UNK        -0.5000 
     57 CA         -1.3456  -11.8175  -43.5736 C.3       3 UNK         0.1400 
     58 CB         -1.1572  -10.6668  -42.5746 C.3       3 UNK        -0.1800 
     59 N          -1.4328  -11.2678  -44.9349 N.am      3 UNK        -0.5000 
     60 C          -1.6560  -11.9957  -46.0384 C.2       2 UNK         0.5000 
     61 O          -1.8965  -13.2073  -46.0159 O.2       2 UNK        -0.5000 
     62 CA         -1.4869  -11.2787  -47.3859 C.3       2 UNK         0.1400 
     63 CB         -0.0169  -10.8382  -47.5718 C.3       2 UNK        -0.1800 
     64 N          -1.8779  -12.2231  -48.4258 N.am      2 UNK        -0.5000 
     65 C          -1.9017  -12.0241  -49.7470 C.2       1 UNK         0.5000 
     66 O          -1.6440  -10.9493  -50.2921 O.2       1 UNK        -0.5000 
     67 C          -0.4275  -22.8233  -48.0574 C.2       11 UNK         0.5000 
     68 O          -0.8944  -23.4205  -49.0280 O.2       11 UNK        -0.5000 
     69 N          -1.1615  -22.1139  -47.1889 N.am      12 UNK        -0.5000 
     70 CA         -2.6045  -21.9259  -47.2846 C.3       12 UNK         0.1400 
     71 CB         -3.0432  -20.8112  -46.3225 C.3       12 UNK        -0.1800 
     72 C          -3.3753  -23.2289  -47.0215 C.2       12 UNK         0.5000 
     73 O          -4.3359  -23.5184  -47.7330 O.2       12 UNK        -0.5000 
     74 N          -2.9182  -24.0065  -46.0306 N.am      13 UNK        -0.5000 
     75 CA         -3.4604  -25.3170  -45.6776 C.3       13 UNK         0.1400 
     76 CB         -2.8293  -25.7955  -44.3614 C.3       13 UNK        -0.1800 
     77 C          -3.2634  -26.3627  -46.7893 C.2       13 UNK         0.5000 
     78 O          -4.1978  -27.1077  -47.0853 O.2       13 UNK        -0.5000 
     79 N          -2.0682  -26.3863  -47.3978 N.am      14 UNK        -0.5000 
     80 CA         -1.7182  -27.2852  -48.4994 C.3       14 UNK         0.1400 
     81 CB         -0.2067  -27.2151  -48.7648 C.3       14 UNK        -0.1800 
     82 C          -2.5069  -26.9877  -49.7864 C.2       14 UNK         0.5000 
     83 O          -2.9672  -27.9204  -50.4462 O.2       14 UNK        -0.5000 
     84 N          -2.6593  -25.6975  -50.1120 N.am      15 UNK        -0.5000 
     85 CA         -3.4168  -25.2295  -51.2735 C.3       15 UNK         0.1400 
     86 CB         -2.9732  -23.7995  -51.5991 C.3       15 UNK        -0.1800 
     87 C          -4.9432  -25.2769  -51.0730 C.2       15 UNK         0.5000 
     88 O          -5.6774  -25.2874  -52.0615 O.2       15 UNK        -0.5000 
     89 N          -5.3845  -25.2743  -49.8069 N.am      16 UNK        -0.5000 
     90 CA         -6.7683  -25.1461  -49.3373 C.3       16 UNK         0.1400 
     91 CB         -7.6307  -26.3413  -49.7937 C.3       16 UNK        -0.1800 
     92 C          -7.3910  -23.7741  -49.6825 C.2       16 UNK         0.5000 
     93 O          -8.6087  -23.6689  -49.8406 O.2       16 UNK        -0.5000 
     94 N          -6.5420  -22.7448  -49.7792 N.am      17 UNK        -0.5000 
     95 CA         -6.8769  -21.3604  -50.0865 C.3       17 UNK         0.1400 
     96 CB         -7.2503  -21.2069  -51.5726 C.3       17 UNK        -0.1800 
     97 C          -5.6561  -20.4971  -49.7489 C.2       17 UNK         0.5000 
     98 O          -4.5278  -20.9191  -50.0013 O.2       17 UNK        -0.5000 
     99 N          -5.8960  -19.2988  -49.2058 N.am      18 UNK        -0.5000 
    100 CA        -4.8558  -18.3459  -48.8022 C.3       18 UNK         0.1400 
    101 CB        -5.4054  -17.4790  -47.6573 C.3       18 UNK        -0.1800 
    102 C         -4.3277  -17.4700  -49.9580 C.2       18 UNK         0.5000 
    103 O         -3.4491  -16.6385  -49.7252 O.2       18 UNK        -0.5000 
    104 N         -4.8760  -17.6427  -51.1654 N.am      19 UNK        -0.5000 
    105 CA        -4.4626  -16.9833  -52.3997 C.3       19 UNK         0.1400 
    106 CB        -5.5410  -15.9741  -52.8230 C.3       19 UNK        -0.1800 
    107 C         -4.2748  -18.0525  -53.4847 C.2       19 UNK         0.5000 
    108 O         -4.9364  -19.0922  -53.4330 O.2       19 UNK        -0.5000 
    109 N         -3.3788  -17.7703  -54.4430 N.am      20 UNK        -0.5000 
    110 CA        -2.9823  -18.6332  -55.5689 C.3       20 UNK         0.1400 
    111 CB        -4.1623  -18.8474  -56.5400 C.3       20 UNK        -0.1800 
    112 C         -2.3218  -19.9620  -55.1325 C.2       20 UNK         0.5000 
    113 O         -2.3295  -20.9380  -55.8843 O.2       20 UNK        -0.5000 
    114 N         -1.7493  -19.9695  -53.9223 N.am      21 UNK        -0.5000 
    115 CA        -1.1609  -21.1370  -53.2672 C.3       21 UNK         0.1400 
    116 CB        -1.1288  -20.8610  -51.7560 C.3       21 UNK        -0.1800 
    117 C          0.2452  -21.5034  -53.7781 C.2       21 UNK         0.5000 
    118 O          0.7444  -22.5806  -53.4521 O.2       21 UNK        -0.5000 
    119 N          0.8693  -20.5976  -54.5385 N.am      22 UNK        -0.5000 
    120 CA         2.2659  -20.6863  -54.9945 C.3       22 UNK         0.1400 
    121 C          2.5216  -21.6938  -56.1539 C.2       22 UNK         0.5000 
    122 N          1.4989  -22.2649  -56.7784 N.am      22 UNK        -0.7600 
    123 O          3.6712  -21.9640  -56.4906 O.2       22 UNK        -0.5000 
    124 C124        2.8628  -19.2902  -55.3319 C.3       23 UNK        -0.0398 
    125 S125        2.3466  -17.9514  -54.1995 S.3       23 UNK        -0.2404 
    126 C126        3.2587  -18.3549  -52.6770 C.3       23 UNK        -0.0205 
    127 H127       -5.6756  -14.9395  -49.2131 H         1 UNK         0.0600 
    128 H128       -6.7660  -13.9575  -50.1929 H         1 UNK         0.0600 
    129 H129       -6.2922  -13.4137  -48.5805 H         1 UNK         0.0600 
    130 H130       -3.5454  -14.7834  -49.8386 H         1 UNK         0.3000 
    131 H131       -2.4743  -12.8877  -51.6201 H         1 UNK         0.0600 
    132 H132       -1.5212  -15.1350  -51.3288 H         1 UNK         0.0800 
    133 H133       -1.1287  -14.8162  -49.6691 H         1 UNK         0.0800 
    134 H134        1.1355  -14.2797  -48.9202 H         1 UNK         0.0800 
    135 H135        2.5028  -14.0355  -49.9774 H         1 UNK         0.0800 
    136 H136        2.8903  -15.7851  -51.8795 H         1 UNK         0.1150 
    137 H137        1.9089  -19.8129  -50.8037 H         1 UNK         0.1150 
    138 H138        0.4832  -16.5442  -48.4242 H         1 UNK         0.1150 
    139 H139       -0.1452  -19.9988  -49.1773 H         1 UNK         0.0800 
    140 H140       -0.3693  -18.7361  -48.0144 H         1 UNK         0.0800 
    141 H141        2.9315  -21.8631  -48.1800 H         1 UNK         0.0800 
    142 H142        1.6916  -21.5544  -49.3477 H         1 UNK         0.0800 
    143 H143        1.4545  -23.7729  -48.3124 H         1 UNK         0.0600 
    144 H144        1.7842  -22.4618  -45.8017 H         1 UNK         0.3000 
    145 H145        0.6153  -25.2007  -43.8043 H         1 UNK         0.0600 
    146 H146        2.9106  -25.0165  -42.9103 H         1 UNK         0.0600 
    147 H147        2.9558  -25.7706  -44.4964 H         1 UNK         0.0600 
    148 H148        3.4233  -24.0829  -44.3148 H         1 UNK         0.0600 
    149 H149        1.7504  -22.8058  -42.9224 H         1 UNK         0.3000 
    150 H150       -1.1871  -20.8114  -42.7329 H         1 UNK         0.0600 
    151 H151       -1.2919  -22.4193  -40.8611 H         1 UNK         0.0600 
    152 H152       -0.5514  -20.9137  -40.3399 H         1 UNK         0.0600 
    153 H153        0.4491  -22.3333  -40.6395 H         1 UNK         0.0600 
    154 H154        0.4981  -19.4933  -43.0322 H         1 UNK         0.3000 
    155 H155        3.9402  -19.3969  -42.1152 H         1 UNK         0.0600 
    156 H156        3.7501  -20.0056  -44.5380 H         1 UNK         0.0600 
    157 H157        3.9611  -18.2741  -44.3212 H         1 UNK         0.0600 
    158 H158        2.3707  -18.9255  -44.7054 H         1 UNK         0.0600 
    159 H159        2.0030  -17.3911  -42.8258 H         1 UNK         0.3000 
    160 H160        1.1346  -16.5412  -39.4256 H         1 UNK         0.0600 
    161 H161        2.6529  -15.1390  -41.6829 H         1 UNK         0.0600 
    162 H162        3.1422  -15.2402  -39.9996 H         1 UNK         0.0600 
    163 H163        1.7121  -14.3163  -40.4382 H         1 UNK         0.0600 
    164 H164        0.1280  -15.5768  -41.9051 H         1 UNK         0.3000 
    165 H165       -2.5808  -17.8806  -42.2276 H         1 UNK         0.0600 
    166 H166       -3.8686  -15.7554  -42.1944 H         1 UNK         0.0600 
    167 H167       -3.3814  -16.2055  -40.5676 H         1 UNK         0.0600 
    168 H168       -2.5241  -14.9237  -41.4134 H         1 UNK         0.0600 
    169 H169       -1.6576  -15.5215  -43.6426 H         1 UNK         0.3000 
    170 H170        0.1677  -17.3098  -46.1294 H         1 UNK         0.0600 
    171 H171       -2.1779  -17.3780  -46.8922 H         1 UNK         0.0600 
    172 H172       -2.5341  -15.8454  -46.1123 H         1 UNK         0.0600 
    173 H173       -1.4566  -15.8957  -47.4963 H         1 UNK         0.0600 
    174 H174       -0.3723  -14.5295  -45.6788 H         1 UNK         0.3000 
    175 H175        2.4107  -13.8476  -43.5528 H         1 UNK         0.0600 
    176 H176        2.2152  -13.3372  -46.5692 H         1 UNK         0.0600 
    177 H177        3.1861  -12.4084  -45.4253 H         1 UNK         0.0600 
    178 H178        3.5724  -14.0915  -45.7444 H         1 UNK         0.0600 
    179 H179        0.7668  -12.0677  -44.9655 H         1 UNK         0.3000 
    180 H180       -2.2922  -12.3149  -43.3526 H         1 UNK         0.0600 
    181 H181       -0.2340  -10.1174  -42.7627 H         1 UNK         0.0600 
    182 H182       -1.1136  -11.0417  -41.5510 H         1 UNK         0.0600 
    183 H183       -1.9860   -9.9604  -42.6249 H         1 UNK         0.0600 
    184 H184       -1.2432  -10.2803  -45.0301 H         1 UNK         0.3000 
    185 H185       -2.1521  -10.4141  -47.4145 H         1 UNK         0.0600 
    186 H186        0.6560  -11.6956  -47.6065 H         1 UNK         0.0600 
    187 H187        0.1222  -10.2730  -48.4926 H         1 UNK         0.0600 
    188 H188        0.3154  -10.1900  -46.7605 H         1 UNK         0.0600 
    189 H189       -2.1509  -13.1243  -48.0510 H         1 UNK         0.3000 
    190 H190       -0.6999  -21.6967  -46.3941 H         1 UNK         0.3000 
    191 H191       -2.8224  -21.6056  -48.3028 H         1 UNK         0.0600 
    192 H192       -4.1131  -20.6190  -46.4129 H         1 UNK         0.0600 
    193 H193       -2.5242  -19.8774  -46.5379 H         1 UNK         0.0600 
    194 H194       -2.8417  -21.0707  -45.2826 H         1 UNK         0.0600 
    195 H195       -2.1541  -23.6616  -45.4546 H         1 UNK         0.3000 
    196 H196       -4.5342  -25.2005  -45.5168 H         1 UNK         0.0600 
    197 H197       -3.2323  -26.7642  -44.0635 H         1 UNK         0.0600 
    198 H198       -3.0311  -25.0953  -43.5506 H         1 UNK         0.0600 
    199 H199       -1.7477  -25.9014  -44.4492 H         1 UNK         0.0600 
    200 H200       -1.3304  -25.7730  -47.0636 H         1 UNK         0.3000 
    201 H201       -1.9598  -28.3044  -48.1907 H         1 UNK         0.0600 
    202 H202        0.3611  -27.5289  -47.8888 H         1 UNK         0.0600 
    203 H203        0.1097  -26.2039  -49.0241 H         1 UNK         0.0600 
    204 H204        0.0780  -27.8714  -49.5881 H         1 UNK         0.0600 
    205 H205       -2.2068  -24.9869  -49.5459 H         1 UNK         0.3000 
    206 H206       -3.1763  -25.8631  -52.1299 H         1 UNK         0.0600 
    207 H207       -1.9101  -23.7719  -51.8370 H         1 UNK         0.0600 
    208 H208       -3.5167  -23.4025  -52.4574 H         1 UNK         0.0600 
    209 H209       -3.1457  -23.1253  -50.7594 H         1 UNK         0.0600 
    210 H210       -4.6871  -25.2052  -49.0760 H         1 UNK         0.3000 
    211 H211       -6.7133  -25.1822  -48.2484 H         1 UNK         0.0600 
    212 H212       -7.8087  -26.3286  -50.8691 H         1 UNK         0.0600 
    213 H213       -8.6046  -26.3287  -49.3032 H         1 UNK         0.0600 
    214 H214       -7.1541  -27.2889  -49.5423 H         1 UNK         0.0600 
    215 H215       -5.5611  -22.9021  -49.5723 H         1 UNK         0.3000 
    216 H216       -7.7181  -21.0543  -49.4615 H         1 UNK         0.0600 
    217 H217       -7.4645  -20.1659  -51.8176 H         1 UNK         0.0600 
    218 H218       -8.1374  -21.7870  -51.8258 H         1 UNK         0.0600 
    219 H219       -6.4386  -21.5355  -52.2237 H         1 UNK         0.0600 
    220 H220       -6.8512  -19.0120  -49.0451 H         1 UNK         0.3000 
    221 H221       -3.9964  -18.8986  -48.4181 H         1 UNK         0.0600 
    222 H222       -6.3042  -16.9391  -47.9566 H         1 UNK         0.0600 
    223 H223       -5.6559  -18.0901  -46.7900 H         1 UNK         0.0600 
    224 H224       -4.6733  -16.7408  -47.3282 H         1 UNK         0.0600 
    225 H225       -5.5325  -18.4005  -51.2928 H         1 UNK         0.3000 
    226 H226       -3.5146  -16.4607  -52.2565 H         1 UNK         0.0600 
    227 H227       -6.5025  -16.4603  -52.9935 H         1 UNK         0.0600 
    228 H228       -5.6854  -15.2093  -52.0627 H         1 UNK         0.0600 
    229 H229       -5.2611  -15.4644  -53.7456 H         1 UNK         0.0600 
    230 H230       -2.8986  -16.8819  -54.3993 H         1 UNK         0.3000 
    231 H231       -2.2110  -18.0847  -56.1114 H         1 UNK         0.0600 
    232 H232       -4.9472  -19.4603  -56.0962 H         1 UNK         0.0600 
    233 H233       -3.8339  -19.3492  -57.4510 H         1 UNK         0.0600 
    234 H234       -4.6060  -17.8973  -56.8374 H         1 UNK         0.0600 
    235 H235       -1.7803  -19.1203  -53.3790 H         1 UNK         0.3000 
    236 H236       -1.8041  -21.9972  -53.4551 H         1 UNK         0.0600 
    237 H237       -2.1357  -20.7414  -51.3558 H         1 UNK         0.0600 
    238 H238       -0.6591  -21.6799  -51.2100 H         1 UNK         0.0600 
    239 H239       -0.5715  -19.9518  -51.5333 H         1 UNK         0.0600 
    240 H240        0.3904  -19.7344  -54.7461 H         1 UNK         0.3000 
    241 H241        2.8389  -21.0794  -54.1532 H         1 UNK         0.0600 
    242 H242        1.6730  -22.9187  -57.5256 H         1 UNK         0.3800 
    243 H243        0.5516  -22.0528  -56.5058 H         1 UNK         0.3800 
    244 H244        3.9530  -19.3366  -55.3498 H         1 UNK         0.0800 
    245 H245        2.5587  -18.9855  -56.3350 H         1 UNK         0.0800 
    246 H246        3.4180  -19.4307  -52.6032 H         1 UNK         0.0800 
    247 H247        4.2481  -17.8968  -52.7138 H         1 UNK         0.0800 
@<TRIPOS>BOND
     1    1    2 1    
     2    1  127 1    
     3    1  128 1    
     4    1  129 1    
     5    2    3 2    
     6    2    4 am   BACKBONE|DICT|INTERRES
     7    4    5 1    
     8    4  130 1    
     9    5    6 1    
    10    5   65 1    
    11    5  131 1    
    12    6    7 1    
    13    6  132 1    
    14    6  133 1    
    15    7    8 1    
    16    8    9 1    
    17    8  134 1    
    18    8  135 1    
    19    9   10 ar   
    20    9   14 ar   
    21   10   11 ar   
    22   10  136 1    
    23   11   12 ar   
    24   11  126 1    
    25   12   13 ar   
    26   12  137 1    
    27   13   14 ar   
    28   13   15 1    
    29   14  138 1    
    30   15   16 1    
    31   15  139 1    
    32   15  140 1    
    33   16   17 1    
    34   17   18 1    
    35   17  141 1    
    36   17  142 1    
    37   18   19 1    
    38   18   67 1    
    39   18  143 1    
    40   19   20 am   BACKBONE|DICT|INTERRES
    41   19  144 1    
    42   20   21 2    
    43   20   22 1    
    44   22   23 1    
    45   22   24 1    
    46   22  145 1    
    47   23  146 1    
    48   23  147 1    
    49   23  148 1    
    50   24   25 am   BACKBONE|DICT|INTERRES
    51   24  149 1    
    52   25   26 2    
    53   25   27 1    
    54   27   28 1    
    55   27   29 1    
    56   27  150 1    
    57   28  151 1    
    58   28  152 1    
    59   28  153 1    
    60   29   30 am   BACKBONE|DICT|INTERRES
    61   29  154 1    
    62   30   31 2    
    63   30   32 1    
    64   32   33 1    
    65   32   34 1    
    66   32  155 1    
    67   33  156 1    
    68   33  157 1    
    69   33  158 1    
    70   34   35 am   BACKBONE|DICT|INTERRES
    71   34  159 1    
    72   35   36 2    
    73   35   37 1    
    74   37   38 1    
    75   37   39 1    
    76   37  160 1    
    77   38  161 1    
    78   38  162 1    
    79   38  163 1    
    80   39   40 am   BACKBONE|DICT|INTERRES
    81   39  164 1    
    82   40   41 2    
    83   40   42 1    
    84   42   43 1    
    85   42   44 1    
    86   42  165 1    
    87   43  166 1    
    88   43  167 1    
    89   43  168 1    
    90   44   45 am   BACKBONE|DICT|INTERRES
    91   44  169 1    
    92   45   46 2    
    93   45   47 1    
    94   47   48 1    
    95   47   49 1    
    96   47  170 1    
    97   48  171 1    
    98   48  172 1    
    99   48  173 1    
   100   49   50 am   BACKBONE|DICT|INTERRES
   101   49  174 1    
   102   50   51 2    
   103   50   52 1    
   104   52   53 1    
   105   52   54 1    
   106   52  175 1    
   107   53  176 1    
   108   53  177 1    
   109   53  178 1    
   110   54   55 am   BACKBONE|DICT|INTERRES
   111   54  179 1    
   112   55   56 2    
   113   55   57 1    
   114   57   58 1    
   115   57   59 1    
   116   57  180 1    
   117   58  181 1    
   118   58  182 1    
   119   58  183 1    
   120   59   60 am   BACKBONE|DICT|INTERRES
   121   59  184 1    
   122   60   61 2    
   123   60   62 1    
   124   62   63 1    
   125   62   64 1    
   126   62  185 1    
   127   63  186 1    
   128   63  187 1    
   129   63  188 1    
   130   64   65 am   BACKBONE|DICT|INTERRES
   131   64  189 1    
   132   65   66 2    
   133   67   68 2    
   134   67   69 am   BACKBONE|DICT|INTERRES
   135   69   70 1    
   136   69  190 1    
   137   70   71 1    
   138   70   72 1    
   139   70  191 1    
   140   71  192 1    
   141   71  193 1    
   142   71  194 1    
   143   72   73 2    
   144   72   74 am   BACKBONE|DICT|INTERRES
   145   74   75 1    
   146   74  195 1    
   147   75   76 1    
   148   75   77 1    
   149   75  196 1    
   150   76  197 1    
   151   76  198 1    
   152   76  199 1    
   153   77   78 2    
   154   77   79 am   BACKBONE|DICT|INTERRES
   155   79   80 1    
   156   79  200 1    
   157   80   81 1    
   158   80   82 1    
   159   80  201 1    
   160   81  202 1    
   161   81  203 1    
   162   81  204 1    
   163   82   83 2    
   164   82   84 am   BACKBONE|DICT|INTERRES
   165   84   85 1    
   166   84  205 1    
   167   85   86 1    
   168   85   87 1    
   169   85  206 1    
   170   86  207 1    
   171   86  208 1    
   172   86  209 1    
   173   87   88 2    
   174   87   89 am   BACKBONE|DICT|INTERRES
   175   89   90 1    
   176   89  210 1    
   177   90   91 1    
   178   90   92 1    
   179   90  211 1    
   180   91  212 1    
   181   91  213 1    
   182   91  214 1    
   183   92   93 2    
   184   92   94 am   BACKBONE|DICT|INTERRES
   185   94   95 1    
   186   94  215 1    
   187   95   96 1    
   188   95   97 1    
   189   95  216 1    
   190   96  217 1    
   191   96  218 1    
   192   96  219 1    
   193   97   98 2    
   194   97   99 am   BACKBONE|DICT|INTERRES
   195   99  100 1    
   196   99  220 1    
   197  100  101 1    
   198  100  102 1    
   199  100  221 1    
   200  101  222 1    
   201  101  223 1    
   202  101  224 1    
   203  102  103 2    
   204  102  104 am   BACKBONE|DICT|INTERRES
   205  104  105 1    
   206  104  225 1    
   207  105  106 1    
   208  105  107 1    
   209  105  226 1    
   210  106  227 1    
   211  106  228 1    
   212  106  229 1    
   213  107  108 2    
   214  107  109 am   BACKBONE|DICT|INTERRES
   215  109  110 1    
   216  109  230 1    
   217  110  111 1    
   218  110  112 1    
   219  110  231 1    
   220  111  232 1    
   221  111  233 1    
   222  111  234 1    
   223  112  113 2    
   224  112  114 am   BACKBONE|DICT|INTERRES
   225  114  115 1    
   226  114  235 1    
   227  115  116 1    
   228  115  117 1    
   229  115  236 1    
   230  116  237 1    
   231  116  238 1    
   232  116  239 1    
   233  117  118 2    
   234  117  119 am   BACKBONE|DICT|INTERRES
   235  119  120 1    
   236  119  240 1    
   237  120  121 1    
   238  120  124 1    
   239  120  241 1    
   240  121  122 am   BACKBONE|DICT|INTERRES
   241  121  123 2    
   242  122  242 1    
   243  122  243 1    
   244  124  125 1    
   245  124  244 1    
   246  124  245 1    
   247  125  126 1    
   248  126  246 1    
   249  126  247 1    
@<TRIPOS>SUBSTRUCTURE
     1 UNK         1 GROUP             0       ****    0 ROOT    
