@<TRIPOS>MOLECULE
3R540
247   249    1
SMALL
USER_CHARGES


@<TRIPOS>ATOM
      1 CA         -3.0121  -12.6067  -48.2508 C.3       0 UNK        -0.1800 
      2 C          -1.9464  -13.1841  -47.3318 C.2       0 UNK         0.5000 
      3 O          -1.6431  -12.5903  -46.2989 O.2       0 UNK        -0.5000 
      4 N          -1.3921  -14.3494  -47.6909 N.am      1 UNK        -0.5000 
      5 CA         -0.3368  -15.0634  -46.9567 C.3       1 UNK         0.1400 
      6 C6          0.1130  -16.3272  -47.7331 C.3       23 UNK        -0.0398 
      7 S7          1.8195  -16.8215  -47.3356 S.3       23 UNK        -0.2404 
      8 C8          2.6828  -16.5174  -48.9119 C.3       23 UNK        -0.0205 
      9 C9          2.3056  -17.5553  -49.9573 C.ar      23 UNK        -0.0193 
     10 C10         1.6018  -17.1915  -51.1100 C.ar      23 UNK        -0.1150 
     11 C11         1.2252  -18.1613  -52.0447 C.ar      23 UNK        -0.0193 
     12 C12         1.5527  -19.5005  -51.8084 C.ar      23 UNK        -0.1150 
     13 C13         2.2364  -19.8822  -50.6517 C.ar      23 UNK        -0.0193 
     14 C14         2.6406  -18.8950  -49.7483 C.ar      23 UNK        -0.1150 
     15 C15         2.4998  -21.3650  -50.3924 C.3       23 UNK        -0.0205 
     16 S16         2.4210  -21.8617  -48.6331 S.3       23 UNK        -0.2404 
     17 C17         0.8074  -21.2008  -48.0770 C.3       23 UNK        -0.0398 
     18 CA         -0.1766  -22.2948  -47.5977 C.3       11 UNK         0.1400 
     19 N           0.3967  -23.2013  -46.6015 N.am      11 UNK        -0.5000 
     20 C          -0.1232  -24.3989  -46.2957 C.2       10 UNK         0.5000 
     21 O          -1.1029  -24.8790  -46.8655 O.2       10 UNK        -0.5000 
     22 CA          0.5310  -25.1799  -45.1395 C.3       10 UNK         0.1400 
     23 CB          1.5966  -26.1449  -45.6798 C.3       10 UNK        -0.1800 
     24 N           1.1351  -24.3234  -44.1170 N.am      10 UNK        -0.5000 
     25 C           0.4728  -23.4374  -43.3610 C.2       9 UNK         0.5000 
     26 O          -0.7436  -23.2563  -43.4381 O.2       9 UNK        -0.5000 
     27 CA          1.3021  -22.5763  -42.3835 C.3       9 UNK         0.1400 
     28 CB          2.7764  -23.0196  -42.2479 C.3       9 UNK        -0.1800 
     29 N           1.2405  -21.1471  -42.7120 N.am      9 UNK        -0.5000 
     30 C           1.5460  -20.5714  -43.8850 C.2       8 UNK         0.5000 
     31 O           1.8595  -21.2042  -44.8944 O.2       8 UNK        -0.5000 
     32 CA          1.4600  -19.0312  -43.9729 C.3       8 UNK         0.1400 
     33 CB          1.0792  -18.3299  -42.6510 C.3       8 UNK        -0.1800 
     34 N           2.6767  -18.4331  -44.5270 N.am      8 UNK        -0.5000 
     35 C           3.9335  -18.5823  -44.0817 C.2       7 UNK         0.5000 
     36 O           4.2506  -19.2599  -43.1045 O.2       7 UNK        -0.5000 
     37 CA          5.0260  -17.7906  -44.8281 C.3       7 UNK         0.1400 
     38 CB          5.5882  -18.6348  -45.9821 C.3       7 UNK        -0.1800 
     39 N           4.5495  -16.5141  -45.3704 N.am      7 UNK        -0.5000 
     40 C           4.1344  -15.4250  -44.7061 C.2       6 UNK         0.5000 
     41 O           3.6531  -14.4623  -45.3038 O.2       6 UNK        -0.5000 
     42 CA          4.2565  -15.3369  -43.1744 C.3       6 UNK         0.1400 
     43 CB          5.3131  -14.2943  -42.7660 C.3       6 UNK        -0.1800 
     44 N           2.9464  -14.9578  -42.6674 N.am      6 UNK        -0.5000 
     45 C           2.5130  -15.0941  -41.4102 C.2       5 UNK         0.5000 
     46 O           3.1941  -15.5771  -40.5042 O.2       5 UNK        -0.5000 
     47 CA          1.0678  -14.6291  -41.1290 C.3       5 UNK         0.1400 
     48 CB          0.8521  -14.1748  -39.6706 C.3       5 UNK        -0.1800 
     49 N           0.5937  -13.6134  -42.0748 N.am      5 UNK        -0.5000 
     50 C           1.0528  -12.3631  -42.2406 C.2       4 UNK         0.5000 
     51 O           1.9686  -11.8669  -41.5840 O.2       4 UNK        -0.5000 
     52 CA          0.3700  -11.5237  -43.3379 C.3       4 UNK         0.1400 
     53 CB          1.1667  -11.6165  -44.6486 C.3       4 UNK        -0.1800 
     54 N          -1.0119  -11.9338  -43.5929 N.am      4 UNK        -0.5000 
     55 C          -2.0310  -11.7875  -42.7345 C.2       3 UNK         0.5000 
     56 O          -1.9409  -11.2034  -41.6541 O.2       3 UNK        -0.5000 
     57 CA         -3.3653  -12.4378  -43.1393 C.3       3 UNK         0.1400 
     58 CB         -4.1707  -11.5119  -44.0641 C.3       3 UNK        -0.1800 
     59 N          -3.1655  -13.7323  -43.7944 N.am      3 UNK        -0.5000 
     60 C          -2.8310  -14.8635  -43.1569 C.2       2 UNK         0.5000 
     61 O          -2.6794  -14.9438  -41.9384 O.2       2 UNK        -0.5000 
     62 CA         -2.6114  -16.1144  -44.0287 C.3       2 UNK         0.1400 
     63 CB         -3.9406  -16.8503  -44.2586 C.3       2 UNK        -0.1800 
     64 N          -2.0114  -15.8031  -45.3257 N.am      2 UNK        -0.5000 
     65 C          -0.7416  -15.4115  -45.5050 C.2       1 UNK         0.5000 
     66 O           0.0711  -15.2876  -44.5872 O.2       1 UNK        -0.5000 
     67 C          -1.4670  -21.6561  -47.0507 C.2       11 UNK         0.5000 
     68 O          -2.4600  -21.5798  -47.7720 O.2       11 UNK        -0.5000 
     69 N          -1.4582  -21.2476  -45.7723 N.am      12 UNK        -0.5000 
     70 CA         -2.6205  -20.6799  -45.0817 C.3       12 UNK         0.1400 
     71 CB         -2.2079  -20.0872  -43.7281 C.3       12 UNK        -0.1800 
     72 C          -3.7665  -21.6930  -44.9230 C.2       12 UNK         0.5000 
     73 O          -4.9251  -21.3273  -45.1189 O.2       12 UNK        -0.5000 
     74 N          -3.4167  -22.9602  -44.6619 N.am      13 UNK        -0.5000 
     75 CA         -4.3383  -24.1006  -44.6385 C.3       13 UNK         0.1400 
     76 CB         -3.5827  -25.3438  -44.1460 C.3       13 UNK        -0.1800 
     77 C          -5.0167  -24.3796  -45.9986 C.2       13 UNK         0.5000 
     78 O          -6.1179  -24.9289  -46.0235 O.2       13 UNK        -0.5000 
     79 N          -4.3701  -23.9627  -47.0954 N.am      14 UNK        -0.5000 
     80 CA         -4.8766  -24.0113  -48.4680 C.3       14 UNK         0.1400 
     81 CB         -3.7201  -24.4245  -49.3951 C.3       14 UNK        -0.1800 
     82 C          -5.5250  -22.6757  -48.9014 C.2       14 UNK         0.5000 
     83 O          -5.6590  -22.4298  -50.1027 O.2       14 UNK        -0.5000 
     84 N          -5.9065  -21.8376  -47.9227 N.am      15 UNK        -0.5000 
     85 CA         -6.5518  -20.5268  -48.0543 C.3       15 UNK         0.1400 
     86 CB         -7.9374  -20.6588  -48.7218 C.3       15 UNK        -0.1800 
     87 C          -5.6378  -19.4978  -48.7452 C.2       15 UNK         0.5000 
     88 O          -6.0298  -18.8882  -49.7386 O.2       15 UNK        -0.5000 
     89 N          -4.4054  -19.3689  -48.2307 N.am      16 UNK        -0.5000 
     90 CA         -3.2887  -18.5992  -48.8040 C.3       16 UNK         0.1400 
     91 CB         -3.5833  -17.0852  -48.7901 C.3       16 UNK        -0.1800 
     92 C          -2.8843  -19.1327  -50.1961 C.2       16 UNK         0.5000 
     93 O          -2.5604  -18.3624  -51.1002 O.2       16 UNK        -0.5000 
     94 N          -2.9609  -20.4641  -50.3230 N.am      17 UNK        -0.5000 
     95 CA         -2.7867  -21.2881  -51.5157 C.3       17 UNK         0.1400 
     96 CB         -1.3216  -21.2831  -51.9715 C.3       17 UNK        -0.1800 
     97 C          -3.7669  -20.9722  -52.6610 C.2       17 UNK         0.5000 
     98 O          -3.4887  -21.3449  -53.8009 O.2       17 UNK        -0.5000 
     99 N          -4.9195  -20.3545  -52.3601 N.am      18 UNK        -0.5000 
    100 CA        -5.9931  -20.0991  -53.3250 C.3       18 UNK         0.1400 
    101 CB        -7.0615  -19.1937  -52.6983 C.3       18 UNK        -0.1800 
    102 C         -6.6326  -21.3919  -53.8636 C.2       18 UNK         0.5000 
    103 O         -7.0981  -21.4015  -55.0028 O.2       18 UNK        -0.5000 
    104 N         -6.5922  -22.4708  -53.0665 N.am      19 UNK        -0.5000 
    105 CA        -7.0026  -23.8169  -53.4716 C.3       19 UNK         0.1400 
    106 CB        -7.0458  -24.7196  -52.2293 C.3       19 UNK        -0.1800 
    107 C         -6.0902  -24.4314  -54.5554 C.2       19 UNK         0.5000 
    108 O         -6.5611  -25.2459  -55.3499 O.2       19 UNK        -0.5000 
    109 N         -4.8125  -24.0267  -54.5730 N.am      20 UNK        -0.5000 
    110 CA        -3.8055  -24.4509  -55.5491 C.3       20 UNK         0.1400 
    111 CB        -2.4759  -24.6626  -54.8060 C.3       20 UNK        -0.1800 
    112 C         -3.6158  -23.4284  -56.6884 C.2       20 UNK         0.5000 
    113 O         -2.9935  -23.7653  -57.6958 O.2       20 UNK        -0.5000 
    114 N         -4.1336  -22.2054  -56.4975 N.am      21 UNK        -0.5000 
    115 CA        -3.9129  -20.9951  -57.2959 C.3       21 UNK         0.1400 
    116 CB        -4.4504  -21.1576  -58.7333 C.3       21 UNK        -0.1800 
    117 C         -2.4446  -20.5164  -57.2330 C.2       21 UNK         0.5000 
    118 O         -1.8919  -20.0742  -58.2422 O.2       21 UNK        -0.5000 
    119 N         -1.8477  -20.6079  -56.0356 N.am      22 UNK        -0.5000 
    120 CA        -0.4369  -20.3118  -55.7379 C.3       22 UNK         0.1400 
    121 C          0.5615  -21.2688  -56.4672 C.2       22 UNK         0.5000 
    122 N          1.8149  -20.8786  -56.6538 N.am      22 UNK        -0.7600 
    123 O          0.2267  -22.3973  -56.8197 O.2       22 UNK        -0.5000 
    124 C124       -0.1176  -18.7913  -55.8749 C.3       23 UNK        -0.0398 
    125 S125        1.2753  -18.2440  -54.8225 S.3       23 UNK        -0.2404 
    126 C126        0.4210  -17.7776  -53.2817 C.3       23 UNK        -0.0205 
    127 H127       -3.9440  -12.4692  -47.7026 H         1 UNK         0.0600 
    128 H128       -2.6923  -11.6361  -48.6297 H         1 UNK         0.0600 
    129 H129       -3.2107  -13.2577  -49.1025 H         1 UNK         0.0600 
    130 H130       -1.6791  -14.7665  -48.5639 H         1 UNK         0.3000 
    131 H131        0.5086  -14.3740  -46.8970 H         1 UNK         0.0600 
    132 H132       -0.5504  -17.1730  -47.5462 H         1 UNK         0.0800 
    133 H133        0.0551  -16.1465  -48.8069 H         1 UNK         0.0800 
    134 H134        2.4667  -15.5059  -49.2594 H         1 UNK         0.0800 
    135 H135        3.7593  -16.5615  -48.7422 H         1 UNK         0.0800 
    136 H136        1.3355  -16.1566  -51.2725 H         1 UNK         0.1150 
    137 H137        1.2582  -20.2528  -52.5257 H         1 UNK         0.1150 
    138 H138        3.1797  -19.1693  -48.8527 H         1 UNK         0.1150 
    139 H139        1.7868  -21.9766  -50.9471 H         1 UNK         0.0800 
    140 H140        3.4875  -21.6148  -50.7813 H         1 UNK         0.0800 
    141 H141        1.0098  -20.4802  -47.2831 H         1 UNK         0.0800 
    142 H142        0.3472  -20.6291  -48.8842 H         1 UNK         0.0800 
    143 H143       -0.4530  -22.8878  -48.4725 H         1 UNK         0.0600 
    144 H144        1.1874  -22.8470  -46.0745 H         1 UNK         0.3000 
    145 H145       -0.2518  -25.7691  -44.6578 H         1 UNK         0.0600 
    146 H146        2.0087  -26.7649  -44.8835 H         1 UNK         0.0600 
    147 H147        1.1718  -26.8172  -46.4265 H         1 UNK         0.0600 
    148 H148        2.4215  -25.6094  -46.1517 H         1 UNK         0.0600 
    149 H149        2.1368  -24.3881  -44.0096 H         1 UNK         0.3000 
    150 H150        0.8309  -22.6926  -41.4065 H         1 UNK         0.0600 
    151 H151        2.8509  -24.0634  -41.9401 H         1 UNK         0.0600 
    152 H152        3.2887  -22.4276  -41.4893 H         1 UNK         0.0600 
    153 H153        3.3306  -22.9014  -43.1799 H         1 UNK         0.0600 
    154 H154        0.9682  -20.5431  -41.9499 H         1 UNK         0.3000 
    155 H155        0.6710  -18.8196  -44.6956 H         1 UNK         0.0600 
    156 H156        0.9341  -17.2645  -42.8223 H         1 UNK         0.0600 
    157 H157        1.8516  -18.4413  -41.8891 H         1 UNK         0.0600 
    158 H158        0.1441  -18.7102  -42.2399 H         1 UNK         0.0600 
    159 H159        2.5397  -17.8638  -45.3526 H         1 UNK         0.3000 
    160 H160        5.8419  -17.5892  -44.1313 H         1 UNK         0.0600 
    161 H161        4.8244  -18.8569  -46.7290 H         1 UNK         0.0600 
    162 H162        5.9755  -19.5871  -45.6172 H         1 UNK         0.0600 
    163 H163        6.4094  -18.1223  -46.4837 H         1 UNK         0.0600 
    164 H164        4.4509  -16.4940  -46.3738 H         1 UNK         0.3000 
    165 H165        4.5337  -16.2920  -42.7332 H         1 UNK         0.0600 
    166 H166        6.2915  -14.5531  -43.1723 H         1 UNK         0.0600 
    167 H167        5.0568  -13.2984  -43.1300 H         1 UNK         0.0600 
    168 H168        5.4171  -14.2360  -41.6826 H         1 UNK         0.0600 
    169 H169        2.3128  -14.5864  -43.3656 H         1 UNK         0.3000 
    170 H170        0.4328  -15.5006  -41.2911 H         1 UNK         0.0600 
    171 H171        1.0454  -14.9916  -38.9745 H         1 UNK         0.0600 
    172 H172        1.5136  -13.3520  -39.3987 H         1 UNK         0.0600 
    173 H173       -0.1754  -13.8485  -39.5087 H         1 UNK         0.0600 
    174 H174       -0.1203  -13.9284  -42.7186 H         1 UNK         0.3000 
    175 H175        0.3633  -10.4828  -43.0085 H         1 UNK         0.0600 
    176 H176        1.1944  -12.6379  -45.0306 H         1 UNK         0.0600 
    177 H177        0.7309  -10.9828  -45.4213 H         1 UNK         0.0600 
    178 H178        2.1984  -11.2933  -44.5043 H         1 UNK         0.0600 
    179 H179       -1.1998  -12.3537  -44.5005 H         1 UNK         0.3000 
    180 H180       -3.9493  -12.5966  -42.2300 H         1 UNK         0.0600 
    181 H181       -4.3630  -10.5529  -43.5815 H         1 UNK         0.0600 
    182 H182       -3.6431  -11.3083  -44.9963 H         1 UNK         0.0600 
    183 H183       -5.1375  -11.9489  -44.3145 H         1 UNK         0.0600 
    184 H184       -3.2166  -13.7390  -44.8023 H         1 UNK         0.3000 
    185 H185       -1.9358  -16.7825  -43.4901 H         1 UNK         0.0600 
    186 H186       -4.3819  -17.1620  -43.3110 H         1 UNK         0.0600 
    187 H187       -4.6692  -16.2182  -44.7678 H         1 UNK         0.0600 
    188 H188       -3.8005  -17.7462  -44.8618 H         1 UNK         0.0600 
    189 H189       -2.6202  -15.8428  -46.1287 H         1 UNK         0.3000 
    190 H190       -0.6355  -21.4303  -45.2159 H         1 UNK         0.3000 
    191 H191       -2.9985  -19.8606  -45.6950 H         1 UNK         0.0600 
    192 H192       -3.0764  -19.7131  -43.1843 H         1 UNK         0.0600 
    193 H193       -1.5328  -19.2452  -43.8653 H         1 UNK         0.0600 
    194 H194       -1.7173  -20.8217  -43.0903 H         1 UNK         0.0600 
    195 H195       -2.4422  -23.1561  -44.4520 H         1 UNK         0.3000 
    196 H196       -5.1276  -23.8729  -43.9194 H         1 UNK         0.0600 
    197 H197       -4.2554  -26.1970  -44.0502 H         1 UNK         0.0600 
    198 H198       -3.1328  -25.1720  -43.1679 H         1 UNK         0.0600 
    199 H199       -2.7881  -25.6293  -44.8352 H         1 UNK         0.0600 
    200 H200       -3.4716  -23.5132  -46.9788 H         1 UNK         0.3000 
    201 H201       -5.6538  -24.7736  -48.5484 H         1 UNK         0.0600 
    202 H202       -3.3325  -25.4050  -49.1182 H         1 UNK         0.0600 
    203 H203       -2.8907  -23.7199  -49.3433 H         1 UNK         0.0600 
    204 H204       -4.0407  -24.4887  -50.4351 H         1 UNK         0.0600 
    205 H205       -5.7036  -22.1114  -46.9690 H         1 UNK         0.3000 
    206 H206       -6.7127  -20.1590  -47.0400 H         1 UNK         0.0600 
    207 H207       -8.5686  -21.3634  -48.1806 H         1 UNK         0.0600 
    208 H208       -8.4570  -19.7000  -48.7330 H         1 UNK         0.0600 
    209 H209       -7.8646  -21.0007  -49.7544 H         1 UNK         0.0600 
    210 H210       -4.1606  -19.9860  -47.4693 H         1 UNK         0.3000 
    211 H211       -2.4300  -18.7715  -48.1542 H         1 UNK         0.0600 
    212 H212       -4.4027  -16.8238  -49.4600 H         1 UNK         0.0600 
    213 H213       -2.7112  -16.5186  -49.1149 H         1 UNK         0.0600 
    214 H214       -3.8471  -16.7431  -47.7899 H         1 UNK         0.0600 
    215 H215       -3.1773  -20.9801  -49.4761 H         1 UNK         0.3000 
    216 H216       -3.0238  -22.3061  -51.2119 H         1 UNK         0.0600 
    217 H217       -1.0529  -20.3117  -52.3782 H         1 UNK         0.0600 
    218 H218       -1.1419  -22.0291  -52.7460 H         1 UNK         0.0600 
    219 H219       -0.6506  -21.5060  -51.1426 H         1 UNK         0.0600 
    220 H220       -5.0992  -20.0861  -51.4002 H         1 UNK         0.3000 
    221 H221       -5.5565  -19.5693  -54.1742 H         1 UNK         0.0600 
    222 H222       -7.5435  -19.6726  -51.8457 H         1 UNK         0.0600 
    223 H223       -6.6304  -18.2521  -52.3579 H         1 UNK         0.0600 
    224 H224       -7.8411  -18.9511  -53.4214 H         1 UNK         0.0600 
    225 H225       -6.2170  -22.3709  -52.1280 H         1 UNK         0.3000 
    226 H226       -8.0116  -23.7533  -53.8843 H         1 UNK         0.0600 
    227 H227       -7.7236  -24.3204  -51.4744 H         1 UNK         0.0600 
    228 H228       -7.3955  -25.7205  -52.4850 H         1 UNK         0.0600 
    229 H229       -6.0609  -24.8220  -51.7731 H         1 UNK         0.0600 
    230 H230       -4.5144  -23.3341  -53.9000 H         1 UNK         0.3000 
    231 H231       -4.0970  -25.4006  -56.0023 H         1 UNK         0.0600 
    232 H232       -2.1166  -23.7384  -54.3520 H         1 UNK         0.0600 
    233 H233       -2.5783  -25.4075  -54.0168 H         1 UNK         0.0600 
    234 H234       -1.6992  -25.0142  -55.4863 H         1 UNK         0.0600 
    235 H235       -4.5992  -22.0479  -55.6148 H         1 UNK         0.3000 
    236 H236       -4.5028  -20.2124  -56.8169 H         1 UNK         0.0600 
    237 H237       -5.4843  -21.5029  -58.7303 H         1 UNK         0.0600 
    238 H238       -4.4279  -20.2063  -59.2659 H         1 UNK         0.0600 
    239 H239       -3.8599  -21.8673  -59.3129 H         1 UNK         0.0600 
    240 H240       -2.3914  -20.9823  -55.2618 H         1 UNK         0.3000 
    241 H241       -0.3345  -20.5717  -54.6851 H         1 UNK         0.0600 
    242 H242        2.1260  -19.9739  -56.3305 H         1 UNK         0.3800 
    243 H243        2.4659  -21.5018  -57.1053 H         1 UNK         0.3800 
    244 H244       -0.9921  -18.1961  -55.6083 H         1 UNK         0.0800 
    245 H245        0.0996  -18.5373  -56.9137 H         1 UNK         0.0800 
    246 H246        0.2256  -16.7046  -53.3022 H         1 UNK         0.0800 
    247 H247       -0.5546  -18.2605  -53.2267 H         1 UNK         0.0800 
@<TRIPOS>BOND
     1    1    2 1    
     2    1  127 1    
     3    1  128 1    
     4    1  129 1    
     5    2    3 2    
     6    2    4 am   BACKBONE|DICT|INTERRES
     7    4    5 1    
     8    4  130 1    
     9    5    6 1    
    10    5   65 1    
    11    5  131 1    
    12    6    7 1    
    13    6  132 1    
    14    6  133 1    
    15    7    8 1    
    16    8    9 1    
    17    8  134 1    
    18    8  135 1    
    19    9   10 ar   
    20    9   14 ar   
    21   10   11 ar   
    22   10  136 1    
    23   11   12 ar   
    24   11  126 1    
    25   12   13 ar   
    26   12  137 1    
    27   13   14 ar   
    28   13   15 1    
    29   14  138 1    
    30   15   16 1    
    31   15  139 1    
    32   15  140 1    
    33   16   17 1    
    34   17   18 1    
    35   17  141 1    
    36   17  142 1    
    37   18   19 1    
    38   18   67 1    
    39   18  143 1    
    40   19   20 am   BACKBONE|DICT|INTERRES
    41   19  144 1    
    42   20   21 2    
    43   20   22 1    
    44   22   23 1    
    45   22   24 1    
    46   22  145 1    
    47   23  146 1    
    48   23  147 1    
    49   23  148 1    
    50   24   25 am   BACKBONE|DICT|INTERRES
    51   24  149 1    
    52   25   26 2    
    53   25   27 1    
    54   27   28 1    
    55   27   29 1    
    56   27  150 1    
    57   28  151 1    
    58   28  152 1    
    59   28  153 1    
    60   29   30 am   BACKBONE|DICT|INTERRES
    61   29  154 1    
    62   30   31 2    
    63   30   32 1    
    64   32   33 1    
    65   32   34 1    
    66   32  155 1    
    67   33  156 1    
    68   33  157 1    
    69   33  158 1    
    70   34   35 am   BACKBONE|DICT|INTERRES
    71   34  159 1    
    72   35   36 2    
    73   35   37 1    
    74   37   38 1    
    75   37   39 1    
    76   37  160 1    
    77   38  161 1    
    78   38  162 1    
    79   38  163 1    
    80   39   40 am   BACKBONE|DICT|INTERRES
    81   39  164 1    
    82   40   41 2    
    83   40   42 1    
    84   42   43 1    
    85   42   44 1    
    86   42  165 1    
    87   43  166 1    
    88   43  167 1    
    89   43  168 1    
    90   44   45 am   BACKBONE|DICT|INTERRES
    91   44  169 1    
    92   45   46 2    
    93   45   47 1    
    94   47   48 1    
    95   47   49 1    
    96   47  170 1    
    97   48  171 1    
    98   48  172 1    
    99   48  173 1    
   100   49   50 am   BACKBONE|DICT|INTERRES
   101   49  174 1    
   102   50   51 2    
   103   50   52 1    
   104   52   53 1    
   105   52   54 1    
   106   52  175 1    
   107   53  176 1    
   108   53  177 1    
   109   53  178 1    
   110   54   55 am   BACKBONE|DICT|INTERRES
   111   54  179 1    
   112   55   56 2    
   113   55   57 1    
   114   57   58 1    
   115   57   59 1    
   116   57  180 1    
   117   58  181 1    
   118   58  182 1    
   119   58  183 1    
   120   59   60 am   BACKBONE|DICT|INTERRES
   121   59  184 1    
   122   60   61 2    
   123   60   62 1    
   124   62   63 1    
   125   62   64 1    
   126   62  185 1    
   127   63  186 1    
   128   63  187 1    
   129   63  188 1    
   130   64   65 am   BACKBONE|DICT|INTERRES
   131   64  189 1    
   132   65   66 2    
   133   67   68 2    
   134   67   69 am   BACKBONE|DICT|INTERRES
   135   69   70 1    
   136   69  190 1    
   137   70   71 1    
   138   70   72 1    
   139   70  191 1    
   140   71  192 1    
   141   71  193 1    
   142   71  194 1    
   143   72   73 2    
   144   72   74 am   BACKBONE|DICT|INTERRES
   145   74   75 1    
   146   74  195 1    
   147   75   76 1    
   148   75   77 1    
   149   75  196 1    
   150   76  197 1    
   151   76  198 1    
   152   76  199 1    
   153   77   78 2    
   154   77   79 am   BACKBONE|DICT|INTERRES
   155   79   80 1    
   156   79  200 1    
   157   80   81 1    
   158   80   82 1    
   159   80  201 1    
   160   81  202 1    
   161   81  203 1    
   162   81  204 1    
   163   82   83 2    
   164   82   84 am   BACKBONE|DICT|INTERRES
   165   84   85 1    
   166   84  205 1    
   167   85   86 1    
   168   85   87 1    
   169   85  206 1    
   170   86  207 1    
   171   86  208 1    
   172   86  209 1    
   173   87   88 2    
   174   87   89 am   BACKBONE|DICT|INTERRES
   175   89   90 1    
   176   89  210 1    
   177   90   91 1    
   178   90   92 1    
   179   90  211 1    
   180   91  212 1    
   181   91  213 1    
   182   91  214 1    
   183   92   93 2    
   184   92   94 am   BACKBONE|DICT|INTERRES
   185   94   95 1    
   186   94  215 1    
   187   95   96 1    
   188   95   97 1    
   189   95  216 1    
   190   96  217 1    
   191   96  218 1    
   192   96  219 1    
   193   97   98 2    
   194   97   99 am   BACKBONE|DICT|INTERRES
   195   99  100 1    
   196   99  220 1    
   197  100  101 1    
   198  100  102 1    
   199  100  221 1    
   200  101  222 1    
   201  101  223 1    
   202  101  224 1    
   203  102  103 2    
   204  102  104 am   BACKBONE|DICT|INTERRES
   205  104  105 1    
   206  104  225 1    
   207  105  106 1    
   208  105  107 1    
   209  105  226 1    
   210  106  227 1    
   211  106  228 1    
   212  106  229 1    
   213  107  108 2    
   214  107  109 am   BACKBONE|DICT|INTERRES
   215  109  110 1    
   216  109  230 1    
   217  110  111 1    
   218  110  112 1    
   219  110  231 1    
   220  111  232 1    
   221  111  233 1    
   222  111  234 1    
   223  112  113 2    
   224  112  114 am   BACKBONE|DICT|INTERRES
   225  114  115 1    
   226  114  235 1    
   227  115  116 1    
   228  115  117 1    
   229  115  236 1    
   230  116  237 1    
   231  116  238 1    
   232  116  239 1    
   233  117  118 2    
   234  117  119 am   BACKBONE|DICT|INTERRES
   235  119  120 1    
   236  119  240 1    
   237  120  121 1    
   238  120  124 1    
   239  120  241 1    
   240  121  122 am   BACKBONE|DICT|INTERRES
   241  121  123 2    
   242  122  242 1    
   243  122  243 1    
   244  124  125 1    
   245  124  244 1    
   246  124  245 1    
   247  125  126 1    
   248  126  246 1    
   249  126  247 1    
@<TRIPOS>SUBSTRUCTURE
     1 UNK         1 GROUP             0       ****    0 ROOT    
