@<TRIPOS>MOLECULE
3R540
247   249    1
SMALL
USER_CHARGES


@<TRIPOS>ATOM
      1 CA         -6.7736  -14.5136  -51.9719 C.3       0 UNK        -0.1800 
      2 C          -5.4804  -14.5213  -51.1691 C.2       0 UNK         0.5000 
      3 O          -4.7334  -13.5439  -51.2099 O.2       0 UNK        -0.5000 
      4 N          -5.2080  -15.6194  -50.4531 N.am      1 UNK        -0.5000 
      5 CA         -4.0444  -15.7789  -49.5773 C.3       1 UNK         0.1400 
      6 C6         -3.8498  -17.2525  -49.1431 C.3       23 UNK        -0.0398 
      7 S7         -2.1042  -17.5928  -48.7408 S.3       23 UNK        -0.2404 
      8 C8         -1.5422  -18.4026  -50.2678 C.3       23 UNK        -0.0205 
      9 C9         -0.0993  -18.0447  -50.5779 C.ar      23 UNK        -0.0193 
     10 C10         0.2230  -16.7593  -51.0195 C.ar      23 UNK        -0.1150 
     11 C11         1.5503  -16.4119  -51.2764 C.ar      23 UNK        -0.0193 
     12 C12         2.5568  -17.3641  -51.0913 C.ar      23 UNK        -0.1150 
     13 C13         2.2542  -18.6595  -50.6597 C.ar      23 UNK        -0.0193 
     14 C14         0.9151  -18.9903  -50.4131 C.ar      23 UNK        -0.1150 
     15 C15         3.4153  -19.6390  -50.4629 C.3       23 UNK        -0.0205 
     16 S16         2.9778  -21.3710  -50.0754 S.3       23 UNK        -0.2404 
     17 C17         2.5665  -21.2713  -48.2977 C.3       23 UNK        -0.0398 
     18 CA          1.6429  -22.4290  -47.8320 C.3       11 UNK         0.1400 
     19 N           1.8201  -22.7032  -46.4015 N.am      11 UNK        -0.5000 
     20 C           1.7182  -23.9199  -45.8512 C.2       10 UNK         0.5000 
     21 O           1.4887  -24.9470  -46.4892 O.2       10 UNK        -0.5000 
     22 CA          1.8944  -23.9978  -44.3239 C.3       10 UNK         0.1400 
     23 CB          3.3854  -23.9715  -43.9538 C.3       10 UNK        -0.1800 
     24 N           1.2049  -22.9391  -43.5852 N.am      10 UNK        -0.5000 
     25 C          -0.1022  -22.6461  -43.6173 C.2       9 UNK         0.5000 
     26 O          -0.9121  -23.2060  -44.3574 O.2       9 UNK        -0.5000 
     27 CA         -0.6022  -21.5210  -42.6888 C.3       9 UNK         0.1400 
     28 CB         -1.3831  -22.0947  -41.4924 C.3       9 UNK        -0.1800 
     29 N           0.4270  -20.5668  -42.2554 N.am      9 UNK        -0.5000 
     30 C           1.4605  -20.7451  -41.4198 C.2       8 UNK         0.5000 
     31 O           1.7385  -21.8197  -40.8888 O.2       8 UNK        -0.5000 
     32 CA          2.3653  -19.5250  -41.1725 C.3       8 UNK         0.1400 
     33 CB          3.5439  -19.5389  -42.1581 C.3       8 UNK        -0.1800 
     34 N           1.6477  -18.2542  -41.2917 N.am      8 UNK        -0.5000 
     35 C           0.7630  -17.7991  -40.3925 C.2       7 UNK         0.5000 
     36 O           0.5084  -18.3730  -39.3328 O.2       7 UNK        -0.5000 
     37 CA          0.0205  -16.4966  -40.7448 C.3       7 UNK         0.1400 
     38 CB          0.9030  -15.2715  -40.4642 C.3       7 UNK        -0.1800 
     39 N          -0.4381  -16.4642  -42.1345 N.am      7 UNK        -0.5000 
     40 C          -1.3745  -17.2760  -42.6470 C.2       6 UNK         0.5000 
     41 O          -1.9793  -18.1259  -41.9939 O.2       6 UNK        -0.5000 
     42 CA         -1.6666  -17.1371  -44.1505 C.3       6 UNK         0.1400 
     43 CB         -2.6996  -16.0338  -44.4150 C.3       6 UNK        -0.1800 
     44 N          -0.4573  -16.8745  -44.9277 N.am      6 UNK        -0.5000 
     45 C           0.5021  -17.7814  -45.1550 C.2       5 UNK         0.5000 
     46 O           0.4571  -18.9474  -44.7602 O.2       5 UNK        -0.5000 
     47 CA          1.7395  -17.2844  -45.9195 C.3       5 UNK         0.1400 
     48 CB          1.4461  -17.2015  -47.4219 C.3       5 UNK        -0.1800 
     49 N           2.2098  -15.9845  -45.4412 N.am      5 UNK        -0.5000 
     50 C           2.7053  -15.7670  -44.2151 C.2       4 UNK         0.5000 
     51 O           2.8330  -16.6453  -43.3639 O.2       4 UNK        -0.5000 
     52 CA          3.0895  -14.3199  -43.8611 C.3       4 UNK         0.1400 
     53 CB          4.5419  -14.0351  -44.2712 C.3       4 UNK        -0.1800 
     54 N           2.2143  -13.3059  -44.4519 N.am      4 UNK        -0.5000 
     55 C           0.8901  -13.2105  -44.2681 C.2       3 UNK         0.5000 
     56 O           0.2330  -14.0197  -43.6088 O.2       3 UNK        -0.5000 
     57 CA          0.1802  -11.9973  -44.9061 C.3       3 UNK         0.1400 
     58 CB          1.0283  -11.2517  -45.9626 C.3       3 UNK        -0.1800 
     59 N          -1.1339  -12.3344  -45.4597 N.am      3 UNK        -0.5000 
     60 C          -1.3983  -13.2149  -46.4342 C.2       2 UNK         0.5000 
     61 O          -0.5518  -13.9423  -46.9628 O.2       2 UNK        -0.5000 
     62 CA         -2.8615  -13.2693  -46.9034 C.3       2 UNK         0.1400 
     63 CB         -3.3415  -11.8970  -47.4218 C.3       2 UNK        -0.1800 
     64 N          -2.9908  -14.2632  -47.9628 N.am      2 UNK        -0.5000 
     65 C          -4.1330  -14.8306  -48.3610 C.2       1 UNK         0.5000 
     66 O          -5.2216  -14.6340  -47.8136 O.2       1 UNK        -0.5000 
     67 C           0.1628  -22.1561  -48.1819 C.2       11 UNK         0.5000 
     68 O          -0.2026  -22.2465  -49.3517 O.2       11 UNK        -0.5000 
     69 N          -0.6497  -21.8093  -47.1758 N.am      12 UNK        -0.5000 
     70 CA         -2.0427  -21.4037  -47.3152 C.3       12 UNK         0.1400 
     71 CB         -2.2893  -20.2049  -46.3799 C.3       12 UNK        -0.1800 
     72 C          -2.9713  -22.5997  -47.0403 C.2       12 UNK         0.5000 
     73 O          -3.0325  -23.5245  -47.8518 O.2       12 UNK        -0.5000 
     74 N          -3.6846  -22.5607  -45.9064 N.am      13 UNK        -0.5000 
     75 CA         -4.7154  -23.5096  -45.4868 C.3       13 UNK         0.1400 
     76 CB         -5.2751  -23.0654  -44.1272 C.3       13 UNK        -0.1800 
     77 C          -4.2597  -24.9775  -45.4228 C.2       13 UNK         0.5000 
     78 O          -5.0510  -25.8599  -45.7554 O.2       13 UNK        -0.5000 
     79 N          -2.9970  -25.2226  -45.0447 N.am      14 UNK        -0.5000 
     80 CA         -2.4154  -26.5676  -44.9858 C.3       14 UNK         0.1400 
     81 CB         -1.0998  -26.5176  -44.2017 C.3       14 UNK        -0.1800 
     82 C          -2.1887  -27.1917  -46.3778 C.2       14 UNK         0.5000 
     83 O          -2.1887  -28.4171  -46.4978 O.2       14 UNK        -0.5000 
     84 N          -2.0280  -26.3434  -47.4016 N.am      15 UNK        -0.5000 
     85 CA         -1.9269  -26.7283  -48.8098 C.3       15 UNK         0.1400 
     86 CB         -0.8953  -25.8111  -49.4873 C.3       15 UNK        -0.1800 
     87 C          -3.2883  -26.6375  -49.5312 C.2       15 UNK         0.5000 
     88 O          -3.3559  -26.9398  -50.7231 O.2       15 UNK        -0.5000 
     89 N          -4.3340  -26.1981  -48.8112 N.am      16 UNK        -0.5000 
     90 CA         -5.6846  -25.8707  -49.2818 C.3       16 UNK         0.1400 
     91 CB         -6.4099  -27.1278  -49.8049 C.3       16 UNK        -0.1800 
     92 C          -5.7150  -24.6957  -50.2854 C.2       16 UNK         0.5000 
     93 O          -6.6456  -24.5942  -51.0875 O.2       16 UNK        -0.5000 
     94 N          -4.7058  -23.8181  -50.2215 N.am      17 UNK        -0.5000 
     95 CA         -4.5562  -22.6499  -51.0792 C.3       17 UNK         0.1400 
     96 CB         -3.0624  -22.3965  -51.3296 C.3       17 UNK        -0.1800 
     97 C          -5.2472  -21.4442  -50.4277 C.2       17 UNK         0.5000 
     98 O          -4.6089  -20.6732  -49.7093 O.2       17 UNK        -0.5000 
     99 N          -6.5575  -21.3209  -50.6726 N.am      18 UNK        -0.5000 
    100 CA        -7.3482  -20.1475  -50.2970 C.3       18 UNK         0.1400 
    101 CB        -8.8428  -20.4904  -50.3820 C.3       18 UNK        -0.1800 
    102 C         -7.0149  -18.9306  -51.1814 C.2       18 UNK         0.5000 
    103 O         -7.0007  -17.8036  -50.6869 O.2       18 UNK        -0.5000 
    104 N         -6.7292  -19.1887  -52.4649 N.am      19 UNK        -0.5000 
    105 CA        -6.2241  -18.2156  -53.4314 C.3       19 UNK         0.1400 
    106 CB        -6.5085  -18.7399  -54.8474 C.3       19 UNK        -0.1800 
    107 C         -4.7150  -17.9778  -53.2411 C.2       19 UNK         0.5000 
    108 O         -4.0272  -18.8228  -52.6650 O.2       19 UNK        -0.5000 
    109 N         -4.2254  -16.8398  -53.7486 N.am      20 UNK        -0.5000 
    110 CA        -2.8209  -16.4342  -53.7067 C.3       20 UNK         0.1400 
    111 CB        -2.7133  -14.9525  -54.1038 C.3       20 UNK        -0.1800 
    112 C         -1.9432  -17.3254  -54.6073 C.2       20 UNK         0.5000 
    113 O         -1.8331  -17.0620  -55.8065 O.2       20 UNK        -0.5000 
    114 N         -1.3323  -18.3630  -54.0185 N.am      21 UNK        -0.5000 
    115 CA        -0.4628  -19.3317  -54.6979 C.3       21 UNK         0.1400 
    116 CB        -0.0851  -20.4496  -53.7149 C.3       21 UNK        -0.1800 
    117 C          0.8036  -18.7095  -55.3214 C.2       21 UNK         0.5000 
    118 O          1.3419  -19.2623  -56.2813 O.2       21 UNK        -0.5000 
    119 N          1.2310  -17.5587  -54.7888 N.am      22 UNK        -0.5000 
    120 CA         2.2598  -16.6823  -55.3652 C.3       22 UNK         0.1400 
    121 C          1.8441  -15.9483  -56.6780 C.2       22 UNK         0.5000 
    122 N          0.5811  -15.9556  -57.0907 N.am      22 UNK        -0.7600 
    123 O          2.6950  -15.3684  -57.3475 O.2       22 UNK        -0.5000 
    124 C124        2.8181  -15.6925  -54.3093 C.3       23 UNK        -0.0398 
    125 S125        1.5262  -14.7005  -53.4721 S.3       23 UNK        -0.2404 
    126 C126        1.8969  -14.9964  -51.7139 C.3       23 UNK        -0.0205 
    127 H127       -7.3377  -13.6043  -51.7644 H         1 UNK         0.0600 
    128 H128       -7.4089  -15.3647  -51.7283 H         1 UNK         0.0600 
    129 H129       -6.5533  -14.5429  -53.0387 H         1 UNK         0.0600 
    130 H130       -5.8803  -16.3845  -50.4443 H         1 UNK         0.3000 
    131 H131       -3.1798  -15.4824  -50.1761 H         1 UNK         0.0600 
    132 H132       -4.1618  -17.9322  -49.9375 H         1 UNK         0.0800 
    133 H133       -4.4749  -17.5066  -48.2851 H         1 UNK         0.0800 
    134 H134       -2.1646  -18.0897  -51.1005 H         1 UNK         0.0800 
    135 H135       -1.6743  -19.4819  -50.1748 H         1 UNK         0.0800 
    136 H136       -0.5564  -16.0204  -51.1407 H         1 UNK         0.1150 
    137 H137        3.5871  -17.0930  -51.2744 H         1 UNK         0.1150 
    138 H138        0.6471  -19.9788  -50.0803 H         1 UNK         0.1150 
    139 H139        4.0077  -19.6508  -51.3789 H         1 UNK         0.0800 
    140 H140        4.0719  -19.2577  -49.6796 H         1 UNK         0.0800 
    141 H141        2.1356  -20.2977  -48.0594 H         1 UNK         0.0800 
    142 H142        3.5157  -21.3139  -47.7616 H         1 UNK         0.0800 
    143 H143        1.9329  -23.3254  -48.3852 H         1 UNK         0.0600 
    144 H144        2.0095  -21.9135  -45.8013 H         1 UNK         0.3000 
    145 H145        1.4887  -24.9504  -43.9835 H         1 UNK         0.0600 
    146 H146        3.5286  -24.1289  -42.8844 H         1 UNK         0.0600 
    147 H147        3.9316  -24.7604  -44.4729 H         1 UNK         0.0600 
    148 H148        3.8508  -23.0208  -44.2169 H         1 UNK         0.0600 
    149 H149        1.7523  -22.4575  -42.8837 H         1 UNK         0.3000 
    150 H150       -1.3049  -20.9299  -43.2747 H         1 UNK         0.0600 
    151 H151       -2.2266  -22.6970  -41.8324 H         1 UNK         0.0600 
    152 H152       -1.7845  -21.2969  -40.8672 H         1 UNK         0.0600 
    153 H153       -0.7607  -22.7338  -40.8659 H         1 UNK         0.0600 
    154 H154        0.3632  -19.6633  -42.7092 H         1 UNK         0.3000 
    155 H155        2.7648  -19.6047  -40.1594 H         1 UNK         0.0600 
    156 H156        3.2045  -19.4504  -43.1912 H         1 UNK         0.0600 
    157 H157        4.1136  -20.4655  -42.0765 H         1 UNK         0.0600 
    158 H158        4.2316  -18.7164  -41.9608 H         1 UNK         0.0600 
    159 H159        1.8587  -17.6905  -42.1115 H         1 UNK         0.3000 
    160 H160       -0.8607  -16.4312  -40.1033 H         1 UNK         0.0600 
    161 H161        1.8147  -15.2889  -41.0602 H         1 UNK         0.0600 
    162 H162        1.1987  -15.2371  -39.4150 H         1 UNK         0.0600 
    163 H163        0.3747  -14.3438  -40.6851 H         1 UNK         0.0600 
    164 H164       -0.0359  -15.7488  -42.7333 H         1 UNK         0.3000 
    165 H165       -2.0943  -18.0815  -44.4901 H         1 UNK         0.0600 
    166 H166       -2.9609  -15.9915  -45.4724 H         1 UNK         0.0600 
    167 H167       -3.6202  -16.2202  -43.8608 H         1 UNK         0.0600 
    168 H168       -2.3281  -15.0536  -44.1149 H         1 UNK         0.0600 
    169 H169       -0.3201  -15.9293  -45.2595 H         1 UNK         0.3000 
    170 H170        2.5375  -18.0141  -45.7668 H         1 UNK         0.0600 
    171 H171        1.0299  -18.1415  -47.7827 H         1 UNK         0.0600 
    172 H172        0.7230  -16.4184  -47.6539 H         1 UNK         0.0600 
    173 H173        2.3520  -17.0024  -47.9941 H         1 UNK         0.0600 
    174 H174        2.1040  -15.1997  -46.0678 H         1 UNK         0.3000 
    175 H175        3.0199  -14.2175  -42.7771 H         1 UNK         0.0600 
    176 H176        4.6716  -14.0815  -45.3533 H         1 UNK         0.0600 
    177 H177        4.8611  -13.0481  -43.9360 H         1 UNK         0.0600 
    178 H178        5.2229  -14.7628  -43.8274 H         1 UNK         0.0600 
    179 H179        2.6664  -12.6009  -45.0155 H         1 UNK         0.3000 
    180 H180       -0.0076  -11.3017  -44.0872 H         1 UNK         0.0600 
    181 H181        1.3251  -11.9053  -46.7840 H         1 UNK         0.0600 
    182 H182        1.9335  -10.8300  -45.5243 H         1 UNK         0.0600 
    183 H183        0.4705  -10.4189  -46.3914 H         1 UNK         0.0600 
    184 H184       -1.9069  -11.8215  -45.0603 H         1 UNK         0.3000 
    185 H185       -3.4741  -13.5713  -46.0518 H         1 UNK         0.0600 
    186 H186       -2.7302  -11.5504  -48.2559 H         1 UNK         0.0600 
    187 H187       -4.3756  -11.9387  -47.7642 H         1 UNK         0.0600 
    188 H188       -3.2986  -11.1352  -46.6430 H         1 UNK         0.0600 
    189 H189       -2.1089  -14.5318  -48.3828 H         1 UNK         0.3000 
    190 H190       -0.2964  -21.8660  -46.2321 H         1 UNK         0.3000 
    191 H191       -2.2360  -21.0686  -48.3354 H         1 UNK         0.0600 
    192 H192       -3.2983  -19.8087  -46.5026 H         1 UNK         0.0600 
    193 H193       -1.5969  -19.3965  -46.6066 H         1 UNK         0.0600 
    194 H194       -2.1458  -20.4578  -45.3311 H         1 UNK         0.0600 
    195 H195       -3.5427  -21.7712  -45.2952 H         1 UNK         0.3000 
    196 H196       -5.5203  -23.4533  -46.2224 H         1 UNK         0.0600 
    197 H197       -6.0641  -23.7387  -43.7893 H         1 UNK         0.0600 
    198 H198       -5.7063  -22.0658  -44.1843 H         1 UNK         0.0600 
    199 H199       -4.5008  -23.0547  -43.3588 H         1 UNK         0.0600 
    200 H200       -2.3834  -24.4455  -44.8131 H         1 UNK         0.3000 
    201 H201       -3.1084  -27.2128  -44.4415 H         1 UNK         0.0600 
    202 H202       -1.2320  -26.0557  -43.2231 H         1 UNK         0.0600 
    203 H203       -0.3517  -25.9484  -44.7485 H         1 UNK         0.0600 
    204 H204       -0.6993  -27.5195  -44.0432 H         1 UNK         0.0600 
    205 H205       -2.0759  -25.3470  -47.2224 H         1 UNK         0.3000 
    206 H206       -1.5753  -27.7585  -48.8936 H         1 UNK         0.0600 
    207 H207        0.0633  -25.8402  -48.9685 H         1 UNK         0.0600 
    208 H208       -0.7166  -26.1157  -50.5190 H         1 UNK         0.0600 
    209 H209       -1.2333  -24.7747  -49.5073 H         1 UNK         0.0600 
    210 H210       -4.1654  -25.9949  -47.8349 H         1 UNK         0.3000 
    211 H211       -6.2288  -25.5229  -48.4028 H         1 UNK         0.0600 
    212 H212       -5.9731  -27.4918  -50.7351 H         1 UNK         0.0600 
    213 H213       -7.4624  -26.9191  -49.9998 H         1 UNK         0.0600 
    214 H214       -6.3711  -27.9369  -49.0756 H         1 UNK         0.0600 
    215 H215       -4.0205  -23.9131  -49.4768 H         1 UNK         0.3000 
    216 H216       -5.0220  -22.8329  -52.0499 H         1 UNK         0.0600 
    217 H217       -2.9162  -21.5026  -51.9371 H         1 UNK         0.0600 
    218 H218       -2.5998  -23.2328  -51.8536 H         1 UNK         0.0600 
    219 H219       -2.5234  -22.2499  -50.3960 H         1 UNK         0.0600 
    220 H220       -7.0241  -22.0406  -51.2078 H         1 UNK         0.3000 
    221 H221       -7.1159  -19.8844  -49.2626 H         1 UNK         0.0600 
    222 H222       -9.1363  -20.7737  -51.3935 H         1 UNK         0.0600 
    223 H223       -9.0961  -21.3150  -49.7154 H         1 UNK         0.0600 
    224 H224       -9.4553  -19.6365  -50.0892 H         1 UNK         0.0600 
    225 H225       -6.7210  -20.1522  -52.7619 H         1 UNK         0.3000 
    226 H226       -6.7511  -17.2697  -53.2932 H         1 UNK         0.0600 
    227 H227       -5.9925  -19.6817  -55.0394 H         1 UNK         0.0600 
    228 H228       -7.5753  -18.9049  -54.9997 H         1 UNK         0.0600 
    229 H229       -6.1808  -18.0268  -55.6049 H         1 UNK         0.0600 
    230 H230       -4.8454  -16.2251  -54.2549 H         1 UNK         0.3000 
    231 H231       -2.4666  -16.5172  -52.6794 H         1 UNK         0.0600 
    232 H232       -3.1104  -14.7689  -55.1029 H         1 UNK         0.0600 
    233 H233       -1.6734  -14.6226  -54.0984 H         1 UNK         0.0600 
    234 H234       -3.2564  -14.3157  -53.4064 H         1 UNK         0.0600 
    235 H235       -1.5330  -18.5520  -53.0475 H         1 UNK         0.3000 
    236 H236       -1.0418  -19.7747  -55.5107 H         1 UNK         0.0600 
    237 H237       -0.9693  -20.9156  -53.2812 H         1 UNK         0.0600 
    238 H238        0.4814  -21.2344  -54.2175 H         1 UNK         0.0600 
    239 H239        0.5338  -20.0754  -52.9005 H         1 UNK         0.0600 
    240 H240        0.7357  -17.1823  -53.9940 H         1 UNK         0.3000 
    241 H241        3.0905  -17.3279  -55.6565 H         1 UNK         0.0600 
    242 H242        0.3432  -15.4786  -57.9455 H         1 UNK         0.3800 
    243 H243       -0.1507  -16.4206  -56.5630 H         1 UNK         0.3800 
    244 H244        3.3827  -16.2537  -53.5657 H         1 UNK         0.0800 
    245 H245        3.5424  -15.0105  -54.7580 H         1 UNK         0.0800 
    246 H246        1.3264  -14.2874  -51.1120 H         1 UNK         0.0800 
    247 H247        2.9482  -14.7769  -51.5213 H         1 UNK         0.0800 
@<TRIPOS>BOND
     1    1    2 1    
     2    1  127 1    
     3    1  128 1    
     4    1  129 1    
     5    2    3 2    
     6    2    4 am   BACKBONE|DICT|INTERRES
     7    4    5 1    
     8    4  130 1    
     9    5    6 1    
    10    5   65 1    
    11    5  131 1    
    12    6    7 1    
    13    6  132 1    
    14    6  133 1    
    15    7    8 1    
    16    8    9 1    
    17    8  134 1    
    18    8  135 1    
    19    9   10 ar   
    20    9   14 ar   
    21   10   11 ar   
    22   10  136 1    
    23   11   12 ar   
    24   11  126 1    
    25   12   13 ar   
    26   12  137 1    
    27   13   14 ar   
    28   13   15 1    
    29   14  138 1    
    30   15   16 1    
    31   15  139 1    
    32   15  140 1    
    33   16   17 1    
    34   17   18 1    
    35   17  141 1    
    36   17  142 1    
    37   18   19 1    
    38   18   67 1    
    39   18  143 1    
    40   19   20 am   BACKBONE|DICT|INTERRES
    41   19  144 1    
    42   20   21 2    
    43   20   22 1    
    44   22   23 1    
    45   22   24 1    
    46   22  145 1    
    47   23  146 1    
    48   23  147 1    
    49   23  148 1    
    50   24   25 am   BACKBONE|DICT|INTERRES
    51   24  149 1    
    52   25   26 2    
    53   25   27 1    
    54   27   28 1    
    55   27   29 1    
    56   27  150 1    
    57   28  151 1    
    58   28  152 1    
    59   28  153 1    
    60   29   30 am   BACKBONE|DICT|INTERRES
    61   29  154 1    
    62   30   31 2    
    63   30   32 1    
    64   32   33 1    
    65   32   34 1    
    66   32  155 1    
    67   33  156 1    
    68   33  157 1    
    69   33  158 1    
    70   34   35 am   BACKBONE|DICT|INTERRES
    71   34  159 1    
    72   35   36 2    
    73   35   37 1    
    74   37   38 1    
    75   37   39 1    
    76   37  160 1    
    77   38  161 1    
    78   38  162 1    
    79   38  163 1    
    80   39   40 am   BACKBONE|DICT|INTERRES
    81   39  164 1    
    82   40   41 2    
    83   40   42 1    
    84   42   43 1    
    85   42   44 1    
    86   42  165 1    
    87   43  166 1    
    88   43  167 1    
    89   43  168 1    
    90   44   45 am   BACKBONE|DICT|INTERRES
    91   44  169 1    
    92   45   46 2    
    93   45   47 1    
    94   47   48 1    
    95   47   49 1    
    96   47  170 1    
    97   48  171 1    
    98   48  172 1    
    99   48  173 1    
   100   49   50 am   BACKBONE|DICT|INTERRES
   101   49  174 1    
   102   50   51 2    
   103   50   52 1    
   104   52   53 1    
   105   52   54 1    
   106   52  175 1    
   107   53  176 1    
   108   53  177 1    
   109   53  178 1    
   110   54   55 am   BACKBONE|DICT|INTERRES
   111   54  179 1    
   112   55   56 2    
   113   55   57 1    
   114   57   58 1    
   115   57   59 1    
   116   57  180 1    
   117   58  181 1    
   118   58  182 1    
   119   58  183 1    
   120   59   60 am   BACKBONE|DICT|INTERRES
   121   59  184 1    
   122   60   61 2    
   123   60   62 1    
   124   62   63 1    
   125   62   64 1    
   126   62  185 1    
   127   63  186 1    
   128   63  187 1    
   129   63  188 1    
   130   64   65 am   BACKBONE|DICT|INTERRES
   131   64  189 1    
   132   65   66 2    
   133   67   68 2    
   134   67   69 am   BACKBONE|DICT|INTERRES
   135   69   70 1    
   136   69  190 1    
   137   70   71 1    
   138   70   72 1    
   139   70  191 1    
   140   71  192 1    
   141   71  193 1    
   142   71  194 1    
   143   72   73 2    
   144   72   74 am   BACKBONE|DICT|INTERRES
   145   74   75 1    
   146   74  195 1    
   147   75   76 1    
   148   75   77 1    
   149   75  196 1    
   150   76  197 1    
   151   76  198 1    
   152   76  199 1    
   153   77   78 2    
   154   77   79 am   BACKBONE|DICT|INTERRES
   155   79   80 1    
   156   79  200 1    
   157   80   81 1    
   158   80   82 1    
   159   80  201 1    
   160   81  202 1    
   161   81  203 1    
   162   81  204 1    
   163   82   83 2    
   164   82   84 am   BACKBONE|DICT|INTERRES
   165   84   85 1    
   166   84  205 1    
   167   85   86 1    
   168   85   87 1    
   169   85  206 1    
   170   86  207 1    
   171   86  208 1    
   172   86  209 1    
   173   87   88 2    
   174   87   89 am   BACKBONE|DICT|INTERRES
   175   89   90 1    
   176   89  210 1    
   177   90   91 1    
   178   90   92 1    
   179   90  211 1    
   180   91  212 1    
   181   91  213 1    
   182   91  214 1    
   183   92   93 2    
   184   92   94 am   BACKBONE|DICT|INTERRES
   185   94   95 1    
   186   94  215 1    
   187   95   96 1    
   188   95   97 1    
   189   95  216 1    
   190   96  217 1    
   191   96  218 1    
   192   96  219 1    
   193   97   98 2    
   194   97   99 am   BACKBONE|DICT|INTERRES
   195   99  100 1    
   196   99  220 1    
   197  100  101 1    
   198  100  102 1    
   199  100  221 1    
   200  101  222 1    
   201  101  223 1    
   202  101  224 1    
   203  102  103 2    
   204  102  104 am   BACKBONE|DICT|INTERRES
   205  104  105 1    
   206  104  225 1    
   207  105  106 1    
   208  105  107 1    
   209  105  226 1    
   210  106  227 1    
   211  106  228 1    
   212  106  229 1    
   213  107  108 2    
   214  107  109 am   BACKBONE|DICT|INTERRES
   215  109  110 1    
   216  109  230 1    
   217  110  111 1    
   218  110  112 1    
   219  110  231 1    
   220  111  232 1    
   221  111  233 1    
   222  111  234 1    
   223  112  113 2    
   224  112  114 am   BACKBONE|DICT|INTERRES
   225  114  115 1    
   226  114  235 1    
   227  115  116 1    
   228  115  117 1    
   229  115  236 1    
   230  116  237 1    
   231  116  238 1    
   232  116  239 1    
   233  117  118 2    
   234  117  119 am   BACKBONE|DICT|INTERRES
   235  119  120 1    
   236  119  240 1    
   237  120  121 1    
   238  120  124 1    
   239  120  241 1    
   240  121  122 am   BACKBONE|DICT|INTERRES
   241  121  123 2    
   242  122  242 1    
   243  122  243 1    
   244  124  125 1    
   245  124  244 1    
   246  124  245 1    
   247  125  126 1    
   248  126  246 1    
   249  126  247 1    
@<TRIPOS>SUBSTRUCTURE
     1 UNK         1 GROUP             0       ****    0 ROOT    
