@<TRIPOS>MOLECULE
3R540
247   249    1
SMALL
USER_CHARGES


@<TRIPOS>ATOM
      1 CA          2.6674  -18.2313  -49.7058 C.3       0 UNK        -0.1800 
      2 C           2.0066  -18.5349  -48.3710 C.2       0 UNK         0.5000 
      3 O           2.5672  -19.2734  -47.5621 O.2       0 UNK        -0.5000 
      4 N           0.8140  -17.9791  -48.1319 N.am      1 UNK        -0.5000 
      5 CA          0.0437  -18.1567  -46.8946 C.3       1 UNK         0.1400 
      6 C6         -1.4835  -18.0918  -47.1458 C.3       23 UNK        -0.0398 
      7 S7         -2.0491  -16.5433  -47.9369 S.3       23 UNK        -0.2404 
      8 C8         -2.7957  -17.1657  -49.4766 C.3       23 UNK        -0.0205 
      9 C9         -1.7588  -17.7318  -50.4374 C.ar      23 UNK        -0.0193 
     10 C10        -0.9640  -16.8691  -51.1974 C.ar      23 UNK        -0.1150 
     11 C11        -0.0196  -17.3800  -52.0919 C.ar      23 UNK        -0.0193 
     12 C12         0.1512  -18.7622  -52.1984 C.ar      23 UNK        -0.1150 
     13 C13        -0.6370  -19.6354  -51.4483 C.ar      23 UNK        -0.0193 
     14 C14        -1.6066  -19.1146  -50.5846 C.ar      23 UNK        -0.1150 
     15 C15        -0.4489  -21.1377  -51.5988 C.3       23 UNK        -0.0205 
     16 S16         0.7190  -21.8254  -50.3826 S.3       23 UNK        -0.2404 
     17 C17        -0.2235  -21.5926  -48.8433 C.3       23 UNK        -0.0398 
     18 CA          0.3159  -22.3995  -47.6368 C.3       11 UNK         0.1400 
     19 N           1.7144  -22.0860  -47.3449 N.am      11 UNK        -0.5000 
     20 C           2.6210  -22.9423  -46.8573 C.2       10 UNK         0.5000 
     21 O           2.3840  -24.1257  -46.6141 O.2       10 UNK        -0.5000 
     22 CA          3.9995  -22.3492  -46.5274 C.3       10 UNK         0.1400 
     23 CB          4.8203  -22.1267  -47.8072 C.3       10 UNK        -0.1800 
     24 N           3.8310  -21.0766  -45.8307 N.am      10 UNK        -0.5000 
     25 C           3.6517  -20.9524  -44.5127 C.2       9 UNK         0.5000 
     26 O           3.7657  -21.8817  -43.7105 O.2       9 UNK        -0.5000 
     27 CA          3.2314  -19.5568  -44.0128 C.3       9 UNK         0.1400 
     28 CB          1.8052  -19.6195  -43.4450 C.3       9 UNK        -0.1800 
     29 N           4.1165  -19.0311  -42.9758 N.am      9 UNK        -0.5000 
     30 C           5.4464  -18.8806  -43.0617 C.2       8 UNK         0.5000 
     31 O           6.0958  -19.1145  -44.0818 O.2       8 UNK        -0.5000 
     32 CA          6.1853  -18.3586  -41.8092 C.3       8 UNK         0.1400 
     33 CB          6.7714  -16.9619  -42.0743 C.3       8 UNK        -0.1800 
     34 N           5.3496  -18.2832  -40.6090 N.am      8 UNK        -0.5000 
     35 C           4.8676  -19.3210  -39.9108 C.2       7 UNK         0.5000 
     36 O           5.1368  -20.4946  -40.1657 O.2       7 UNK        -0.5000 
     37 CA          3.9133  -18.9962  -38.7407 C.3       7 UNK         0.1400 
     38 CB          4.5541  -19.3791  -37.3971 C.3       7 UNK        -0.1800 
     39 N           3.5066  -17.5873  -38.6815 N.am      7 UNK        -0.5000 
     40 C           2.6630  -16.9834  -39.5285 C.2       6 UNK         0.5000 
     41 O           2.1095  -17.5493  -40.4742 O.2       6 UNK        -0.5000 
     42 CA          2.4674  -15.4792  -39.3090 C.3       6 UNK         0.1400 
     43 CB          3.5986  -14.6816  -39.9822 C.3       6 UNK        -0.1800 
     44 N           1.1835  -15.0531  -39.8556 N.am      6 UNK        -0.5000 
     45 C           0.4327  -14.0665  -39.3512 C.2       5 UNK         0.5000 
     46 O           0.7470  -13.4245  -38.3473 O.2       5 UNK        -0.5000 
     47 CA         -0.8802  -13.7155  -40.0733 C.3       5 UNK         0.1400 
     48 CB         -0.8118  -12.2916  -40.6512 C.3       5 UNK        -0.1800 
     49 N          -1.1966  -14.6340  -41.1665 N.am      5 UNK        -0.5000 
     50 C          -2.1297  -15.5960  -41.1191 C.2       4 UNK         0.5000 
     51 O          -2.7301  -15.9060  -40.0885 O.2       4 UNK        -0.5000 
     52 CA         -2.4558  -16.3237  -42.4455 C.3       4 UNK         0.1400 
     53 CB         -3.9171  -16.8117  -42.5227 C.3       4 UNK        -0.1800 
     54 N          -2.1031  -15.5411  -43.6353 N.am      4 UNK        -0.5000 
     55 C          -2.5639  -14.3304  -43.9945 C.2       3 UNK         0.5000 
     56 O          -3.5052  -13.7673  -43.4340 O.2       3 UNK        -0.5000 
     57 CA         -1.8261  -13.6070  -45.1476 C.3       3 UNK         0.1400 
     58 CB         -1.7226  -12.0870  -44.9044 C.3       3 UNK        -0.1800 
     59 N          -0.5013  -14.1629  -45.4588 N.am      3 UNK        -0.5000 
     60 C           0.5587  -14.2837  -44.6409 C.2       2 UNK         0.5000 
     61 O           0.5812  -13.8625  -43.4829 O.2       2 UNK        -0.5000 
     62 CA          1.7494  -15.0998  -45.1987 C.3       2 UNK         0.1400 
     63 CB          2.6736  -15.6391  -44.0852 C.3       2 UNK        -0.1800 
     64 N           1.3197  -16.1949  -46.0843 N.am      2 UNK        -0.5000 
     65 C           0.4585  -17.1798  -45.7769 C.2       1 UNK         0.5000 
     66 O          -0.0564  -17.3040  -44.6668 O.2       1 UNK        -0.5000 
     67 C          -0.5230  -22.1343  -46.3702 C.2       11 UNK         0.5000 
     68 O          -1.4134  -21.2836  -46.3901 O.2       11 UNK        -0.5000 
     69 N          -0.2082  -22.8374  -45.2739 N.am      12 UNK        -0.5000 
     70 CA         -0.7839  -22.6311  -43.9384 C.3       12 UNK         0.1400 
     71 CB         -0.0697  -23.5565  -42.9425 C.3       12 UNK        -0.1800 
     72 C          -2.3150  -22.8080  -43.8512 C.2       12 UNK         0.5000 
     73 O          -2.9400  -22.2312  -42.9610 O.2       12 UNK        -0.5000 
     74 N          -2.8931  -23.5768  -44.7842 N.am      13 UNK        -0.5000 
     75 CA         -4.3374  -23.7562  -44.9405 C.3       13 UNK         0.1400 
     76 CB         -4.5876  -25.0053  -45.8003 C.3       13 UNK        -0.1800 
     77 C          -5.0477  -22.5357  -45.5631 C.2       13 UNK         0.5000 
     78 O          -6.2672  -22.4290  -45.4320 O.2       13 UNK        -0.5000 
     79 N          -4.2947  -21.6671  -46.2585 N.am      14 UNK        -0.5000 
     80 CA         -4.6878  -20.4450  -46.9789 C.3       14 UNK         0.1400 
     81 CB         -5.2458  -19.3857  -46.0126 C.3       14 UNK        -0.1800 
     82 C          -5.6250  -20.6470  -48.1889 C.2       14 UNK         0.5000 
     83 O          -5.4633  -19.9559  -49.1958 O.2       14 UNK        -0.5000 
     84 N          -6.5558  -21.6054  -48.0957 N.am      15 UNK        -0.5000 
     85 CA         -7.5761  -21.9533  -49.0906 C.3       15 UNK         0.1400 
     86 CB         -8.4534  -23.0790  -48.5233 C.3       15 UNK        -0.1800 
     87 C          -7.0263  -22.3500  -50.4744 C.2       15 UNK         0.5000 
     88 O          -7.7433  -22.2261  -51.4665 O.2       15 UNK        -0.5000 
     89 N          -5.7540  -22.7670  -50.5318 N.am      16 UNK        -0.5000 
     90 CA         -4.9984  -23.0538  -51.7537 C.3       16 UNK         0.1400 
     91 CB         -3.6138  -23.5852  -51.3586 C.3       16 UNK        -0.1800 
     92 C          -4.8818  -21.8575  -52.7244 C.2       16 UNK         0.5000 
     93 O          -4.6782  -22.0695  -53.9206 O.2       16 UNK        -0.5000 
     94 N          -5.0750  -20.6263  -52.2275 N.am      17 UNK        -0.5000 
     95 CA         -5.2052  -19.4204  -53.0481 C.3       17 UNK         0.1400 
     96 CB         -5.2949  -18.1909  -52.1370 C.3       17 UNK        -0.1800 
     97 C          -6.4110  -19.4634  -54.0094 C.2       17 UNK         0.5000 
     98 O          -6.3108  -18.9414  -55.1195 O.2       17 UNK        -0.5000 
     99 N          -7.5054  -20.1278  -53.6039 N.am      18 UNK        -0.5000 
    100 CA        -8.6952  -20.3425  -54.4351 C.3       18 UNK         0.1400 
    101 CB        -9.8819  -20.7412  -53.5449 C.3       18 UNK        -0.1800 
    102 C         -8.4671  -21.3919  -55.5416 C.2       18 UNK         0.5000 
    103 O         -9.1687  -21.3675  -56.5528 O.2       18 UNK        -0.5000 
    104 N         -7.4675  -22.2649  -55.3516 N.am      19 UNK        -0.5000 
    105 CA        -6.9691  -23.2132  -56.3503 C.3       19 UNK         0.1400 
    106 CB        -6.4463  -24.4677  -55.6290 C.3       19 UNK        -0.1800 
    107 C         -5.8833  -22.5915  -57.2575 C.2       19 UNK         0.5000 
    108 O         -5.3215  -23.3002  -58.0933 O.2       19 UNK        -0.5000 
    109 N         -5.6090  -21.2888  -57.0800 N.am      20 UNK        -0.5000 
    110 CA        -4.6499  -20.4583  -57.8119 C.3       20 UNK         0.1400 
    111 CB        -5.0098  -20.3748  -59.3103 C.3       20 UNK        -0.1800 
    112 C         -3.1775  -20.8433  -57.5653 C.2       20 UNK         0.5000 
    113 O         -2.3258  -20.5684  -58.4131 O.2       20 UNK        -0.5000 
    114 N         -2.8776  -21.4207  -56.3906 N.am      21 UNK        -0.5000 
    115 CA        -1.5240  -21.8219  -55.9841 C.3       21 UNK         0.1400 
    116 CB        -1.6121  -22.6574  -54.7006 C.3       21 UNK        -0.1800 
    117 C         -0.5421  -20.6420  -55.8064 C.2       21 UNK         0.5000 
    118 O          0.6704  -20.8530  -55.8401 O.2       21 UNK        -0.5000 
    119 N         -1.0806  -19.4256  -55.6511 N.am      22 UNK        -0.5000 
    120 CA        -0.3419  -18.1541  -55.6957 C.3       22 UNK         0.1400 
    121 C          0.1178  -17.7321  -57.1268 C.2       22 UNK         0.5000 
    122 N         -0.3501  -18.3618  -58.1997 N.am      22 UNK        -0.7600 
    123 O          0.9326  -16.8256  -57.2718 O.2       22 UNK        -0.5000 
    124 C124       -1.1566  -17.0368  -54.9880 C.3       23 UNK        -0.0398 
    125 S125       -0.1658  -15.6637  -54.2925 S.3       23 UNK        -0.2404 
    126 C126        0.8083  -16.4462  -52.9604 C.3       23 UNK        -0.0205 
    127 H127        2.1952  -17.3855  -50.2047 H         1 UNK         0.0600 
    128 H128        2.6002  -19.1000  -50.3607 H         1 UNK         0.0600 
    129 H129        3.7205  -17.9927  -49.5590 H         1 UNK         0.0600 
    130 H130        0.3729  -17.4081  -48.8405 H         1 UNK         0.3000 
    131 H131        0.2545  -19.1516  -46.4995 H         1 UNK         0.0600 
    132 H132       -2.0373  -18.2284  -46.2148 H         1 UNK         0.0800 
    133 H133       -1.7717  -18.9369  -47.7670 H         1 UNK         0.0800 
    134 H134       -3.3273  -16.3470  -49.9636 H         1 UNK         0.0800 
    135 H135       -3.5510  -17.9146  -49.2334 H         1 UNK         0.0800 
    136 H136       -1.0927  -15.7994  -51.1067 H         1 UNK         0.1150 
    137 H137        0.8895  -19.1637  -52.8781 H         1 UNK         0.1150 
    138 H138       -2.2370  -19.7856  -50.0189 H         1 UNK         0.1150 
    139 H139       -1.4088  -21.6442  -51.5234 H         1 UNK         0.0800 
    140 H140       -0.0654  -21.3588  -52.5952 H         1 UNK         0.0800 
    141 H141       -0.2172  -20.5281  -48.6187 H         1 UNK         0.0800 
    142 H142       -1.2630  -21.8642  -49.0355 H         1 UNK         0.0800 
    143 H143        0.2195  -23.4603  -47.8774 H         1 UNK         0.0600 
    144 H144        1.9935  -21.1202  -47.4848 H         1 UNK         0.3000 
    145 H145        4.5386  -23.0544  -45.8910 H         1 UNK         0.0600 
    146 H146        5.8098  -21.7327  -47.5746 H         1 UNK         0.0600 
    147 H147        4.3331  -21.4255  -48.4864 H         1 UNK         0.0600 
    148 H148        4.9612  -23.0636  -48.3475 H         1 UNK         0.0600 
    149 H149        3.6538  -20.2690  -46.4232 H         1 UNK         0.3000 
    150 H150        3.2450  -18.8512  -44.8459 H         1 UNK         0.0600 
    151 H151        1.0921  -19.9093  -44.2170 H         1 UNK         0.0600 
    152 H152        1.4908  -18.6534  -43.0516 H         1 UNK         0.0600 
    153 H153        1.7243  -20.3437  -42.6332 H         1 UNK         0.0600 
    154 H154        3.6754  -18.8024  -42.0964 H         1 UNK         0.3000 
    155 H155        7.0090  -19.0465  -41.6085 H         1 UNK         0.0600 
    156 H156        7.4420  -16.9738  -42.9346 H         1 UNK         0.0600 
    157 H157        7.3493  -16.6068  -41.2208 H         1 UNK         0.0600 
    158 H158        5.9885  -16.2303  -42.2789 H         1 UNK         0.0600 
    159 H159        5.0772  -17.3581  -40.3145 H         1 UNK         0.3000 
    160 H160        3.0170  -19.6048  -38.8783 H         1 UNK         0.0600 
    161 H161        5.4565  -18.7984  -37.2018 H         1 UNK         0.0600 
    162 H162        4.8329  -20.4336  -37.3813 H         1 UNK         0.0600 
    163 H163        3.8633  -19.2166  -36.5695 H         1 UNK         0.0600 
    164 H164        3.9254  -17.0404  -37.9423 H         1 UNK         0.3000 
    165 H165        2.4883  -15.2953  -38.2325 H         1 UNK         0.0600 
    166 H166        3.4798  -13.6110  -39.8147 H         1 UNK         0.0600 
    167 H167        4.5738  -14.9636  -39.5839 H         1 UNK         0.0600 
    168 H168        3.6207  -14.8495  -41.0595 H         1 UNK         0.0600 
    169 H169        0.8493  -15.5842  -40.6488 H         1 UNK         0.3000 
    170 H170       -1.6742  -13.7339  -39.3242 H         1 UNK         0.0600 
    171 H171       -0.6418  -11.5554  -39.8647 H         1 UNK         0.0600 
    172 H172       -0.0037  -12.1900  -41.3764 H         1 UNK         0.0600 
    173 H173       -1.7437  -12.0240  -41.1500 H         1 UNK         0.0600 
    174 H174       -0.7223  -14.4502  -42.0458 H         1 UNK         0.3000 
    175 H175       -1.8141  -17.2057  -42.4669 H         1 UNK         0.0600 
    176 H176       -4.6257  -15.9889  -42.4250 H         1 UNK         0.0600 
    177 H177       -4.1144  -17.3144  -43.4695 H         1 UNK         0.0600 
    178 H178       -4.1339  -17.5252  -41.7270 H         1 UNK         0.0600 
    179 H179       -1.3271  -15.9311  -44.1622 H         1 UNK         0.3000 
    180 H180       -2.4370  -13.7610  -46.0382 H         1 UNK         0.0600 
    181 H181       -1.2045  -11.5904  -45.7248 H         1 UNK         0.0600 
    182 H182       -1.1860  -11.8606  -43.9824 H         1 UNK         0.0600 
    183 H183       -2.7110  -11.6328  -44.8261 H         1 UNK         0.0600 
    184 H184       -0.4203  -14.5747  -46.3779 H         1 UNK         0.3000 
    185 H185        2.3325  -14.4116  -45.8120 H         1 UNK         0.0600 
    186 H186        2.1354  -16.2745  -43.3811 H         1 UNK         0.0600 
    187 H187        3.4961  -16.2216  -44.5001 H         1 UNK         0.0600 
    188 H188        3.1132  -14.8209  -43.5141 H         1 UNK         0.0600 
    189 H189        1.6785  -16.1663  -47.0281 H         1 UNK         0.3000 
    190 H190        0.5415  -23.5139  -45.3432 H         1 UNK         0.3000 
    191 H191       -0.5730  -21.5997  -43.6506 H         1 UNK         0.0600 
    192 H192       -0.4499  -23.4118  -41.9303 H         1 UNK         0.0600 
    193 H193        1.0017  -23.3549  -42.9169 H         1 UNK         0.0600 
    194 H194       -0.2093  -24.6071  -43.1997 H         1 UNK         0.0600 
    195 H195       -2.3008  -24.0288  -45.4647 H         1 UNK         0.3000 
    196 H196       -4.7766  -23.9252  -43.9550 H         1 UNK         0.0600 
    197 H197       -4.1645  -24.8984  -46.8000 H         1 UNK         0.0600 
    198 H198       -5.6559  -25.1945  -45.9150 H         1 UNK         0.0600 
    199 H199       -4.1502  -25.8931  -45.3430 H         1 UNK         0.0600 
    200 H200       -3.2936  -21.8345  -46.2715 H         1 UNK         0.3000 
    201 H201       -3.7600  -20.0486  -47.3894 H         1 UNK         0.0600 
    202 H202       -6.1856  -19.7025  -45.5596 H         1 UNK         0.0600 
    203 H203       -5.4330  -18.4449  -46.5321 H         1 UNK         0.0600 
    204 H204       -4.5388  -19.1776  -45.2095 H         1 UNK         0.0600 
    205 H205       -6.6162  -22.0851  -47.2009 H         1 UNK         0.3000 
    206 H206       -8.2013  -21.0704  -49.2365 H         1 UNK         0.0600 
    207 H207       -8.9316  -22.7750  -47.5920 H         1 UNK         0.0600 
    208 H208       -9.2467  -23.3490  -49.2219 H         1 UNK         0.0600 
    209 H209       -7.8704  -23.9788  -48.3224 H         1 UNK         0.0600 
    210 H210       -5.2467  -22.8321  -49.6624 H         1 UNK         0.3000 
    211 H211       -5.5262  -23.8436  -52.2919 H         1 UNK         0.0600 
    212 H212       -3.0979  -22.8964  -50.6904 H         1 UNK         0.0600 
    213 H213       -2.9824  -23.7433  -52.2336 H         1 UNK         0.0600 
    214 H214       -3.6960  -24.5432  -50.8449 H         1 UNK         0.0600 
    215 H215       -5.2328  -20.5156  -51.2316 H         1 UNK         0.3000 
    216 H216       -4.3013  -19.3305  -53.6543 H         1 UNK         0.0600 
    217 H217       -5.3848  -17.2734  -52.7200 H         1 UNK         0.0600 
    218 H218       -4.3997  -18.1001  -51.5271 H         1 UNK         0.0600 
    219 H219       -6.1541  -18.2455  -51.4672 H         1 UNK         0.0600 
    220 H220       -7.5006  -20.5925  -52.7022 H         1 UNK         0.3000 
    221 H221       -8.9445  -19.3979  -54.9233 H         1 UNK         0.0600 
    222 H222      -10.8029  -20.7904  -54.1270 H         1 UNK         0.0600 
    223 H223       -9.7351  -21.7202  -53.0884 H         1 UNK         0.0600 
    224 H224      -10.0404  -20.0166  -52.7461 H         1 UNK         0.0600 
    225 H225       -6.9234  -22.1934  -54.5028 H         1 UNK         0.3000 
    226 H226       -7.7929  -23.5196  -56.9979 H         1 UNK         0.0600 
    227 H227       -7.2068  -24.8925  -54.9736 H         1 UNK         0.0600 
    228 H228       -6.1689  -25.2417  -56.3454 H         1 UNK         0.0600 
    229 H229       -5.5644  -24.2540  -55.0258 H         1 UNK         0.0600 
    230 H230       -6.1163  -20.8015  -56.3529 H         1 UNK         0.3000 
    231 H231       -4.7596  -19.4538  -57.4014 H         1 UNK         0.0600 
    232 H232       -4.4055  -19.6210  -59.8162 H         1 UNK         0.0600 
    233 H233       -6.0545  -20.0968  -59.4501 H         1 UNK         0.0600 
    234 H234       -4.8421  -21.3223  -59.8228 H         1 UNK         0.0600 
    235 H235       -3.6233  -21.6192  -55.7320 H         1 UNK         0.3000 
    236 H236       -1.1189  -22.4592  -56.7728 H         1 UNK         0.0600 
    237 H237       -2.0091  -22.0683  -53.8752 H         1 UNK         0.0600 
    238 H238       -2.2596  -23.5240  -54.8361 H         1 UNK         0.0600 
    239 H239       -0.6304  -23.0276  -54.4031 H         1 UNK         0.0600 
    240 H240       -2.0864  -19.3578  -55.6377 H         1 UNK         0.3000 
    241 H241        0.5766  -18.3115  -55.1300 H         1 UNK         0.0600 
    242 H242       -0.0299  -18.0751  -59.1111 H         1 UNK         0.3800 
    243 H243       -1.0082  -19.1308  -58.1275 H         1 UNK         0.3800 
    244 H244       -1.7430  -17.4560  -54.1693 H         1 UNK         0.0800 
    245 H245       -1.8950  -16.6138  -55.6712 H         1 UNK         0.0800 
    246 H246        1.6514  -16.9787  -53.4028 H         1 UNK         0.0800 
    247 H247        1.2422  -15.6643  -52.3358 H         1 UNK         0.0800 
@<TRIPOS>BOND
     1    1    2 1    
     2    1  127 1    
     3    1  128 1    
     4    1  129 1    
     5    2    3 2    
     6    2    4 am   BACKBONE|DICT|INTERRES
     7    4    5 1    
     8    4  130 1    
     9    5    6 1    
    10    5   65 1    
    11    5  131 1    
    12    6    7 1    
    13    6  132 1    
    14    6  133 1    
    15    7    8 1    
    16    8    9 1    
    17    8  134 1    
    18    8  135 1    
    19    9   10 ar   
    20    9   14 ar   
    21   10   11 ar   
    22   10  136 1    
    23   11   12 ar   
    24   11  126 1    
    25   12   13 ar   
    26   12  137 1    
    27   13   14 ar   
    28   13   15 1    
    29   14  138 1    
    30   15   16 1    
    31   15  139 1    
    32   15  140 1    
    33   16   17 1    
    34   17   18 1    
    35   17  141 1    
    36   17  142 1    
    37   18   19 1    
    38   18   67 1    
    39   18  143 1    
    40   19   20 am   BACKBONE|DICT|INTERRES
    41   19  144 1    
    42   20   21 2    
    43   20   22 1    
    44   22   23 1    
    45   22   24 1    
    46   22  145 1    
    47   23  146 1    
    48   23  147 1    
    49   23  148 1    
    50   24   25 am   BACKBONE|DICT|INTERRES
    51   24  149 1    
    52   25   26 2    
    53   25   27 1    
    54   27   28 1    
    55   27   29 1    
    56   27  150 1    
    57   28  151 1    
    58   28  152 1    
    59   28  153 1    
    60   29   30 am   BACKBONE|DICT|INTERRES
    61   29  154 1    
    62   30   31 2    
    63   30   32 1    
    64   32   33 1    
    65   32   34 1    
    66   32  155 1    
    67   33  156 1    
    68   33  157 1    
    69   33  158 1    
    70   34   35 am   BACKBONE|DICT|INTERRES
    71   34  159 1    
    72   35   36 2    
    73   35   37 1    
    74   37   38 1    
    75   37   39 1    
    76   37  160 1    
    77   38  161 1    
    78   38  162 1    
    79   38  163 1    
    80   39   40 am   BACKBONE|DICT|INTERRES
    81   39  164 1    
    82   40   41 2    
    83   40   42 1    
    84   42   43 1    
    85   42   44 1    
    86   42  165 1    
    87   43  166 1    
    88   43  167 1    
    89   43  168 1    
    90   44   45 am   BACKBONE|DICT|INTERRES
    91   44  169 1    
    92   45   46 2    
    93   45   47 1    
    94   47   48 1    
    95   47   49 1    
    96   47  170 1    
    97   48  171 1    
    98   48  172 1    
    99   48  173 1    
   100   49   50 am   BACKBONE|DICT|INTERRES
   101   49  174 1    
   102   50   51 2    
   103   50   52 1    
   104   52   53 1    
   105   52   54 1    
   106   52  175 1    
   107   53  176 1    
   108   53  177 1    
   109   53  178 1    
   110   54   55 am   BACKBONE|DICT|INTERRES
   111   54  179 1    
   112   55   56 2    
   113   55   57 1    
   114   57   58 1    
   115   57   59 1    
   116   57  180 1    
   117   58  181 1    
   118   58  182 1    
   119   58  183 1    
   120   59   60 am   BACKBONE|DICT|INTERRES
   121   59  184 1    
   122   60   61 2    
   123   60   62 1    
   124   62   63 1    
   125   62   64 1    
   126   62  185 1    
   127   63  186 1    
   128   63  187 1    
   129   63  188 1    
   130   64   65 am   BACKBONE|DICT|INTERRES
   131   64  189 1    
   132   65   66 2    
   133   67   68 2    
   134   67   69 am   BACKBONE|DICT|INTERRES
   135   69   70 1    
   136   69  190 1    
   137   70   71 1    
   138   70   72 1    
   139   70  191 1    
   140   71  192 1    
   141   71  193 1    
   142   71  194 1    
   143   72   73 2    
   144   72   74 am   BACKBONE|DICT|INTERRES
   145   74   75 1    
   146   74  195 1    
   147   75   76 1    
   148   75   77 1    
   149   75  196 1    
   150   76  197 1    
   151   76  198 1    
   152   76  199 1    
   153   77   78 2    
   154   77   79 am   BACKBONE|DICT|INTERRES
   155   79   80 1    
   156   79  200 1    
   157   80   81 1    
   158   80   82 1    
   159   80  201 1    
   160   81  202 1    
   161   81  203 1    
   162   81  204 1    
   163   82   83 2    
   164   82   84 am   BACKBONE|DICT|INTERRES
   165   84   85 1    
   166   84  205 1    
   167   85   86 1    
   168   85   87 1    
   169   85  206 1    
   170   86  207 1    
   171   86  208 1    
   172   86  209 1    
   173   87   88 2    
   174   87   89 am   BACKBONE|DICT|INTERRES
   175   89   90 1    
   176   89  210 1    
   177   90   91 1    
   178   90   92 1    
   179   90  211 1    
   180   91  212 1    
   181   91  213 1    
   182   91  214 1    
   183   92   93 2    
   184   92   94 am   BACKBONE|DICT|INTERRES
   185   94   95 1    
   186   94  215 1    
   187   95   96 1    
   188   95   97 1    
   189   95  216 1    
   190   96  217 1    
   191   96  218 1    
   192   96  219 1    
   193   97   98 2    
   194   97   99 am   BACKBONE|DICT|INTERRES
   195   99  100 1    
   196   99  220 1    
   197  100  101 1    
   198  100  102 1    
   199  100  221 1    
   200  101  222 1    
   201  101  223 1    
   202  101  224 1    
   203  102  103 2    
   204  102  104 am   BACKBONE|DICT|INTERRES
   205  104  105 1    
   206  104  225 1    
   207  105  106 1    
   208  105  107 1    
   209  105  226 1    
   210  106  227 1    
   211  106  228 1    
   212  106  229 1    
   213  107  108 2    
   214  107  109 am   BACKBONE|DICT|INTERRES
   215  109  110 1    
   216  109  230 1    
   217  110  111 1    
   218  110  112 1    
   219  110  231 1    
   220  111  232 1    
   221  111  233 1    
   222  111  234 1    
   223  112  113 2    
   224  112  114 am   BACKBONE|DICT|INTERRES
   225  114  115 1    
   226  114  235 1    
   227  115  116 1    
   228  115  117 1    
   229  115  236 1    
   230  116  237 1    
   231  116  238 1    
   232  116  239 1    
   233  117  118 2    
   234  117  119 am   BACKBONE|DICT|INTERRES
   235  119  120 1    
   236  119  240 1    
   237  120  121 1    
   238  120  124 1    
   239  120  241 1    
   240  121  122 am   BACKBONE|DICT|INTERRES
   241  121  123 2    
   242  122  242 1    
   243  122  243 1    
   244  124  125 1    
   245  124  244 1    
   246  124  245 1    
   247  125  126 1    
   248  126  246 1    
   249  126  247 1    
@<TRIPOS>SUBSTRUCTURE
     1 UNK         1 GROUP             0       ****    0 ROOT    
