@<TRIPOS>MOLECULE
3R540
247   249    1
SMALL
USER_CHARGES


@<TRIPOS>ATOM
      1 CA         -4.8397  -14.6982  -51.4413 C.3       0 UNK        -0.1800 
      2 C          -3.5625  -13.8832  -51.2989 C.2       0 UNK         0.5000 
      3 O          -3.6226  -12.7219  -50.8931 O.2       0 UNK        -0.5000 
      4 N          -2.4114  -14.4790  -51.6322 N.am      1 UNK        -0.5000 
      5 CA         -1.0878  -13.8927  -51.4143 C.3       1 UNK         0.1400 
      6 C6         -0.0382  -14.3739  -52.4524 C.3       23 UNK        -0.0398 
      7 S7          0.2996  -16.1708  -52.4724 S.3       23 UNK        -0.2404 
      8 C8          1.8983  -16.2324  -51.6069 C.3       23 UNK        -0.0205 
      9 C9          2.3054  -17.6566  -51.2593 C.ar      23 UNK        -0.0193 
     10 C10         2.6163  -18.5668  -52.2729 C.ar      23 UNK        -0.1150 
     11 C11         3.0250  -19.8669  -51.9618 C.ar      23 UNK        -0.0193 
     12 C12         3.1370  -20.2506  -50.6209 C.ar      23 UNK        -0.1150 
     13 C13         2.8501  -19.3426  -49.5972 C.ar      23 UNK        -0.0193 
     14 C14         2.4182  -18.0532  -49.9233 C.ar      23 UNK        -0.1150 
     15 C15         3.0576  -19.7260  -48.1394 C.3       23 UNK        -0.0205 
     16 S16         1.5319  -20.3513  -47.3791 S.3       23 UNK        -0.2404 
     17 C17         1.7609  -22.1599  -47.4526 C.3       23 UNK        -0.0398 
     18 CA          0.8656  -22.9467  -46.4609 C.3       11 UNK         0.1400 
     19 N           1.0963  -22.5847  -45.0598 N.am      11 UNK        -0.5000 
     20 C           0.7511  -23.3529  -44.0158 C.2       10 UNK         0.5000 
     21 O           0.2607  -24.4764  -44.1403 O.2       10 UNK        -0.5000 
     22 CA          0.9364  -22.7590  -42.6046 C.3       10 UNK         0.1400 
     23 CB          1.3548  -23.8147  -41.5607 C.3       10 UNK        -0.1800 
     24 N           1.8203  -21.5919  -42.5662 N.am      10 UNK        -0.5000 
     25 C           3.1407  -21.5361  -42.7917 C.2       9 UNK         0.5000 
     26 O           3.8387  -22.5143  -43.0592 O.2       9 UNK        -0.5000 
     27 CA          3.7901  -20.1389  -42.7300 C.3       9 UNK         0.1400 
     28 CB          4.0630  -19.6256  -44.1531 C.3       9 UNK        -0.1800 
     29 N           2.9762  -19.1514  -42.0131 N.am      9 UNK        -0.5000 
     30 C           2.7649  -19.1489  -40.6884 C.2       8 UNK         0.5000 
     31 O           3.3041  -19.9358  -39.9097 O.2       8 UNK        -0.5000 
     32 CA          1.7538  -18.1198  -40.1464 C.3       8 UNK         0.1400 
     33 CB          2.4284  -16.7556  -39.9428 C.3       8 UNK        -0.1800 
     34 N           0.5748  -17.9679  -41.0050 N.am      8 UNK        -0.5000 
     35 C          -0.3400  -18.9264  -41.2187 C.2       7 UNK         0.5000 
     36 O          -0.3028  -20.0363  -40.6888 O.2       7 UNK        -0.5000 
     37 CA         -1.4559  -18.6175  -42.2342 C.3       7 UNK         0.1400 
     38 CB         -2.5786  -17.7850  -41.5985 C.3       7 UNK        -0.1800 
     39 N          -0.9445  -17.9330  -43.4193 N.am      7 UNK        -0.5000 
     40 C          -0.1185  -18.4879  -44.3165 C.2       6 UNK         0.5000 
     41 O           0.2123  -19.6750  -44.2994 O.2       6 UNK        -0.5000 
     42 CA          0.4543  -17.5474  -45.3905 C.3       6 UNK         0.1400 
     43 CB         -0.4963  -17.4681  -46.5976 C.3       6 UNK        -0.1800 
     44 N           0.7402  -16.2113  -44.8530 N.am      6 UNK        -0.5000 
     45 C           1.7517  -15.9551  -44.0064 C.2       5 UNK         0.5000 
     46 O           2.5804  -16.8004  -43.6747 O.2       5 UNK        -0.5000 
     47 CA          1.8289  -14.5563  -43.3631 C.3       5 UNK         0.1400 
     48 CB          2.8026  -13.6250  -44.0999 C.3       5 UNK        -0.1800 
     49 N           0.5203  -13.9192  -43.2387 N.am      5 UNK        -0.5000 
     50 C          -0.3856  -14.2691  -42.3147 C.2       4 UNK         0.5000 
     51 O          -0.1809  -15.1262  -41.4554 O.2       4 UNK        -0.5000 
     52 CA         -1.7691  -13.5964  -42.4013 C.3       4 UNK         0.1400 
     53 CB         -1.7830  -12.2832  -41.6058 C.3       4 UNK        -0.1800 
     54 N          -2.1897  -13.3335  -43.7791 N.am      4 UNK        -0.5000 
     55 C          -2.3675  -14.2776  -44.7129 C.2       3 UNK         0.5000 
     56 O          -2.2473  -15.4809  -44.4833 O.2       3 UNK        -0.5000 
     57 CA         -2.6852  -13.8098  -46.1462 C.3       3 UNK         0.1400 
     58 CB         -3.3757  -12.4303  -46.2058 C.3       3 UNK        -0.1800 
     59 N          -1.5049  -13.8196  -47.0171 N.am      3 UNK        -0.5000 
     60 C          -0.3324  -13.1923  -46.8495 C.2       2 UNK         0.5000 
     61 O          -0.0384  -12.5696  -45.8286 O.2       2 UNK        -0.5000 
     62 CA          0.6798  -13.2172  -48.0215 C.3       2 UNK         0.1400 
     63 CB          1.7102  -14.3557  -47.8818 C.3       2 UNK        -0.1800 
     64 N           0.0969  -13.2073  -49.3737 N.am      2 UNK        -0.5000 
     65 C          -0.6504  -14.1536  -49.9593 C.2       1 UNK         0.5000 
     66 O          -0.9992  -15.1898  -49.3909 O.2       1 UNK        -0.5000 
     67 C          -0.6271  -22.8371  -46.8257 C.2       11 UNK         0.5000 
     68 O          -1.0949  -23.6155  -47.6522 O.2       11 UNK        -0.5000 
     69 N          -1.3498  -21.9102  -46.1771 N.am      12 UNK        -0.5000 
     70 CA         -2.7536  -21.5534  -46.4121 C.3       12 UNK         0.1400 
     71 CB         -3.1693  -20.5292  -45.3432 C.3       12 UNK        -0.1800 
     72 C          -3.7607  -22.7228  -46.4396 C.2       12 UNK         0.5000 
     73 O          -4.7952  -22.6088  -47.0992 O.2       12 UNK        -0.5000 
     74 N          -3.4505  -23.8105  -45.7237 N.am      13 UNK        -0.5000 
     75 CA         -4.2659  -25.0225  -45.6565 C.3       13 UNK         0.1400 
     76 CB         -3.9516  -25.7452  -44.3371 C.3       13 UNK        -0.1800 
     77 C          -4.0554  -25.9777  -46.8498 C.2       13 UNK         0.5000 
     78 O          -4.9219  -26.8180  -47.0948 O.2       13 UNK        -0.5000 
     79 N          -2.9155  -25.8638  -47.5447 N.am      14 UNK        -0.5000 
     80 CA         -2.5092  -26.7486  -48.6405 C.3       14 UNK         0.1400 
     81 CB         -1.1316  -27.3441  -48.3090 C.3       14 UNK        -0.1800 
     82 C          -2.4573  -26.0108  -49.9880 C.2       14 UNK         0.5000 
     83 O          -2.7898  -26.5987  -51.0183 O.2       14 UNK        -0.5000 
     84 N          -2.0399  -24.7402  -49.9625 N.am      15 UNK        -0.5000 
     85 CA         -1.9676  -23.8281  -51.0965 C.3       15 UNK         0.1400 
     86 CB         -1.0272  -22.6681  -50.7187 C.3       15 UNK        -0.1800 
     87 C          -3.3824  -23.3499  -51.4657 C.2       15 UNK         0.5000 
     88 O          -3.8172  -22.2975  -50.9930 O.2       15 UNK        -0.5000 
     89 N          -4.0904  -24.1761  -52.2520 N.am      16 UNK        -0.5000 
     90 CA         -5.4916  -24.0279  -52.6578 C.3       16 UNK         0.1400 
     91 CB         -5.6351  -22.8745  -53.6780 C.3       16 UNK        -0.1800 
     92 C          -6.3945  -23.8937  -51.4145 C.2       16 UNK         0.5000 
     93 O          -6.5440  -24.8633  -50.6690 O.2       16 UNK        -0.5000 
     94 N          -6.9137  -22.6871  -51.1823 N.am      17 UNK        -0.5000 
     95 CA         -7.4154  -22.2301  -49.8987 C.3       17 UNK         0.1400 
     96 CB         -8.9522  -22.2633  -49.8908 C.3       17 UNK        -0.1800 
     97 C          -6.8771  -20.8067  -49.7170 C.2       17 UNK         0.5000 
     98 O          -7.0776  -19.9720  -50.6024 O.2       17 UNK        -0.5000 
     99 N          -6.1915  -20.5646  -48.5935 N.am      18 UNK        -0.5000 
    100 CA        -5.6441  -19.2750  -48.1570 C.3       18 UNK         0.1400 
    101 CB        -6.7794  -18.2649  -47.8844 C.3       18 UNK        -0.1800 
    102 C         -4.5388  -18.6976  -49.0683 C.2       18 UNK         0.5000 
    103 O         -4.3247  -17.4853  -49.0496 O.2       18 UNK        -0.5000 
    104 N         -3.8483  -19.5662  -49.8261 N.am      19 UNK        -0.5000 
    105 CA        -2.7840  -19.2414  -50.7816 C.3       19 UNK         0.1400 
    106 CB        -1.5207  -18.7331  -50.0561 C.3       19 UNK        -0.1800 
    107 C         -3.2763  -18.3066  -51.9019 C.2       19 UNK         0.5000 
    108 O         -2.6768  -17.2616  -52.1517 O.2       19 UNK        -0.5000 
    109 N         -4.3765  -18.6940  -52.5596 N.am      20 UNK        -0.5000 
    110 CA        -4.9943  -17.9997  -53.6932 C.3       20 UNK         0.1400 
    111 CB        -6.3845  -18.6120  -53.9388 C.3       20 UNK        -0.1800 
    112 C         -4.1013  -18.0287  -54.9554 C.2       20 UNK         0.5000 
    113 O         -4.3885  -18.7662  -55.8997 O.2       20 UNK        -0.5000 
    114 N         -3.0174  -17.2385  -54.9163 N.am      21 UNK        -0.5000 
    115 CA        -1.8597  -17.2485  -55.8170 C.3       21 UNK         0.1400 
    116 CB        -2.2543  -16.8686  -57.2597 C.3       21 UNK        -0.1800 
    117 C         -1.1064  -18.5901  -55.7083 C.2       21 UNK         0.5000 
    118 O         -0.8567  -19.2543  -56.7160 O.2       21 UNK        -0.5000 
    119 N         -0.7976  -18.9708  -54.4607 N.am      22 UNK        -0.5000 
    120 CA        -0.3391  -20.3076  -54.0566 C.3       22 UNK         0.1400 
    121 C         -1.4515  -21.3892  -54.2464 C.2       22 UNK         0.5000 
    122 N         -1.1109  -22.6483  -54.4889 N.am      22 UNK        -0.7600 
    123 O         -2.6373  -21.1047  -54.1112 O.2       22 UNK        -0.5000 
    124 C124        1.0445  -20.6800  -54.6651 C.3       23 UNK        -0.0398 
    125 S125        1.9823  -21.8473  -53.6149 S.3       23 UNK        -0.2404 
    126 C126        3.3973  -20.8399  -53.0710 C.3       23 UNK        -0.0205 
    127 H127       -5.2215  -14.6274  -52.4594 H         1 UNK         0.0600 
    128 H128       -4.6677  -15.7468  -51.2032 H         1 UNK         0.0600 
    129 H129       -5.6067  -14.3278  -50.7611 H         1 UNK         0.0600 
    130 H130       -2.4120  -15.4744  -51.8508 H         1 UNK         0.3000 
    131 H131       -1.1715  -12.8110  -51.5404 H         1 UNK         0.0600 
    132 H132        0.8994  -13.8330  -52.3146 H         1 UNK         0.0800 
    133 H133       -0.3799  -14.0995  -53.4512 H         1 UNK         0.0800 
    134 H134        1.8416  -15.6260  -50.7024 H         1 UNK         0.0800 
    135 H135        2.6668  -15.7810  -52.2358 H         1 UNK         0.0800 
    136 H136        2.5467  -18.2534  -53.3046 H         1 UNK         0.1150 
    137 H137        3.4713  -21.2485  -50.3741 H         1 UNK         0.1150 
    138 H138        2.1937  -17.3515  -49.1327 H         1 UNK         0.1150 
    139 H139        3.8623  -20.4563  -48.0461 H         1 UNK         0.0800 
    140 H140        3.3857  -18.8503  -47.5774 H         1 UNK         0.0800 
    141 H141        2.8056  -22.3902  -47.2409 H         1 UNK         0.0800 
    142 H142        1.5838  -22.4912  -48.4774 H         1 UNK         0.0800 
    143 H143        1.1310  -24.0004  -46.5727 H         1 UNK         0.0600 
    144 H144        1.4271  -21.6455  -44.8813 H         1 UNK         0.3000 
    145 H145       -0.0470  -22.3876  -42.3133 H         1 UNK         0.0600 
    146 H146        1.4762  -23.3660  -40.5747 H         1 UNK         0.0600 
    147 H147        0.5986  -24.5952  -41.4692 H         1 UNK         0.0600 
    148 H148        2.2930  -24.3017  -41.8273 H         1 UNK         0.0600 
    149 H149        1.3499  -20.7134  -42.3931 H         1 UNK         0.3000 
    150 H150        4.7452  -20.2408  -42.2110 H         1 UNK         0.0600 
    151 H151        4.6775  -20.3296  -44.7156 H         1 UNK         0.0600 
    152 H152        4.5952  -18.6745  -44.1343 H         1 UNK         0.0600 
    153 H153        3.1373  -19.4805  -44.7111 H         1 UNK         0.0600 
    154 H154        2.5653  -18.4141  -42.5783 H         1 UNK         0.3000 
    155 H155        1.4091  -18.4734  -39.1724 H         1 UNK         0.0600 
    156 H156        2.8411  -16.3691  -40.8739 H         1 UNK         0.0600 
    157 H157        3.2505  -16.8322  -39.2301 H         1 UNK         0.0600 
    158 H158        1.7264  -16.0190  -39.5517 H         1 UNK         0.0600 
    159 H159        0.4297  -17.0550  -41.4231 H         1 UNK         0.3000 
    160 H160       -1.8840  -19.5692  -42.5544 H         1 UNK         0.0600 
    161 H161       -3.3843  -17.6033  -42.3103 H         1 UNK         0.0600 
    162 H162       -2.2195  -16.8181  -41.2475 H         1 UNK         0.0600 
    163 H163       -3.0105  -18.3043  -40.7422 H         1 UNK         0.0600 
    164 H164       -1.2342  -16.9709  -43.5591 H         1 UNK         0.3000 
    165 H165        1.3958  -17.9780  -45.7338 H         1 UNK         0.0600 
    166 H166       -0.0261  -16.9763  -47.4454 H         1 UNK         0.0600 
    167 H167       -0.7799  -18.4652  -46.9361 H         1 UNK         0.0600 
    168 H168       -1.4187  -16.9369  -46.3723 H         1 UNK         0.0600 
    169 H169        0.0495  -15.4952  -45.0243 H         1 UNK         0.3000 
    170 H170        2.2339  -14.6968  -42.3597 H         1 UNK         0.0600 
    171 H171        3.7374  -14.1352  -44.3365 H         1 UNK         0.0600 
    172 H172        2.3868  -13.2427  -45.0289 H         1 UNK         0.0600 
    173 H173        3.0532  -12.7637  -43.4807 H         1 UNK         0.0600 
    174 H174        0.2680  -13.2419  -43.9524 H         1 UNK         0.3000 
    175 H175       -2.4961  -14.2772  -41.9537 H         1 UNK         0.0600 
    176 H176       -2.7785  -11.8393  -41.5944 H         1 UNK         0.0600 
    177 H177       -1.4917  -12.4527  -40.5683 H         1 UNK         0.0600 
    178 H178       -1.0924  -11.5507  -42.0258 H         1 UNK         0.0600 
    179 H179       -2.2665  -12.3654  -44.0551 H         1 UNK         0.3000 
    180 H180       -3.3788  -14.5436  -46.5598 H         1 UNK         0.0600 
    181 H181       -2.7149  -11.6207  -45.8946 H         1 UNK         0.0600 
    182 H182       -4.2596  -12.4046  -45.5671 H         1 UNK         0.0600 
    183 H183       -3.7071  -12.2091  -47.2206 H         1 UNK         0.0600 
    184 H184       -1.5903  -14.3746  -47.8666 H         1 UNK         0.3000 
    185 H185        1.2338  -12.2806  -47.9412 H         1 UNK         0.0600 
    186 H186        1.2794  -15.3300  -48.0959 H         1 UNK         0.0600 
    187 H187        2.5439  -14.2102  -48.5685 H         1 UNK         0.0600 
    188 H188        2.1272  -14.4069  -46.8789 H         1 UNK         0.0600 
    189 H189        0.2933  -12.3696  -49.9041 H         1 UNK         0.3000 
    190 H190       -0.8534  -21.3242  -45.5171 H         1 UNK         0.3000 
    191 H191       -2.8042  -21.0729  -47.3910 H         1 UNK         0.0600 
    192 H192       -2.6742  -19.5715  -45.5014 H         1 UNK         0.0600 
    193 H193       -2.9169  -20.8774  -44.3413 H         1 UNK         0.0600 
    194 H194       -4.2432  -20.3440  -45.3506 H         1 UNK         0.0600 
    195 H195       -2.5775  -23.8202  -45.2165 H         1 UNK         0.3000 
    196 H196       -5.3208  -24.7397  -45.6446 H         1 UNK         0.0600 
    197 H197       -4.5570  -26.6462  -44.2295 H         1 UNK         0.0600 
    198 H198       -4.1642  -25.1083  -43.4782 H         1 UNK         0.0600 
    199 H199       -2.9039  -26.0445  -44.2823 H         1 UNK         0.0600 
    200 H200       -2.2802  -25.1053  -47.3194 H         1 UNK         0.3000 
    201 H201       -3.2141  -27.5751  -48.7509 H         1 UNK         0.0600 
    202 H202       -1.1678  -27.9289  -47.3898 H         1 UNK         0.0600 
    203 H203       -0.3767  -26.5669  -48.1813 H         1 UNK         0.0600 
    204 H204       -0.7902  -28.0083  -49.1041 H         1 UNK         0.0600 
    205 H205       -1.7651  -24.3361  -49.0690 H         1 UNK         0.3000 
    206 H206       -1.5367  -24.3508  -51.9529 H         1 UNK         0.0600 
    207 H207       -0.0346  -23.0349  -50.4572 H         1 UNK         0.0600 
    208 H208       -0.9026  -21.9760  -51.5469 H         1 UNK         0.0600 
    209 H209       -1.4044  -22.0955  -49.8707 H         1 UNK         0.0600 
    210 H210       -3.6707  -25.0708  -52.4708 H         1 UNK         0.3000 
    211 H211       -5.7804  -24.9545  -53.1557 H         1 UNK         0.0600 
    212 H212       -5.3020  -21.9175  -53.2748 H         1 UNK         0.0600 
    213 H213       -6.6701  -22.7602  -54.0025 H         1 UNK         0.0600 
    214 H214       -5.0396  -23.0713  -54.5695 H         1 UNK         0.0600 
    215 H215       -6.7094  -21.9410  -51.8335 H         1 UNK         0.3000 
    216 H216       -7.0362  -22.8618  -49.0917 H         1 UNK         0.0600 
    217 H217       -9.3435  -21.9009  -48.9396 H         1 UNK         0.0600 
    218 H218       -9.3232  -23.2786  -50.0319 H         1 UNK         0.0600 
    219 H219       -9.3736  -21.6400  -50.6805 H         1 UNK         0.0600 
    220 H220       -5.9793  -21.3486  -47.9810 H         1 UNK         0.3000 
    221 H221       -5.1583  -19.4686  -47.2034 H         1 UNK         0.0600 
    222 H222       -7.2711  -17.9506  -48.8055 H         1 UNK         0.0600 
    223 H223       -7.5372  -18.6903  -47.2266 H         1 UNK         0.0600 
    224 H224       -6.3977  -17.3671  -47.3967 H         1 UNK         0.0600 
    225 H225       -4.1223  -20.5427  -49.8197 H         1 UNK         0.3000 
    226 H226       -2.5066  -20.1675  -51.2808 H         1 UNK         0.0600 
    227 H227       -1.1762  -19.4503  -49.3112 H         1 UNK         0.0600 
    228 H228       -0.7008  -18.5805  -50.7586 H         1 UNK         0.0600 
    229 H229       -1.6954  -17.7829  -49.5518 H         1 UNK         0.0600 
    230 H230       -4.8040  -19.5675  -52.2885 H         1 UNK         0.3000 
    231 H231       -5.1388  -16.9541  -53.4172 H         1 UNK         0.0600 
    232 H232       -7.0224  -18.5044  -53.0612 H         1 UNK         0.0600 
    233 H233       -6.3210  -19.6743  -54.1776 H         1 UNK         0.0600 
    234 H234       -6.8889  -18.1166  -54.7693 H         1 UNK         0.0600 
    235 H235       -2.8621  -16.7612  -54.0340 H         1 UNK         0.3000 
    236 H236       -1.1776  -16.4797  -55.4508 H         1 UNK         0.0600 
    237 H237       -1.3680  -16.7563  -57.8850 H         1 UNK         0.0600 
    238 H238       -2.8855  -17.6249  -57.7265 H         1 UNK         0.0600 
    239 H239       -2.7917  -15.9207  -57.2842 H         1 UNK         0.0600 
    240 H240       -1.0510  -18.3514  -53.7028 H         1 UNK         0.3000 
    241 H241       -0.2087  -20.2188  -52.9779 H         1 UNK         0.0600 
    242 H242       -1.8361  -23.3341  -54.6210 H         1 UNK         0.3800 
    243 H243       -0.1416  -22.9188  -54.5610 H         1 UNK         0.3800 
    244 H244        0.9310  -21.1068  -55.6629 H         1 UNK         0.0800 
    245 H245        1.6435  -19.7812  -54.8084 H         1 UNK         0.0800 
    246 H246        4.1822  -21.5101  -52.7174 H         1 UNK         0.0800 
    247 H247        3.8235  -20.3064  -53.9220 H         1 UNK         0.0800 
@<TRIPOS>BOND
     1    1    2 1    
     2    1  127 1    
     3    1  128 1    
     4    1  129 1    
     5    2    3 2    
     6    2    4 am   BACKBONE|DICT|INTERRES
     7    4    5 1    
     8    4  130 1    
     9    5    6 1    
    10    5   65 1    
    11    5  131 1    
    12    6    7 1    
    13    6  132 1    
    14    6  133 1    
    15    7    8 1    
    16    8    9 1    
    17    8  134 1    
    18    8  135 1    
    19    9   10 ar   
    20    9   14 ar   
    21   10   11 ar   
    22   10  136 1    
    23   11   12 ar   
    24   11  126 1    
    25   12   13 ar   
    26   12  137 1    
    27   13   14 ar   
    28   13   15 1    
    29   14  138 1    
    30   15   16 1    
    31   15  139 1    
    32   15  140 1    
    33   16   17 1    
    34   17   18 1    
    35   17  141 1    
    36   17  142 1    
    37   18   19 1    
    38   18   67 1    
    39   18  143 1    
    40   19   20 am   BACKBONE|DICT|INTERRES
    41   19  144 1    
    42   20   21 2    
    43   20   22 1    
    44   22   23 1    
    45   22   24 1    
    46   22  145 1    
    47   23  146 1    
    48   23  147 1    
    49   23  148 1    
    50   24   25 am   BACKBONE|DICT|INTERRES
    51   24  149 1    
    52   25   26 2    
    53   25   27 1    
    54   27   28 1    
    55   27   29 1    
    56   27  150 1    
    57   28  151 1    
    58   28  152 1    
    59   28  153 1    
    60   29   30 am   BACKBONE|DICT|INTERRES
    61   29  154 1    
    62   30   31 2    
    63   30   32 1    
    64   32   33 1    
    65   32   34 1    
    66   32  155 1    
    67   33  156 1    
    68   33  157 1    
    69   33  158 1    
    70   34   35 am   BACKBONE|DICT|INTERRES
    71   34  159 1    
    72   35   36 2    
    73   35   37 1    
    74   37   38 1    
    75   37   39 1    
    76   37  160 1    
    77   38  161 1    
    78   38  162 1    
    79   38  163 1    
    80   39   40 am   BACKBONE|DICT|INTERRES
    81   39  164 1    
    82   40   41 2    
    83   40   42 1    
    84   42   43 1    
    85   42   44 1    
    86   42  165 1    
    87   43  166 1    
    88   43  167 1    
    89   43  168 1    
    90   44   45 am   BACKBONE|DICT|INTERRES
    91   44  169 1    
    92   45   46 2    
    93   45   47 1    
    94   47   48 1    
    95   47   49 1    
    96   47  170 1    
    97   48  171 1    
    98   48  172 1    
    99   48  173 1    
   100   49   50 am   BACKBONE|DICT|INTERRES
   101   49  174 1    
   102   50   51 2    
   103   50   52 1    
   104   52   53 1    
   105   52   54 1    
   106   52  175 1    
   107   53  176 1    
   108   53  177 1    
   109   53  178 1    
   110   54   55 am   BACKBONE|DICT|INTERRES
   111   54  179 1    
   112   55   56 2    
   113   55   57 1    
   114   57   58 1    
   115   57   59 1    
   116   57  180 1    
   117   58  181 1    
   118   58  182 1    
   119   58  183 1    
   120   59   60 am   BACKBONE|DICT|INTERRES
   121   59  184 1    
   122   60   61 2    
   123   60   62 1    
   124   62   63 1    
   125   62   64 1    
   126   62  185 1    
   127   63  186 1    
   128   63  187 1    
   129   63  188 1    
   130   64   65 am   BACKBONE|DICT|INTERRES
   131   64  189 1    
   132   65   66 2    
   133   67   68 2    
   134   67   69 am   BACKBONE|DICT|INTERRES
   135   69   70 1    
   136   69  190 1    
   137   70   71 1    
   138   70   72 1    
   139   70  191 1    
   140   71  192 1    
   141   71  193 1    
   142   71  194 1    
   143   72   73 2    
   144   72   74 am   BACKBONE|DICT|INTERRES
   145   74   75 1    
   146   74  195 1    
   147   75   76 1    
   148   75   77 1    
   149   75  196 1    
   150   76  197 1    
   151   76  198 1    
   152   76  199 1    
   153   77   78 2    
   154   77   79 am   BACKBONE|DICT|INTERRES
   155   79   80 1    
   156   79  200 1    
   157   80   81 1    
   158   80   82 1    
   159   80  201 1    
   160   81  202 1    
   161   81  203 1    
   162   81  204 1    
   163   82   83 2    
   164   82   84 am   BACKBONE|DICT|INTERRES
   165   84   85 1    
   166   84  205 1    
   167   85   86 1    
   168   85   87 1    
   169   85  206 1    
   170   86  207 1    
   171   86  208 1    
   172   86  209 1    
   173   87   88 2    
   174   87   89 am   BACKBONE|DICT|INTERRES
   175   89   90 1    
   176   89  210 1    
   177   90   91 1    
   178   90   92 1    
   179   90  211 1    
   180   91  212 1    
   181   91  213 1    
   182   91  214 1    
   183   92   93 2    
   184   92   94 am   BACKBONE|DICT|INTERRES
   185   94   95 1    
   186   94  215 1    
   187   95   96 1    
   188   95   97 1    
   189   95  216 1    
   190   96  217 1    
   191   96  218 1    
   192   96  219 1    
   193   97   98 2    
   194   97   99 am   BACKBONE|DICT|INTERRES
   195   99  100 1    
   196   99  220 1    
   197  100  101 1    
   198  100  102 1    
   199  100  221 1    
   200  101  222 1    
   201  101  223 1    
   202  101  224 1    
   203  102  103 2    
   204  102  104 am   BACKBONE|DICT|INTERRES
   205  104  105 1    
   206  104  225 1    
   207  105  106 1    
   208  105  107 1    
   209  105  226 1    
   210  106  227 1    
   211  106  228 1    
   212  106  229 1    
   213  107  108 2    
   214  107  109 am   BACKBONE|DICT|INTERRES
   215  109  110 1    
   216  109  230 1    
   217  110  111 1    
   218  110  112 1    
   219  110  231 1    
   220  111  232 1    
   221  111  233 1    
   222  111  234 1    
   223  112  113 2    
   224  112  114 am   BACKBONE|DICT|INTERRES
   225  114  115 1    
   226  114  235 1    
   227  115  116 1    
   228  115  117 1    
   229  115  236 1    
   230  116  237 1    
   231  116  238 1    
   232  116  239 1    
   233  117  118 2    
   234  117  119 am   BACKBONE|DICT|INTERRES
   235  119  120 1    
   236  119  240 1    
   237  120  121 1    
   238  120  124 1    
   239  120  241 1    
   240  121  122 am   BACKBONE|DICT|INTERRES
   241  121  123 2    
   242  122  242 1    
   243  122  243 1    
   244  124  125 1    
   245  124  244 1    
   246  124  245 1    
   247  125  126 1    
   248  126  246 1    
   249  126  247 1    
@<TRIPOS>SUBSTRUCTURE
     1 UNK         1 GROUP             0       ****    0 ROOT    
