@<TRIPOS>MOLECULE
3R540
247   249    1
SMALL
USER_CHARGES


@<TRIPOS>ATOM
      1 CA         -1.1079  -13.7162  -50.5453 C.3       0 UNK        -0.1800 
      2 C          -0.2352  -13.6590  -49.3019 C.2       0 UNK         0.5000 
      3 O          -0.4634  -12.8190  -48.4328 O.2       0 UNK        -0.5000 
      4 N           0.7587  -14.5509  -49.2049 N.am      1 UNK        -0.5000 
      5 CA          1.7528  -14.5919  -48.1244 C.3       1 UNK         0.1400 
      6 C6          2.8950  -15.6081  -48.3784 C.3       23 UNK        -0.0398 
      7 S7          3.5736  -15.5212  -50.0742 S.3       23 UNK        -0.2404 
      8 C8          4.0791  -17.2498  -50.3978 C.3       23 UNK        -0.0205 
      9 C9          3.0065  -18.3053  -50.1280 C.ar      23 UNK        -0.0193 
     10 C10         1.6535  -18.0708  -50.4046 C.ar      23 UNK        -0.1150 
     11 C11         0.6845  -19.0267  -50.0857 C.ar      23 UNK        -0.0193 
     12 C12         1.0830  -20.2509  -49.5449 C.ar      23 UNK        -0.1150 
     13 C13         2.4322  -20.5194  -49.3054 C.ar      23 UNK        -0.0193 
     14 C14         3.3862  -19.5385  -49.5878 C.ar      23 UNK        -0.1150 
     15 C15         2.8621  -21.8828  -48.7835 C.3       23 UNK        -0.0205 
     16 S16         3.3436  -21.8640  -47.0268 S.3       23 UNK        -0.2404 
     17 C17         1.7928  -21.4365  -46.1677 C.3       23 UNK        -0.0398 
     18 CA          0.8157  -22.6351  -46.0066 C.3       11 UNK         0.1400 
     19 N           0.2609  -22.7238  -44.6535 N.am      11 UNK        -0.5000 
     20 C          -0.3643  -23.8032  -44.1562 C.2       10 UNK         0.5000 
     21 O          -0.4747  -24.8665  -44.7646 O.2       10 UNK        -0.5000 
     22 CA         -0.9957  -23.6772  -42.7540 C.3       10 UNK         0.1400 
     23 CB         -0.0367  -24.2244  -41.6862 C.3       10 UNK        -0.1800 
     24 N          -1.3686  -22.3087  -42.3971 N.am      10 UNK        -0.5000 
     25 C          -2.2533  -21.5427  -43.0517 C.2       9 UNK         0.5000 
     26 O          -2.9276  -21.9384  -44.0022 O.2       9 UNK        -0.5000 
     27 CA         -2.3361  -20.0653  -42.6156 C.3       9 UNK         0.1400 
     28 CB         -3.4786  -19.8632  -41.6103 C.3       9 UNK        -0.1800 
     29 N          -1.0829  -19.5606  -42.0367 N.am      9 UNK        -0.5000 
     30 C           0.0868  -19.5031  -42.6887 C.2       8 UNK         0.5000 
     31 O           0.2198  -19.8258  -43.8721 O.2       8 UNK        -0.5000 
     32 CA          1.3214  -19.1278  -41.8502 C.3       8 UNK         0.1400 
     33 CB          1.8074  -20.3516  -41.0564 C.3       8 UNK        -0.1800 
     34 N           2.4148  -18.6684  -42.7044 N.am      8 UNK        -0.5000 
     35 C           2.5190  -17.4261  -43.1840 C.2       7 UNK         0.5000 
     36 O           1.7661  -16.5036  -42.8589 O.2       7 UNK        -0.5000 
     37 CA          3.6459  -17.1858  -44.2025 C.3       7 UNK         0.1400 
     38 CB          3.3214  -17.8668  -45.5434 C.3       7 UNK        -0.1800 
     39 N           3.7764  -15.7502  -44.4197 N.am      7 UNK        -0.5000 
     40 C           4.8743  -15.0138  -44.2156 C.2       6 UNK         0.5000 
     41 O           5.9851  -15.4840  -43.9681 O.2       6 UNK        -0.5000 
     42 CA          4.6876  -13.4853  -44.2709 C.3       6 UNK         0.1400 
     43 CB          4.9746  -12.9526  -45.6832 C.3       6 UNK        -0.1800 
     44 N           3.3282  -13.1047  -43.8902 N.am      6 UNK        -0.5000 
     45 C           2.8756  -12.9960  -42.6346 C.2       5 UNK         0.5000 
     46 O           3.6027  -13.0642  -41.6419 O.2       5 UNK        -0.5000 
     47 CA          1.3507  -12.8092  -42.4708 C.3       5 UNK         0.1400 
     48 CB          0.9652  -12.0711  -41.1721 C.3       5 UNK        -0.1800 
     49 N           0.7144  -12.1986  -43.6440 N.am      5 UNK        -0.5000 
     50 C           0.8862  -10.9574  -44.1239 C.2       4 UNK         0.5000 
     51 O           1.5806  -10.0987  -43.5791 O.2       4 UNK        -0.5000 
     52 CA          0.1907  -10.6214  -45.4600 C.3       4 UNK         0.1400 
     53 CB          1.2305  -10.5375  -46.5890 C.3       4 UNK        -0.1800 
     54 N          -0.8357  -11.5915  -45.8472 N.am      4 UNK        -0.5000 
     55 C          -2.0424  -11.7135  -45.2776 C.2       3 UNK         0.5000 
     56 O          -2.4601  -10.9697  -44.3898 O.2       3 UNK        -0.5000 
     57 CA         -2.9063  -12.8956  -45.7543 C.3       3 UNK         0.1400 
     58 CB         -3.6883  -12.5333  -47.0265 C.3       3 UNK        -0.1800 
     59 N          -2.1012  -14.0941  -45.9996 N.am      3 UNK        -0.5000 
     60 C          -1.5654  -14.8574  -45.0361 C.2       2 UNK         0.5000 
     61 O          -1.7294  -14.6534  -43.8338 O.2       2 UNK        -0.5000 
     62 CA         -0.6695  -16.0237  -45.4902 C.3       2 UNK         0.1400 
     63 CB         -1.4982  -17.2968  -45.7055 C.3       2 UNK        -0.1800 
     64 N           0.0858  -15.7130  -46.7046 N.am      2 UNK        -0.5000 
     65 C           1.1135  -14.8528  -46.7469 C.2       1 UNK         0.5000 
     66 O           1.5473  -14.2613  -45.7592 O.2       1 UNK        -0.5000 
     67 C          -0.3196  -22.5807  -47.0472 C.2       11 UNK         0.5000 
     68 O          -0.2831  -23.3160  -48.0317 O.2       11 UNK        -0.5000 
     69 N          -1.3285  -21.7339  -46.7945 N.am      12 UNK        -0.5000 
     70 CA         -2.5173  -21.5994  -47.6384 C.3       12 UNK         0.1400 
     71 CB         -3.3079  -20.3527  -47.2190 C.3       12 UNK        -0.1800 
     72 C          -3.4062  -22.8548  -47.6066 C.2       12 UNK         0.5000 
     73 O          -3.9488  -23.2421  -48.6369 O.2       12 UNK        -0.5000 
     74 N          -3.5082  -23.4949  -46.4358 N.am      13 UNK        -0.5000 
     75 CA         -4.2675  -24.7291  -46.2283 C.3       13 UNK         0.1400 
     76 CB         -4.4606  -24.9347  -44.7179 C.3       13 UNK        -0.1800 
     77 C          -3.6340  -25.9860  -46.8659 C.2       13 UNK         0.5000 
     78 O          -4.2892  -27.0288  -46.8954 O.2       13 UNK        -0.5000 
     79 N          -2.3805  -25.8934  -47.3348 N.am      14 UNK        -0.5000 
     80 CA         -1.5976  -27.0180  -47.8525 C.3       14 UNK         0.1400 
     81 CB         -0.1324  -26.5857  -48.0147 C.3       14 UNK        -0.1800 
     82 C          -2.1194  -27.6113  -49.1754 C.2       14 UNK         0.5000 
     83 O          -1.8900  -28.7958  -49.4260 O.2       14 UNK        -0.5000 
     84 N          -2.7928  -26.8009  -50.0010 N.am      15 UNK        -0.5000 
     85 CA         -3.3171  -27.1947  -51.3058 C.3       15 UNK         0.1400 
     86 CB         -2.1762  -27.2282  -52.3416 C.3       15 UNK        -0.1800 
     87 C          -4.4002  -26.2054  -51.7459 C.2       15 UNK         0.5000 
     88 O          -4.3865  -25.0518  -51.3140 O.2       15 UNK        -0.5000 
     89 N          -5.2819  -26.6479  -52.6516 N.am      16 UNK        -0.5000 
     90 CA         -6.3288  -25.8198  -53.2594 C.3       16 UNK         0.1400 
     91 CB         -7.2514  -26.7057  -54.1095 C.3       16 UNK        -0.1800 
     92 C          -5.7650  -24.6590  -54.1018 C.2       16 UNK         0.5000 
     93 O          -6.3451  -23.5740  -54.1094 O.2       16 UNK        -0.5000 
     94 N          -4.6202  -24.8946  -54.7592 N.am      17 UNK        -0.5000 
     95 CA         -3.8729  -23.8840  -55.5085 C.3       17 UNK         0.1400 
     96 CB         -2.7656  -24.5686  -56.3234 C.3       17 UNK        -0.1800 
     97 C          -3.2817  -22.7958  -54.5943 C.2       17 UNK         0.5000 
     98 O          -3.3183  -21.6184  -54.9506 O.2       17 UNK        -0.5000 
     99 N          -2.7878  -23.2024  -53.4158 N.am      18 UNK        -0.5000 
    100 CA        -2.2907  -22.2982  -52.3797 C.3       18 UNK         0.1400 
    101 CB        -1.5070  -23.0898  -51.3219 C.3       18 UNK        -0.1800 
    102 C         -3.4343  -21.4877  -51.7480 C.2       18 UNK         0.5000 
    103 O         -3.2981  -20.2765  -51.5847 O.2       18 UNK        -0.5000 
    104 N         -4.5631  -22.1522  -51.4668 N.am      19 UNK        -0.5000 
    105 CA        -5.7819  -21.5339  -50.9438 C.3       19 UNK         0.1400 
    106 CB        -6.8148  -22.6230  -50.6185 C.3       19 UNK        -0.1800 
    107 C         -6.3769  -20.4835  -51.9001 C.2       19 UNK         0.5000 
    108 O         -6.8724  -19.4573  -51.4359 O.2       19 UNK        -0.5000 
    109 N         -6.2876  -20.7423  -53.2126 N.am      20 UNK        -0.5000 
    110 CA        -6.6423  -19.7983  -54.2691 C.3       20 UNK         0.1400 
    111 CB        -6.7296  -20.5335  -55.6153 C.3       20 UNK        -0.1800 
    112 C         -5.6589  -18.6157  -54.3436 C.2       20 UNK         0.5000 
    113 O         -6.1018  -17.4668  -54.3656 O.2       20 UNK        -0.5000 
    114 N         -4.3488  -18.9077  -54.3527 N.am      21 UNK        -0.5000 
    115 CA        -3.2675  -17.9181  -54.4269 C.3       21 UNK         0.1400 
    116 CB        -1.9155  -18.6380  -54.5465 C.3       21 UNK        -0.1800 
    117 C         -3.2514  -16.9285  -53.2464 C.2       21 UNK         0.5000 
    118 O         -3.0453  -15.7330  -53.4586 O.2       21 UNK        -0.5000 
    119 N         -3.5026  -17.4411  -52.0373 N.am      22 UNK        -0.5000 
    120 CA        -3.6856  -16.6560  -50.8075 C.3       22 UNK         0.1400 
    121 C         -5.1253  -16.0854  -50.6222 C.2       22 UNK         0.5000 
    122 N         -6.0461  -16.2412  -51.5655 N.am      22 UNK        -0.7600 
    123 O         -5.4104  -15.4571  -49.6066 O.2       22 UNK        -0.5000 
    124 C124       -3.1910  -17.4427  -49.5639 C.3       23 UNK        -0.0398 
    125 S125       -1.3816  -17.3388  -49.3454 S.3       23 UNK        -0.2404 
    126 C126       -0.7907  -18.7482  -50.3288 C.3       23 UNK        -0.0205 
    127 H127       -2.1603  -13.6921  -50.2632 H         1 UNK         0.0600 
    128 H128       -0.9262  -14.6206  -51.1267 H         1 UNK         0.0600 
    129 H129       -0.9074  -12.8544  -51.1814 H         1 UNK         0.0600 
    130 H130        0.9045  -15.2137  -49.9518 H         1 UNK         0.3000 
    131 H131        2.2040  -13.5985  -48.0823 H         1 UNK         0.0600 
    132 H132        3.7142  -15.4390  -47.6777 H         1 UNK         0.0800 
    133 H133        2.5416  -16.6200  -48.1826 H         1 UNK         0.0800 
    134 H134        4.3918  -17.3323  -51.4392 H         1 UNK         0.0800 
    135 H135        4.9643  -17.4552  -49.7938 H         1 UNK         0.0800 
    136 H136        1.3450  -17.1327  -50.8415 H         1 UNK         0.1150 
    137 H137        0.3415  -21.0027  -49.3235 H         1 UNK         0.1150 
    138 H138        4.4293  -19.7422  -49.3894 H         1 UNK         0.1150 
    139 H139        2.0793  -22.6244  -48.9422 H         1 UNK         0.0800 
    140 H140        3.7155  -22.2287  -49.3684 H         1 UNK         0.0800 
    141 H141        1.3296  -20.5658  -46.6360 H         1 UNK         0.0800 
    142 H142        2.1079  -21.0864  -45.1846 H         1 UNK         0.0800 
    143 H143        1.3676  -23.5619  -46.1796 H         1 UNK         0.0600 
    144 H144        0.2730  -21.8670  -44.1127 H         1 UNK         0.3000 
    145 H145       -1.9027  -24.2831  -42.7414 H         1 UNK         0.0600 
    146 H146       -0.4982  -24.2157  -40.6986 H         1 UNK         0.0600 
    147 H147        0.2419  -25.2565  -41.9036 H         1 UNK         0.0600 
    148 H148        0.8830  -23.6404  -41.6334 H         1 UNK         0.0600 
    149 H149       -0.8703  -21.8966  -41.6231 H         1 UNK         0.3000 
    150 H150       -2.5574  -19.4780  -43.5080 H         1 UNK         0.0600 
    151 H151       -3.3023  -20.4112  -40.6839 H         1 UNK         0.0600 
    152 H152       -4.4270  -20.2109  -42.0224 H         1 UNK         0.0600 
    153 H153       -3.6018  -18.8093  -41.3602 H         1 UNK         0.0600 
    154 H154       -1.1165  -19.2896  -41.0642 H         1 UNK         0.3000 
    155 H155        1.0465  -18.3374  -41.1484 H         1 UNK         0.0600 
    156 H156        2.0700  -21.1819  -41.7137 H         1 UNK         0.0600 
    157 H157        1.0399  -20.7073  -40.3680 H         1 UNK         0.0600 
    158 H158        2.6860  -20.1084  -40.4585 H         1 UNK         0.0600 
    159 H159        3.0456  -19.3797  -43.0425 H         1 UNK         0.3000 
    160 H160        4.5713  -17.6011  -43.7983 H         1 UNK         0.0600 
    161 H161        2.3387  -17.5776  -45.9173 H         1 UNK         0.0600 
    162 H162        3.3231  -18.9515  -45.4409 H         1 UNK         0.0600 
    163 H163        4.0615  -17.6180  -46.3039 H         1 UNK         0.0600 
    164 H164        2.8992  -15.2615  -44.5627 H         1 UNK         0.3000 
    165 H165        5.3981  -13.0300  -43.5779 H         1 UNK         0.0600 
    166 H166        5.9839  -13.2155  -46.0026 H         1 UNK         0.0600 
    167 H167        4.2797  -13.3601  -46.4177 H         1 UNK         0.0600 
    168 H168        4.8951  -11.8659  -45.7164 H         1 UNK         0.0600 
    169 H169        2.6368  -13.1160  -44.6332 H         1 UNK         0.3000 
    170 H170        0.9365  -13.8165  -42.4059 H         1 UNK         0.0600 
    171 H171        1.2940  -12.6291  -40.2948 H         1 UNK         0.0600 
    172 H172        1.4184  -11.0813  -41.1159 H         1 UNK         0.0600 
    173 H173       -0.1155  -11.9521  -41.0929 H         1 UNK         0.0600 
    174 H174        0.1451  -12.8255  -44.1956 H         1 UNK         0.3000 
    175 H175       -0.2810   -9.6428  -45.3507 H         1 UNK         0.0600 
    176 H176        0.7654  -10.2566  -47.5342 H         1 UNK         0.0600 
    177 H177        1.9930   -9.7899  -46.3670 H         1 UNK         0.0600 
    178 H178        1.7388  -11.4910  -46.7370 H         1 UNK         0.0600 
    179 H179       -0.6104  -12.1961  -46.6331 H         1 UNK         0.3000 
    180 H180       -3.6290  -13.1211  -44.9671 H         1 UNK         0.0600 
    181 H181       -3.0255  -12.2844  -47.8554 H         1 UNK         0.0600 
    182 H182       -4.3326  -11.6705  -46.8534 H         1 UNK         0.0600 
    183 H183       -4.3273  -13.3573  -47.3454 H         1 UNK         0.0600 
    184 H184       -1.8758  -14.2987  -46.9620 H         1 UNK         0.3000 
    185 H185        0.0421  -16.2237  -44.6903 H         1 UNK         0.0600 
    186 H186       -2.0078  -17.5824  -44.7857 H         1 UNK         0.0600 
    187 H187       -2.2618  -17.1562  -46.4702 H         1 UNK         0.0600 
    188 H188       -0.8674  -18.1355  -46.0022 H         1 UNK         0.0600 
    189 H189       -0.2195  -16.1559  -47.5617 H         1 UNK         0.3000 
    190 H190       -1.3103  -21.1908  -45.9432 H         1 UNK         0.3000 
    191 H191       -2.1890  -21.4568  -48.6692 H         1 UNK         0.0600 
    192 H192       -2.7018  -19.4542  -47.3254 H         1 UNK         0.0600 
    193 H193       -4.1927  -20.2243  -47.8436 H         1 UNK         0.0600 
    194 H194       -3.6421  -20.4129  -46.1829 H         1 UNK         0.0600 
    195 H195       -3.0844  -23.0744  -45.6144 H         1 UNK         0.3000 
    196 H196       -5.2525  -24.5993  -46.6814 H         1 UNK         0.0600 
    197 H197       -5.1050  -25.7916  -44.5177 H         1 UNK         0.0600 
    198 H198       -4.9250  -24.0641  -44.2540 H         1 UNK         0.0600 
    199 H199       -3.5099  -25.1167  -44.2177 H         1 UNK         0.0600 
    200 H200       -1.9058  -25.0027  -47.2761 H         1 UNK         0.3000 
    201 H201       -1.6317  -27.8115  -47.1031 H         1 UNK         0.0600 
    202 H202        0.4951  -27.4332  -48.2934 H         1 UNK         0.0600 
    203 H203       -0.0220  -25.8301  -48.7932 H         1 UNK         0.0600 
    204 H204        0.2685  -26.1762  -47.0876 H         1 UNK         0.0600 
    205 H205       -3.0001  -25.8484  -49.7240 H         1 UNK         0.3000 
    206 H206       -3.7717  -28.1844  -51.2257 H         1 UNK         0.0600 
    207 H207       -1.4206  -27.9682  -52.0780 H         1 UNK         0.0600 
    208 H208       -2.5479  -27.4914  -53.3325 H         1 UNK         0.0600 
    209 H209       -1.6792  -26.2606  -52.4216 H         1 UNK         0.0600 
    210 H210       -5.2277  -27.6066  -52.9649 H         1 UNK         0.3000 
    211 H211       -6.9225  -25.3856  -52.4527 H         1 UNK         0.0600 
    212 H212       -6.7089  -27.1926  -54.9207 H         1 UNK         0.0600 
    213 H213       -8.0529  -26.1167  -54.5575 H         1 UNK         0.0600 
    214 H214       -7.7201  -27.4820  -53.5044 H         1 UNK         0.0600 
    215 H215       -4.2180  -25.8186  -54.7094 H         1 UNK         0.3000 
    216 H216       -4.5601  -23.3979  -56.2044 H         1 UNK         0.0600 
    217 H217       -2.2008  -23.8378  -56.9039 H         1 UNK         0.0600 
    218 H218       -3.1826  -25.2888  -57.0275 H         1 UNK         0.0600 
    219 H219       -2.0584  -25.0961  -55.6820 H         1 UNK         0.0600 
    220 H220       -2.8498  -24.1792  -53.1737 H         1 UNK         0.3000 
    221 H221       -1.5998  -21.5941  -52.8477 H         1 UNK         0.0600 
    222 H222       -2.1420  -23.7843  -50.7726 H         1 UNK         0.0600 
    223 H223       -0.6965  -23.6617  -51.7734 H         1 UNK         0.0600 
    224 H224       -1.0581  -22.4168  -50.5926 H         1 UNK         0.0600 
    225 H225       -4.5654  -23.1653  -51.5491 H         1 UNK         0.3000 
    226 H226       -5.5170  -21.0268  -50.0139 H         1 UNK         0.0600 
    227 H227       -7.7016  -22.1914  -50.1532 H         1 UNK         0.0600 
    228 H228       -7.1387  -23.1503  -51.5151 H         1 UNK         0.0600 
    229 H229       -6.4079  -23.3595  -49.9252 H         1 UNK         0.0600 
    230 H230       -5.9375  -21.6479  -53.5053 H         1 UNK         0.3000 
    231 H231       -7.6320  -19.3954  -54.0437 H         1 UNK         0.0600 
    232 H232       -5.7791  -20.9896  -55.8921 H         1 UNK         0.0600 
    233 H233       -7.0112  -19.8489  -56.4162 H         1 UNK         0.0600 
    234 H234       -7.4802  -21.3235  -55.5832 H         1 UNK         0.0600 
    235 H235       -4.0644  -19.8827  -54.3558 H         1 UNK         0.3000 
    236 H236       -3.4209  -17.3364  -55.3379 H         1 UNK         0.0600 
    237 H237       -1.8758  -19.2548  -55.4443 H         1 UNK         0.0600 
    238 H238       -1.0942  -17.9229  -54.6066 H         1 UNK         0.0600 
    239 H239       -1.7269  -19.2835  -53.6889 H         1 UNK         0.0600 
    240 H240       -3.6203  -18.4477  -51.9490 H         1 UNK         0.3000 
    241 H241       -3.0676  -15.7633  -50.8906 H         1 UNK         0.0600 
    242 H242       -5.8457  -16.7380  -52.4243 H         1 UNK         0.3800 
    243 H243       -6.9667  -15.8605  -51.4183 H         1 UNK         0.3800 
    244 H244       -3.5110  -18.4842  -49.6061 H         1 UNK         0.0800 
    245 H245       -3.6216  -17.0429  -48.6447 H         1 UNK         0.0800 
    246 H246       -0.9566  -18.5555  -51.3888 H         1 UNK         0.0800 
    247 H247       -1.3807  -19.6249  -50.0663 H         1 UNK         0.0800 
@<TRIPOS>BOND
     1    1    2 1    
     2    1  127 1    
     3    1  128 1    
     4    1  129 1    
     5    2    3 2    
     6    2    4 am   BACKBONE|DICT|INTERRES
     7    4    5 1    
     8    4  130 1    
     9    5    6 1    
    10    5   65 1    
    11    5  131 1    
    12    6    7 1    
    13    6  132 1    
    14    6  133 1    
    15    7    8 1    
    16    8    9 1    
    17    8  134 1    
    18    8  135 1    
    19    9   10 ar   
    20    9   14 ar   
    21   10   11 ar   
    22   10  136 1    
    23   11   12 ar   
    24   11  126 1    
    25   12   13 ar   
    26   12  137 1    
    27   13   14 ar   
    28   13   15 1    
    29   14  138 1    
    30   15   16 1    
    31   15  139 1    
    32   15  140 1    
    33   16   17 1    
    34   17   18 1    
    35   17  141 1    
    36   17  142 1    
    37   18   19 1    
    38   18   67 1    
    39   18  143 1    
    40   19   20 am   BACKBONE|DICT|INTERRES
    41   19  144 1    
    42   20   21 2    
    43   20   22 1    
    44   22   23 1    
    45   22   24 1    
    46   22  145 1    
    47   23  146 1    
    48   23  147 1    
    49   23  148 1    
    50   24   25 am   BACKBONE|DICT|INTERRES
    51   24  149 1    
    52   25   26 2    
    53   25   27 1    
    54   27   28 1    
    55   27   29 1    
    56   27  150 1    
    57   28  151 1    
    58   28  152 1    
    59   28  153 1    
    60   29   30 am   BACKBONE|DICT|INTERRES
    61   29  154 1    
    62   30   31 2    
    63   30   32 1    
    64   32   33 1    
    65   32   34 1    
    66   32  155 1    
    67   33  156 1    
    68   33  157 1    
    69   33  158 1    
    70   34   35 am   BACKBONE|DICT|INTERRES
    71   34  159 1    
    72   35   36 2    
    73   35   37 1    
    74   37   38 1    
    75   37   39 1    
    76   37  160 1    
    77   38  161 1    
    78   38  162 1    
    79   38  163 1    
    80   39   40 am   BACKBONE|DICT|INTERRES
    81   39  164 1    
    82   40   41 2    
    83   40   42 1    
    84   42   43 1    
    85   42   44 1    
    86   42  165 1    
    87   43  166 1    
    88   43  167 1    
    89   43  168 1    
    90   44   45 am   BACKBONE|DICT|INTERRES
    91   44  169 1    
    92   45   46 2    
    93   45   47 1    
    94   47   48 1    
    95   47   49 1    
    96   47  170 1    
    97   48  171 1    
    98   48  172 1    
    99   48  173 1    
   100   49   50 am   BACKBONE|DICT|INTERRES
   101   49  174 1    
   102   50   51 2    
   103   50   52 1    
   104   52   53 1    
   105   52   54 1    
   106   52  175 1    
   107   53  176 1    
   108   53  177 1    
   109   53  178 1    
   110   54   55 am   BACKBONE|DICT|INTERRES
   111   54  179 1    
   112   55   56 2    
   113   55   57 1    
   114   57   58 1    
   115   57   59 1    
   116   57  180 1    
   117   58  181 1    
   118   58  182 1    
   119   58  183 1    
   120   59   60 am   BACKBONE|DICT|INTERRES
   121   59  184 1    
   122   60   61 2    
   123   60   62 1    
   124   62   63 1    
   125   62   64 1    
   126   62  185 1    
   127   63  186 1    
   128   63  187 1    
   129   63  188 1    
   130   64   65 am   BACKBONE|DICT|INTERRES
   131   64  189 1    
   132   65   66 2    
   133   67   68 2    
   134   67   69 am   BACKBONE|DICT|INTERRES
   135   69   70 1    
   136   69  190 1    
   137   70   71 1    
   138   70   72 1    
   139   70  191 1    
   140   71  192 1    
   141   71  193 1    
   142   71  194 1    
   143   72   73 2    
   144   72   74 am   BACKBONE|DICT|INTERRES
   145   74   75 1    
   146   74  195 1    
   147   75   76 1    
   148   75   77 1    
   149   75  196 1    
   150   76  197 1    
   151   76  198 1    
   152   76  199 1    
   153   77   78 2    
   154   77   79 am   BACKBONE|DICT|INTERRES
   155   79   80 1    
   156   79  200 1    
   157   80   81 1    
   158   80   82 1    
   159   80  201 1    
   160   81  202 1    
   161   81  203 1    
   162   81  204 1    
   163   82   83 2    
   164   82   84 am   BACKBONE|DICT|INTERRES
   165   84   85 1    
   166   84  205 1    
   167   85   86 1    
   168   85   87 1    
   169   85  206 1    
   170   86  207 1    
   171   86  208 1    
   172   86  209 1    
   173   87   88 2    
   174   87   89 am   BACKBONE|DICT|INTERRES
   175   89   90 1    
   176   89  210 1    
   177   90   91 1    
   178   90   92 1    
   179   90  211 1    
   180   91  212 1    
   181   91  213 1    
   182   91  214 1    
   183   92   93 2    
   184   92   94 am   BACKBONE|DICT|INTERRES
   185   94   95 1    
   186   94  215 1    
   187   95   96 1    
   188   95   97 1    
   189   95  216 1    
   190   96  217 1    
   191   96  218 1    
   192   96  219 1    
   193   97   98 2    
   194   97   99 am   BACKBONE|DICT|INTERRES
   195   99  100 1    
   196   99  220 1    
   197  100  101 1    
   198  100  102 1    
   199  100  221 1    
   200  101  222 1    
   201  101  223 1    
   202  101  224 1    
   203  102  103 2    
   204  102  104 am   BACKBONE|DICT|INTERRES
   205  104  105 1    
   206  104  225 1    
   207  105  106 1    
   208  105  107 1    
   209  105  226 1    
   210  106  227 1    
   211  106  228 1    
   212  106  229 1    
   213  107  108 2    
   214  107  109 am   BACKBONE|DICT|INTERRES
   215  109  110 1    
   216  109  230 1    
   217  110  111 1    
   218  110  112 1    
   219  110  231 1    
   220  111  232 1    
   221  111  233 1    
   222  111  234 1    
   223  112  113 2    
   224  112  114 am   BACKBONE|DICT|INTERRES
   225  114  115 1    
   226  114  235 1    
   227  115  116 1    
   228  115  117 1    
   229  115  236 1    
   230  116  237 1    
   231  116  238 1    
   232  116  239 1    
   233  117  118 2    
   234  117  119 am   BACKBONE|DICT|INTERRES
   235  119  120 1    
   236  119  240 1    
   237  120  121 1    
   238  120  124 1    
   239  120  241 1    
   240  121  122 am   BACKBONE|DICT|INTERRES
   241  121  123 2    
   242  122  242 1    
   243  122  243 1    
   244  124  125 1    
   245  124  244 1    
   246  124  245 1    
   247  125  126 1    
   248  126  246 1    
   249  126  247 1    
@<TRIPOS>SUBSTRUCTURE
     1 UNK         1 GROUP             0       ****    0 ROOT    
