@<TRIPOS>MOLECULE
3R540
247   249    1
SMALL
USER_CHARGES


@<TRIPOS>ATOM
      1 CA         -3.4175  -12.9356  -44.8301 C.3       0 UNK        -0.1800 
      2 C          -2.4736  -11.8694  -45.3696 C.2       0 UNK         0.5000 
      3 O          -2.6670  -10.6841  -45.0973 O.2       0 UNK        -0.5000 
      4 N          -1.4628  -12.2877  -46.1407 N.am      1 UNK        -0.5000 
      5 CA         -0.4145  -11.4363  -46.7132 C.3       1 UNK         0.1400 
      6 C6          0.4609  -12.2005  -47.7409 C.3       23 UNK        -0.0398 
      7 S7         -0.5211  -12.9835  -49.0668 S.3       23 UNK        -0.2404 
      8 C8          0.7826  -13.5638  -50.1980 C.3       23 UNK        -0.0205 
      9 C9          0.8364  -15.0831  -50.2795 C.ar      23 UNK        -0.0193 
     10 C10        -0.0723  -15.7696  -51.0923 C.ar      23 UNK        -0.1150 
     11 C11        -0.0032  -17.1596  -51.2187 C.ar      23 UNK        -0.0193 
     12 C12         0.9867  -17.8596  -50.5272 C.ar      23 UNK        -0.1150 
     13 C13         1.9069  -17.1913  -49.7188 C.ar      23 UNK        -0.0193 
     14 C14         1.8180  -15.8008  -49.5862 C.ar      23 UNK        -0.1150 
     15 C15         3.0289  -17.9667  -49.0419 C.3       23 UNK        -0.0205 
     16 S16         2.4658  -18.8952  -47.5825 S.3       23 UNK        -0.2404 
     17 C17         1.9507  -20.5051  -48.2721 C.3       23 UNK        -0.0398 
     18 CA          0.5430  -20.9816  -47.8350 C.3       11 UNK         0.1400 
     19 N           0.3765  -21.0024  -46.3786 N.am      11 UNK        -0.5000 
     20 C          -0.5762  -21.6978  -45.7432 C.2       10 UNK         0.5000 
     21 O          -1.4500  -22.3274  -46.3410 O.2       10 UNK        -0.5000 
     22 CA         -0.5706  -21.6746  -44.1995 C.3       10 UNK         0.1400 
     23 CB         -1.1266  -22.9758  -43.5838 C.3       10 UNK        -0.1800 
     24 N           0.7307  -21.3426  -43.6103 N.am      10 UNK        -0.5000 
     25 C           1.8751  -22.0419  -43.6761 C.2       9 UNK         0.5000 
     26 O           2.0022  -23.0936  -44.3035 O.2       9 UNK        -0.5000 
     27 CA          3.0862  -21.4721  -42.9097 C.3       9 UNK         0.1400 
     28 CB          4.2335  -21.1291  -43.8761 C.3       9 UNK        -0.1800 
     29 N           2.7238  -20.2715  -42.1510 N.am      9 UNK        -0.5000 
     30 C           2.4991  -20.2331  -40.8318 C.2       8 UNK         0.5000 
     31 O           2.6662  -21.1946  -40.0806 O.2       8 UNK        -0.5000 
     32 CA          1.9760  -18.9058  -40.2499 C.3       8 UNK         0.1400 
     33 CB          3.1372  -17.9593  -39.9106 C.3       8 UNK        -0.1800 
     34 N           1.0115  -18.2113  -41.1095 N.am      8 UNK        -0.5000 
     35 C          -0.2290  -18.6559  -41.3652 C.2       7 UNK         0.5000 
     36 O          -0.6444  -19.7572  -41.0070 O.2       7 UNK        -0.5000 
     37 CA         -1.1679  -17.7244  -42.1489 C.3       7 UNK         0.1400 
     38 CB         -1.7479  -16.6440  -41.2230 C.3       7 UNK        -0.1800 
     39 N          -0.4723  -17.0770  -43.2546 N.am      7 UNK        -0.5000 
     40 C          -0.5419  -17.4656  -44.5339 C.2       6 UNK         0.5000 
     41 O          -1.2295  -18.4000  -44.9497 O.2       6 UNK        -0.5000 
     42 CA          0.3498  -16.6926  -45.5211 C.3       6 UNK         0.1400 
     43 CB         -0.3014  -15.3555  -45.8950 C.3       6 UNK        -0.1800 
     44 N           1.6984  -16.4168  -45.0271 N.am      6 UNK        -0.5000 
     45 C           2.5290  -17.2768  -44.4214 C.2       5 UNK         0.5000 
     46 O           2.2834  -18.4680  -44.2413 O.2       5 UNK        -0.5000 
     47 CA          3.8208  -16.6764  -43.8421 C.3       5 UNK         0.1400 
     48 CB          4.9365  -16.7067  -44.8965 C.3       5 UNK        -0.1800 
     49 N           3.6603  -15.3039  -43.3495 N.am      5 UNK        -0.5000 
     50 C           2.7321  -14.8509  -42.4933 C.2       4 UNK         0.5000 
     51 O           1.8803  -15.5722  -41.9681 O.2       4 UNK        -0.5000 
     52 CA          2.6944  -13.3326  -42.2280 C.3       4 UNK         0.1400 
     53 CB          3.3626  -12.9859  -40.8846 C.3       4 UNK        -0.1800 
     54 N           3.2107  -12.4994  -43.3273 N.am      4 UNK        -0.5000 
     55 C           4.4748  -12.3533  -43.7597 C.2       3 UNK         0.5000 
     56 O           5.4280  -12.9703  -43.2850 O.2       3 UNK        -0.5000 
     57 CA          4.7250  -11.4102  -44.9572 C.3       3 UNK         0.1400 
     58 CB          5.0640  -12.2306  -46.2128 C.3       3 UNK        -0.1800 
     59 N           3.5968  -10.5331  -45.2711 N.am      3 UNK        -0.5000 
     60 C           3.1598   -9.5193  -44.5119 C.2       2 UNK         0.5000 
     61 O           3.7336   -9.1352  -43.4924 O.2       2 UNK        -0.5000 
     62 CA          1.8443   -8.8374  -44.9465 C.3       2 UNK         0.1400 
     63 CB          2.1367   -7.4734  -45.5908 C.3       2 UNK        -0.1800 
     64 N           1.0062   -9.6234  -45.8642 N.am      2 UNK        -0.5000 
     65 C           0.4766  -10.8286  -45.6080 C.2       1 UNK         0.5000 
     66 O           0.7110  -11.4734  -44.5815 O.2       1 UNK        -0.5000 
     67 C          -0.6029  -20.2549  -48.5716 C.2       11 UNK         0.5000 
     68 O          -0.9328  -20.6483  -49.6900 O.2       11 UNK        -0.5000 
     69 N          -1.2289  -19.2522  -47.9359 N.am      12 UNK        -0.5000 
     70 CA         -2.4107  -18.5802  -48.4843 C.3       12 UNK         0.1400 
     71 CB         -2.5331  -17.1634  -47.9165 C.3       12 UNK        -0.1800 
     72 C          -3.6927  -19.3878  -48.2312 C.2       12 UNK         0.5000 
     73 O          -4.5967  -19.3663  -49.0663 O.2       12 UNK        -0.5000 
     74 N          -3.7364  -20.1278  -47.1136 N.am      13 UNK        -0.5000 
     75 CA         -4.8168  -21.0628  -46.7980 C.3       13 UNK         0.1400 
     76 CB         -4.6936  -21.5419  -45.3453 C.3       13 UNK        -0.1800 
     77 C          -4.8561  -22.2479  -47.7801 C.2       13 UNK         0.5000 
     78 O          -5.9435  -22.6713  -48.1638 O.2       13 UNK        -0.5000 
     79 N          -3.6809  -22.7120  -48.2300 N.am      14 UNK        -0.5000 
     80 CA         -3.5290  -23.7200  -49.2829 C.3       14 UNK         0.1400 
     81 CB         -2.0470  -24.0967  -49.4236 C.3       14 UNK        -0.1800 
     82 C          -4.1075  -23.2768  -50.6427 C.2       14 UNK         0.5000 
     83 O          -4.6553  -24.1089  -51.3650 O.2       14 UNK        -0.5000 
     84 N          -4.0126  -21.9758  -50.9521 N.am      15 UNK        -0.5000 
     85 CA         -4.5901  -21.3820  -52.1578 C.3       15 UNK         0.1400 
     86 CB         -3.8978  -20.0477  -52.4650 C.3       15 UNK        -0.1800 
     87 C          -6.1180  -21.2158  -52.0747 C.2       15 UNK         0.5000 
     88 O          -6.7831  -21.2723  -53.1091 O.2       15 UNK        -0.5000 
     89 N          -6.6494  -21.0250  -50.8595 N.am      16 UNK        -0.5000 
     90 CA         -8.0875  -20.9997  -50.5867 C.3       16 UNK         0.1400 
     91 CB         -8.3385  -20.2903  -49.2469 C.3       16 UNK        -0.1800 
     92 C          -8.7010  -22.4143  -50.5852 C.2       16 UNK         0.5000 
     93 O          -9.8374  -22.5869  -51.0288 O.2       16 UNK        -0.5000 
     94 N          -7.9369  -23.3940  -50.0857 N.am      17 UNK        -0.5000 
     95 CA         -8.2667  -24.8174  -50.0581 C.3       17 UNK         0.1400 
     96 CB         -7.3053  -25.5187  -49.0820 C.3       17 UNK        -0.1800 
     97 C          -8.2092  -25.4775  -51.4512 C.2       17 UNK         0.5000 
     98 O          -7.8054  -24.8531  -52.4347 O.2       17 UNK        -0.5000 
     99 N          -8.5931  -26.7608  -51.4955 N.am      18 UNK        -0.5000 
    100 CA        -8.6849  -27.5987  -52.6962 C.3       18 UNK         0.1400 
    101 CB        -9.3101  -28.9474  -52.3058 C.3       18 UNK        -0.1800 
    102 C         -7.3603  -27.8207  -53.4574 C.2       18 UNK         0.5000 
    103 O         -7.4056  -28.2174  -54.6228 O.2       18 UNK        -0.5000 
    104 N         -6.2133  -27.5574  -52.8119 N.am      19 UNK        -0.5000 
    105 CA        -4.8919  -27.5465  -53.4478 C.3       19 UNK         0.1400 
    106 CB        -3.8001  -27.4500  -52.3712 C.3       19 UNK        -0.1800 
    107 C         -4.7481  -26.4211  -54.4942 C.2       19 UNK         0.5000 
    108 O         -4.0798  -26.6254  -55.5082 O.2       19 UNK        -0.5000 
    109 N         -5.4226  -25.2867  -54.2475 N.am      20 UNK        -0.5000 
    110 CA        -5.6684  -24.1699  -55.1640 C.3       20 UNK         0.1400 
    111 CB        -6.6600  -24.6073  -56.2620 C.3       20 UNK        -0.1800 
    112 C         -4.4012  -23.5013  -55.7401 C.2       20 UNK         0.5000 
    113 O         -4.4377  -22.9856  -56.8593 O.2       20 UNK        -0.5000 
    114 N         -3.3057  -23.5029  -54.9731 N.am      21 UNK        -0.5000 
    115 CA        -2.0311  -22.8987  -55.3440 C.3       21 UNK         0.1400 
    116 CB        -1.1900  -23.9142  -56.1369 C.3       21 UNK        -0.1800 
    117 C         -1.2918  -22.4398  -54.0823 C.2       21 UNK         0.5000 
    118 O         -1.4924  -23.0156  -53.0112 O.2       21 UNK        -0.5000 
    119 N         -0.4333  -21.4273  -54.2470 N.am      22 UNK        -0.5000 
    120 CA         0.4200  -20.8565  -53.1905 C.3       22 UNK         0.1400 
    121 C          1.6266  -21.7485  -52.7685 C.2       22 UNK         0.5000 
    122 N          1.9175  -22.8523  -53.4462 N.am      22 UNK        -0.7600 
    123 O          2.3159  -21.4309  -51.8042 O.2       22 UNK        -0.5000 
    124 C124        0.9045  -19.4281  -53.5635 C.3       23 UNK        -0.0398 
    125 S125       -0.4441  -18.2128  -53.7819 S.3       23 UNK        -0.2404 
    126 C126       -1.0114  -17.9133  -52.0744 C.3       23 UNK        -0.0205 
    127 H127       -3.1811  -13.9250  -45.2215 H         1 UNK         0.0600 
    128 H128       -4.4459  -12.7005  -45.1043 H         1 UNK         0.0600 
    129 H129       -3.3539  -12.9760  -43.7427 H         1 UNK         0.0600 
    130 H130       -1.3700  -13.2716  -46.3406 H         1 UNK         0.3000 
    131 H131       -0.9141  -10.6163  -47.2336 H         1 UNK         0.0600 
    132 H132        1.1661  -11.5120  -48.2103 H         1 UNK         0.0800 
    133 H133        1.0653  -12.9656  -47.2518 H         1 UNK         0.0800 
    134 H134        1.7539  -13.1659  -49.9007 H         1 UNK         0.0800 
    135 H135        0.5866  -13.1574  -51.1913 H         1 UNK         0.0800 
    136 H136       -0.8322  -15.2189  -51.6289 H         1 UNK         0.1150 
    137 H137        1.0458  -18.9320  -50.6307 H         1 UNK         0.1150 
    138 H138        2.5307  -15.2738  -48.9677 H         1 UNK         0.1150 
    139 H139        3.5000  -18.6424  -49.7574 H         1 UNK         0.0800 
    140 H140        3.8128  -17.2786  -48.7222 H         1 UNK         0.0800 
    141 H141        2.6867  -21.2388  -47.9409 H         1 UNK         0.0800 
    142 H142        2.0325  -20.4973  -49.3581 H         1 UNK         0.0800 
    143 H143        0.4714  -22.0219  -48.1617 H         1 UNK         0.0600 
    144 H144        1.0498  -20.4788  -45.8358 H         1 UNK         0.3000 
    145 H145       -1.2450  -20.8682  -43.9100 H         1 UNK         0.0600 
    146 H146       -2.1573  -23.1520  -43.8897 H         1 UNK         0.0600 
    147 H147       -1.1194  -22.9289  -42.4947 H         1 UNK         0.0600 
    148 H148       -0.5469  -23.8479  -43.8868 H         1 UNK         0.0600 
    149 H149        0.7511  -20.4930  -43.0653 H         1 UNK         0.3000 
    150 H150        3.4390  -22.2542  -42.2347 H         1 UNK         0.0600 
    151 H151        4.6016  -22.0263  -44.3750 H         1 UNK         0.0600 
    152 H152        5.0761  -20.6837  -43.3472 H         1 UNK         0.0600 
    153 H153        3.9198  -20.4334  -44.6544 H         1 UNK         0.0600 
    154 H154        2.5479  -19.4439  -42.7162 H         1 UNK         0.3000 
    155 H155        1.4646  -19.1449  -39.3149 H         1 UNK         0.0600 
    156 H156        3.6926  -17.6640  -40.7991 H         1 UNK         0.0600 
    157 H157        3.8417  -18.4351  -39.2273 H         1 UNK         0.0600 
    158 H158        2.7771  -17.0515  -39.4259 H         1 UNK         0.0600 
    159 H159        1.2829  -17.2867  -41.4329 H         1 UNK         0.3000 
    160 H160       -1.9985  -18.3249  -42.5264 H         1 UNK         0.0600 
    161 H161       -0.9684  -15.9980  -40.8166 H         1 UNK         0.0600 
    162 H162       -2.2765  -17.0930  -40.3811 H         1 UNK         0.0600 
    163 H163       -2.4603  -16.0131  -41.7551 H         1 UNK         0.0600 
    164 H164        0.1753  -16.3382  -43.0084 H         1 UNK         0.3000 
    165 H165        0.4310  -17.2949  -46.4253 H         1 UNK         0.0600 
    166 H166        0.1035  -14.9947  -46.8387 H         1 UNK         0.0600 
    167 H167       -1.3795  -15.4469  -46.0187 H         1 UNK         0.0600 
    168 H168       -0.1291  -14.5971  -45.1299 H         1 UNK         0.0600 
    169 H169        2.0117  -15.4620  -45.1089 H         1 UNK         0.3000 
    170 H170        4.1286  -17.2999  -43.0028 H         1 UNK         0.0600 
    171 H171        5.0905  -17.7192  -45.2729 H         1 UNK         0.0600 
    172 H172        4.7002  -16.0716  -45.7515 H         1 UNK         0.0600 
    173 H173        5.8844  -16.3678  -44.4783 H         1 UNK         0.0600 
    174 H174        4.3525  -14.6306  -43.6574 H         1 UNK         0.3000 
    175 H175        1.6390  -13.0689  -42.1424 H         1 UNK         0.0600 
    176 H176        4.4159  -13.2665  -40.8656 H         1 UNK         0.0600 
    177 H177        3.2944  -11.9185  -40.6745 H         1 UNK         0.0600 
    178 H178        2.8741  -13.5112  -40.0629 H         1 UNK         0.0600 
    179 H179        2.4876  -11.9877  -43.8248 H         1 UNK         0.3000 
    180 H180        5.5856  -10.7862  -44.7077 H         1 UNK         0.0600 
    181 H181        5.3087  -11.5820  -47.0542 H         1 UNK         0.0600 
    182 H182        4.2334  -12.8714  -46.5122 H         1 UNK         0.0600 
    183 H183        5.9282  -12.8738  -46.0407 H         1 UNK         0.0600 
    184 H184        3.0675  -10.7606  -46.0986 H         1 UNK         0.3000 
    185 H185        1.2612   -8.6677  -44.0390 H         1 UNK         0.0600 
    186 H186        2.6923   -7.5806  -46.5233 H         1 UNK         0.0600 
    187 H187        1.2152   -6.9326  -45.8077 H         1 UNK         0.0600 
    188 H188        2.7300   -6.8442  -44.9258 H         1 UNK         0.0600 
    189 H189        0.7769   -9.1709  -46.7379 H         1 UNK         0.3000 
    190 H190       -0.9507  -19.0085  -46.9933 H         1 UNK         0.3000 
    191 H191       -2.2977  -18.4824  -49.5641 H         1 UNK         0.0600 
    192 H192       -3.3741  -16.6363  -48.3686 H         1 UNK         0.0600 
    193 H193       -1.6366  -16.5815  -48.1308 H         1 UNK         0.0600 
    194 H194       -2.6984  -17.1754  -46.8397 H         1 UNK         0.0600 
    195 H195       -2.9484  -20.1059  -46.4834 H         1 UNK         0.3000 
    196 H196       -5.7619  -20.5238  -46.8927 H         1 UNK         0.0600 
    197 H197       -3.7910  -22.1291  -45.1889 H         1 UNK         0.0600 
    198 H198       -4.6747  -20.7021  -44.6505 H         1 UNK         0.0600 
    199 H199       -5.5415  -22.1716  -45.0730 H         1 UNK         0.0600 
    200 H200       -2.8292  -22.3664  -47.7996 H         1 UNK         0.3000 
    201 H201       -4.0741  -24.6104  -48.9653 H         1 UNK         0.0600 
    202 H202       -1.6344  -24.4460  -48.4769 H         1 UNK         0.0600 
    203 H203       -1.4468  -23.2518  -49.7612 H         1 UNK         0.0600 
    204 H204       -1.9181  -24.8973  -50.1532 H         1 UNK         0.0600 
    205 H205       -3.5392  -21.3543  -50.3121 H         1 UNK         0.3000 
    206 H206       -4.3908  -22.0521  -52.9929 H         1 UNK         0.0600 
    207 H207       -2.8344  -20.2001  -52.6428 H         1 UNK         0.0600 
    208 H208       -4.3118  -19.5896  -53.3640 H         1 UNK         0.0600 
    209 H209       -4.0081  -19.3321  -51.6507 H         1 UNK         0.0600 
    210 H210       -6.0284  -20.9490  -50.0648 H         1 UNK         0.3000 
    211 H211       -8.5813  -20.4213  -51.3705 H         1 UNK         0.0600 
    212 H212       -9.4072  -20.2059  -49.0465 H         1 UNK         0.0600 
    213 H213       -7.9266  -19.2809  -49.2520 H         1 UNK         0.0600 
    214 H214       -7.8911  -20.8295  -48.4120 H         1 UNK         0.0600 
    215 H215       -7.0420  -23.1394  -49.6805 H         1 UNK         0.3000 
    216 H216       -9.2856  -24.9216  -49.6800 H         1 UNK         0.0600 
    217 H217       -6.2759  -25.4776  -49.4382 H         1 UNK         0.0600 
    218 H218       -7.5639  -26.5690  -48.9455 H         1 UNK         0.0600 
    219 H219       -7.3366  -25.0543  -48.0962 H         1 UNK         0.0600 
    220 H220       -8.8928  -27.1992  -50.6367 H         1 UNK         0.3000 
    221 H221       -9.3643  -27.0973  -53.3885 H         1 UNK         0.0600 
    222 H222      -10.2976  -28.8129  -51.8639 H         1 UNK         0.0600 
    223 H223       -8.6893  -29.4844  -51.5876 H         1 UNK         0.0600 
    224 H224       -9.4333  -29.5908  -53.1782 H         1 UNK         0.0600 
    225 H225       -6.2641  -27.2353  -51.8572 H         1 UNK         0.3000 
    226 H226       -4.7637  -28.4964  -53.9710 H         1 UNK         0.0600 
    227 H227       -3.9024  -26.5490  -51.7682 H         1 UNK         0.0600 
    228 H228       -3.8343  -28.3073  -51.6989 H         1 UNK         0.0600 
    229 H229       -2.8074  -27.4308  -52.8228 H         1 UNK         0.0600 
    230 H230       -5.9290  -25.2215  -53.3701 H         1 UNK         0.3000 
    231 H231       -6.1642  -23.4049  -54.5672 H         1 UNK         0.0600 
    232 H232       -6.2185  -25.3459  -56.9317 H         1 UNK         0.0600 
    233 H233       -6.9771  -23.7587  -56.8692 H         1 UNK         0.0600 
    234 H234       -7.5588  -25.0448  -55.8266 H         1 UNK         0.0600 
    235 H235       -3.3369  -23.9115  -54.0469 H         1 UNK         0.3000 
    236 H236       -2.2133  -22.0180  -55.9640 H         1 UNK         0.0600 
    237 H237       -1.6988  -24.2194  -57.0515 H         1 UNK         0.0600 
    238 H238       -0.2288  -23.4892  -56.4281 H         1 UNK         0.0600 
    239 H239       -0.9916  -24.8128  -55.5511 H         1 UNK         0.0600 
    240 H240       -0.3291  -21.0150  -55.1627 H         1 UNK         0.3000 
    241 H241       -0.1929  -20.7781  -52.2922 H         1 UNK         0.0600 
    242 H242        2.7008  -23.4168  -53.1571 H         1 UNK         0.3800 
    243 H243        1.3614  -23.1335  -54.2365 H         1 UNK         0.3800 
    244 H244        1.4640  -19.4672  -54.4994 H         1 UNK         0.0800 
    245 H245        1.6115  -19.0375  -52.8333 H         1 UNK         0.0800 
    246 H246       -1.9483  -17.3558  -52.1137 H         1 UNK         0.0800 
    247 H247       -1.2520  -18.8639  -51.6031 H         1 UNK         0.0800 
@<TRIPOS>BOND
     1    1    2 1    
     2    1  127 1    
     3    1  128 1    
     4    1  129 1    
     5    2    3 2    
     6    2    4 am   BACKBONE|DICT|INTERRES
     7    4    5 1    
     8    4  130 1    
     9    5    6 1    
    10    5   65 1    
    11    5  131 1    
    12    6    7 1    
    13    6  132 1    
    14    6  133 1    
    15    7    8 1    
    16    8    9 1    
    17    8  134 1    
    18    8  135 1    
    19    9   10 ar   
    20    9   14 ar   
    21   10   11 ar   
    22   10  136 1    
    23   11   12 ar   
    24   11  126 1    
    25   12   13 ar   
    26   12  137 1    
    27   13   14 ar   
    28   13   15 1    
    29   14  138 1    
    30   15   16 1    
    31   15  139 1    
    32   15  140 1    
    33   16   17 1    
    34   17   18 1    
    35   17  141 1    
    36   17  142 1    
    37   18   19 1    
    38   18   67 1    
    39   18  143 1    
    40   19   20 am   BACKBONE|DICT|INTERRES
    41   19  144 1    
    42   20   21 2    
    43   20   22 1    
    44   22   23 1    
    45   22   24 1    
    46   22  145 1    
    47   23  146 1    
    48   23  147 1    
    49   23  148 1    
    50   24   25 am   BACKBONE|DICT|INTERRES
    51   24  149 1    
    52   25   26 2    
    53   25   27 1    
    54   27   28 1    
    55   27   29 1    
    56   27  150 1    
    57   28  151 1    
    58   28  152 1    
    59   28  153 1    
    60   29   30 am   BACKBONE|DICT|INTERRES
    61   29  154 1    
    62   30   31 2    
    63   30   32 1    
    64   32   33 1    
    65   32   34 1    
    66   32  155 1    
    67   33  156 1    
    68   33  157 1    
    69   33  158 1    
    70   34   35 am   BACKBONE|DICT|INTERRES
    71   34  159 1    
    72   35   36 2    
    73   35   37 1    
    74   37   38 1    
    75   37   39 1    
    76   37  160 1    
    77   38  161 1    
    78   38  162 1    
    79   38  163 1    
    80   39   40 am   BACKBONE|DICT|INTERRES
    81   39  164 1    
    82   40   41 2    
    83   40   42 1    
    84   42   43 1    
    85   42   44 1    
    86   42  165 1    
    87   43  166 1    
    88   43  167 1    
    89   43  168 1    
    90   44   45 am   BACKBONE|DICT|INTERRES
    91   44  169 1    
    92   45   46 2    
    93   45   47 1    
    94   47   48 1    
    95   47   49 1    
    96   47  170 1    
    97   48  171 1    
    98   48  172 1    
    99   48  173 1    
   100   49   50 am   BACKBONE|DICT|INTERRES
   101   49  174 1    
   102   50   51 2    
   103   50   52 1    
   104   52   53 1    
   105   52   54 1    
   106   52  175 1    
   107   53  176 1    
   108   53  177 1    
   109   53  178 1    
   110   54   55 am   BACKBONE|DICT|INTERRES
   111   54  179 1    
   112   55   56 2    
   113   55   57 1    
   114   57   58 1    
   115   57   59 1    
   116   57  180 1    
   117   58  181 1    
   118   58  182 1    
   119   58  183 1    
   120   59   60 am   BACKBONE|DICT|INTERRES
   121   59  184 1    
   122   60   61 2    
   123   60   62 1    
   124   62   63 1    
   125   62   64 1    
   126   62  185 1    
   127   63  186 1    
   128   63  187 1    
   129   63  188 1    
   130   64   65 am   BACKBONE|DICT|INTERRES
   131   64  189 1    
   132   65   66 2    
   133   67   68 2    
   134   67   69 am   BACKBONE|DICT|INTERRES
   135   69   70 1    
   136   69  190 1    
   137   70   71 1    
   138   70   72 1    
   139   70  191 1    
   140   71  192 1    
   141   71  193 1    
   142   71  194 1    
   143   72   73 2    
   144   72   74 am   BACKBONE|DICT|INTERRES
   145   74   75 1    
   146   74  195 1    
   147   75   76 1    
   148   75   77 1    
   149   75  196 1    
   150   76  197 1    
   151   76  198 1    
   152   76  199 1    
   153   77   78 2    
   154   77   79 am   BACKBONE|DICT|INTERRES
   155   79   80 1    
   156   79  200 1    
   157   80   81 1    
   158   80   82 1    
   159   80  201 1    
   160   81  202 1    
   161   81  203 1    
   162   81  204 1    
   163   82   83 2    
   164   82   84 am   BACKBONE|DICT|INTERRES
   165   84   85 1    
   166   84  205 1    
   167   85   86 1    
   168   85   87 1    
   169   85  206 1    
   170   86  207 1    
   171   86  208 1    
   172   86  209 1    
   173   87   88 2    
   174   87   89 am   BACKBONE|DICT|INTERRES
   175   89   90 1    
   176   89  210 1    
   177   90   91 1    
   178   90   92 1    
   179   90  211 1    
   180   91  212 1    
   181   91  213 1    
   182   91  214 1    
   183   92   93 2    
   184   92   94 am   BACKBONE|DICT|INTERRES
   185   94   95 1    
   186   94  215 1    
   187   95   96 1    
   188   95   97 1    
   189   95  216 1    
   190   96  217 1    
   191   96  218 1    
   192   96  219 1    
   193   97   98 2    
   194   97   99 am   BACKBONE|DICT|INTERRES
   195   99  100 1    
   196   99  220 1    
   197  100  101 1    
   198  100  102 1    
   199  100  221 1    
   200  101  222 1    
   201  101  223 1    
   202  101  224 1    
   203  102  103 2    
   204  102  104 am   BACKBONE|DICT|INTERRES
   205  104  105 1    
   206  104  225 1    
   207  105  106 1    
   208  105  107 1    
   209  105  226 1    
   210  106  227 1    
   211  106  228 1    
   212  106  229 1    
   213  107  108 2    
   214  107  109 am   BACKBONE|DICT|INTERRES
   215  109  110 1    
   216  109  230 1    
   217  110  111 1    
   218  110  112 1    
   219  110  231 1    
   220  111  232 1    
   221  111  233 1    
   222  111  234 1    
   223  112  113 2    
   224  112  114 am   BACKBONE|DICT|INTERRES
   225  114  115 1    
   226  114  235 1    
   227  115  116 1    
   228  115  117 1    
   229  115  236 1    
   230  116  237 1    
   231  116  238 1    
   232  116  239 1    
   233  117  118 2    
   234  117  119 am   BACKBONE|DICT|INTERRES
   235  119  120 1    
   236  119  240 1    
   237  120  121 1    
   238  120  124 1    
   239  120  241 1    
   240  121  122 am   BACKBONE|DICT|INTERRES
   241  121  123 2    
   242  122  242 1    
   243  122  243 1    
   244  124  125 1    
   245  124  244 1    
   246  124  245 1    
   247  125  126 1    
   248  126  246 1    
   249  126  247 1    
@<TRIPOS>SUBSTRUCTURE
     1 UNK         1 GROUP             0       ****    0 ROOT    
