@<TRIPOS>MOLECULE
3R540
247   249    1
SMALL
USER_CHARGES


@<TRIPOS>ATOM
      1 CA         -7.5572  -17.6370  -49.1281 C.3       0 UNK        -0.1800 
      2 C          -6.3846  -16.7612  -48.7159 C.2       0 UNK         0.5000 
      3 O          -6.1207  -15.7399  -49.3511 O.2       0 UNK        -0.5000 
      4 N          -5.6825  -17.1527  -47.6461 N.am      1 UNK        -0.5000 
      5 CA         -4.5212  -16.4512  -47.0863 C.3       1 UNK         0.1400 
      6 C6         -3.6022  -17.3903  -46.2671 C.3       23 UNK        -0.0398 
      7 S7         -2.9388  -18.7613  -47.2679 S.3       23 UNK        -0.2404 
      8 C8         -1.2721  -18.1353  -47.6465 C.3       23 UNK        -0.0205 
      9 C9         -0.5048  -19.0251  -48.6157 C.ar      23 UNK        -0.0193 
     10 C10         0.2125  -18.4373  -49.6601 C.ar      23 UNK        -0.1150 
     11 C11         0.9326  -19.2211  -50.5647 C.ar      23 UNK        -0.0193 
     12 C12         0.9417  -20.6105  -50.4082 C.ar      23 UNK        -0.1150 
     13 C13         0.2402  -21.2151  -49.3614 C.ar      23 UNK        -0.0193 
     14 C14        -0.4744  -20.4170  -48.4637 C.ar      23 UNK        -0.1150 
     15 C15         0.2389  -22.7302  -49.2215 C.3       23 UNK        -0.0205 
     16 S16         1.5476  -23.3162  -48.0975 S.3       23 UNK        -0.2404 
     17 C17         0.5451  -23.8633  -46.6754 C.3       23 UNK        -0.0398 
     18 CA          1.3583  -24.6337  -45.6072 C.3       11 UNK         0.1400 
     19 N           2.3487  -23.7709  -44.9553 N.am      11 UNK        -0.5000 
     20 C           3.4526  -24.1906  -44.3251 C.2       10 UNK         0.5000 
     21 O           3.7960  -25.3712  -44.2596 O.2       10 UNK        -0.5000 
     22 CA          4.2892  -23.1123  -43.6087 C.3       10 UNK         0.1400 
     23 CB          5.2384  -22.4147  -44.5943 C.3       10 UNK        -0.1800 
     24 N           3.4683  -22.1107  -42.9199 N.am      10 UNK        -0.5000 
     25 C           2.6599  -22.3741  -41.8820 C.2       9 UNK         0.5000 
     26 O           2.5304  -23.4927  -41.3851 O.2       9 UNK        -0.5000 
     27 CA          1.8210  -21.2075  -41.3293 C.3       9 UNK         0.1400 
     28 CB          2.6673  -20.3017  -40.4224 C.3       9 UNK        -0.1800 
     29 N           1.2058  -20.4060  -42.3846 N.am      9 UNK        -0.5000 
     30 C           0.2810  -20.8529  -43.2461 C.2       8 UNK         0.5000 
     31 O          -0.2013  -21.9845  -43.2155 O.2       8 UNK        -0.5000 
     32 CA         -0.1372  -19.8821  -44.3635 C.3       8 UNK         0.1400 
     33 CB         -1.1353  -18.8465  -43.8216 C.3       8 UNK        -0.1800 
     34 N           1.0152  -19.2104  -44.9710 N.am      8 UNK        -0.5000 
     35 C           2.0333  -19.8460  -45.5718 C.2       7 UNK         0.5000 
     36 O           2.0932  -21.0654  -45.7008 O.2       7 UNK        -0.5000 
     37 CA          3.2213  -18.9893  -46.0345 C.3       7 UNK         0.1400 
     38 CB          2.9647  -18.3863  -47.4225 C.3       7 UNK        -0.1800 
     39 N           3.5236  -17.9350  -45.0677 N.am      7 UNK        -0.5000 
     40 C           4.0762  -18.1593  -43.8663 C.2       6 UNK         0.5000 
     41 O           4.4469  -19.2689  -43.4821 O.2       6 UNK        -0.5000 
     42 CA          4.1906  -16.9498  -42.9190 C.3       6 UNK         0.1400 
     43 CB          5.4604  -16.1410  -43.2224 C.3       6 UNK        -0.1800 
     44 N           3.0234  -16.0687  -42.9923 N.am      6 UNK        -0.5000 
     45 C           1.7908  -16.4145  -42.5942 C.2       5 UNK         0.5000 
     46 O           1.5291  -17.4901  -42.0563 O.2       5 UNK        -0.5000 
     47 CA          0.6528  -15.4148  -42.8889 C.3       5 UNK         0.1400 
     48 CB          0.4446  -14.4694  -41.6971 C.3       5 UNK        -0.1800 
     49 N           0.8542  -14.6209  -44.1070 N.am      5 UNK        -0.5000 
     50 C           0.9901  -15.1299  -45.3396 C.2       4 UNK         0.5000 
     51 O           0.9664  -16.3380  -45.5760 O.2       4 UNK        -0.5000 
     52 CA          1.2072  -14.1089  -46.4742 C.3       4 UNK         0.1400 
     53 CB          1.3960  -14.7681  -47.8580 C.3       4 UNK        -0.1800 
     54 N           0.1534  -13.0879  -46.5083 N.am      4 UNK        -0.5000 
     55 C          -1.1449  -13.2845  -46.7764 C.2       3 UNK         0.5000 
     56 O          -1.6375  -14.3824  -47.0566 O.2       3 UNK        -0.5000 
     57 CA         -2.0412  -12.0333  -46.7383 C.3       3 UNK         0.1400 
     58 CB         -1.6851  -11.0451  -47.8623 C.3       3 UNK        -0.1800 
     59 N          -3.4179  -12.4703  -46.9112 N.am      3 UNK        -0.5000 
     60 C          -4.4937  -12.0549  -46.2366 C.2       2 UNK         0.5000 
     61 O          -4.4935  -11.0995  -45.4597 O.2       2 UNK        -0.5000 
     62 CA         -5.7871  -12.8698  -46.4576 C.3       2 UNK         0.1400 
     63 CB         -6.7257  -12.1425  -47.4321 C.3       2 UNK        -0.1800 
     64 N          -5.5166  -14.2156  -46.9749 N.am      2 UNK        -0.5000 
     65 C          -4.9522  -15.2091  -46.2759 C.2       1 UNK         0.5000 
     66 O          -4.7612  -15.1574  -45.0595 O.2       1 UNK        -0.5000 
     67 C           0.4124  -25.3328  -44.5983 C.2       11 UNK         0.5000 
     68 O          -0.3765  -26.1828  -45.0121 O.2       11 UNK        -0.5000 
     69 N           0.5010  -24.9783  -43.3068 N.am      12 UNK        -0.5000 
     70 CA         -0.2783  -25.4979  -42.1781 C.3       12 UNK         0.1400 
     71 CB          0.0335  -26.9895  -41.9342 C.3       12 UNK        -0.1800 
     72 C          -1.7891  -25.1995  -42.2894 C.2       12 UNK         0.5000 
     73 O          -2.6142  -26.0427  -41.9326 O.2       12 UNK        -0.5000 
     74 N          -2.1140  -23.9886  -42.7669 N.am      13 UNK        -0.5000 
     75 CA         -3.4559  -23.4124  -42.9123 C.3       13 UNK         0.1400 
     76 CB         -4.0724  -23.1305  -41.5265 C.3       13 UNK        -0.1800 
     77 C          -4.3933  -24.2213  -43.8369 C.2       13 UNK         0.5000 
     78 O          -5.6019  -24.2761  -43.6008 O.2       13 UNK        -0.5000 
     79 N          -3.8212  -24.8221  -44.8840 N.am      14 UNK        -0.5000 
     80 CA         -4.5127  -25.5796  -45.9212 C.3       14 UNK         0.1400 
     81 CB         -4.5035  -27.0716  -45.5477 C.3       14 UNK        -0.1800 
     82 C          -3.8000  -25.3380  -47.2589 C.2       14 UNK         0.5000 
     83 O          -2.6559  -24.8816  -47.2591 O.2       14 UNK        -0.5000 
     84 N          -4.4840  -25.6494  -48.3706 N.am      15 UNK        -0.5000 
     85 CA         -3.9953  -25.5462  -49.7554 C.3       15 UNK         0.1400 
     86 CB         -2.9284  -26.6282  -50.0264 C.3       15 UNK        -0.1800 
     87 C          -3.5138  -24.1253  -50.1288 C.2       15 UNK         0.5000 
     88 O          -2.4709  -23.9690  -50.7654 O.2       15 UNK        -0.5000 
     89 N          -4.2770  -23.1185  -49.6824 N.am      16 UNK        -0.5000 
     90 CA         -3.9982  -21.6899  -49.8109 C.3       16 UNK         0.1400 
     91 CB         -5.0798  -20.9140  -49.0386 C.3       16 UNK        -0.1800 
     92 C          -3.9246  -21.2216  -51.2756 C.2       16 UNK         0.5000 
     93 O          -4.9598  -20.9181  -51.8714 O.2       16 UNK        -0.5000 
     94 N          -2.7055  -21.1443  -51.8278 N.am      17 UNK        -0.5000 
     95 CA         -2.4453  -20.6573  -53.1869 C.3       17 UNK         0.1400 
     96 CB         -0.9781  -20.9087  -53.5598 C.3       17 UNK        -0.1800 
     97 C          -2.8084  -19.1720  -53.3689 C.2       17 UNK         0.5000 
     98 O          -3.1775  -18.7711  -54.4711 O.2       17 UNK        -0.5000 
     99 N          -2.7749  -18.4061  -52.2681 N.am      18 UNK        -0.5000 
    100 CA        -3.1905  -17.0054  -52.1672 C.3       18 UNK         0.1400 
    101 CB        -2.9250  -16.5190  -50.7349 C.3       18 UNK        -0.1800 
    102 C         -4.6581  -16.7362  -52.5649 C.2       18 UNK         0.5000 
    103 O         -4.9881  -15.5939  -52.8847 O.2       18 UNK        -0.5000 
    104 N         -5.5018  -17.7811  -52.5799 N.am      19 UNK        -0.5000 
    105 CA        -6.8697  -17.7397  -53.1019 C.3       19 UNK         0.1400 
    106 CB        -7.5815  -19.0536  -52.7446 C.3       19 UNK        -0.1800 
    107 C         -6.9344  -17.4979  -54.6259 C.2       19 UNK         0.5000 
    108 O         -7.9489  -16.9951  -55.1110 O.2       19 UNK        -0.5000 
    109 N         -5.8606  -17.8517  -55.3443 N.am      20 UNK        -0.5000 
    110 CA        -5.6599  -17.5837  -56.7626 C.3       20 UNK         0.1400 
    111 CB        -5.3870  -18.9134  -57.4930 C.3       20 UNK        -0.1800 
    112 C         -4.5092  -16.5718  -56.8791 C.2       20 UNK         0.5000 
    113 O         -4.7597  -15.3659  -56.8634 O.2       20 UNK        -0.5000 
    114 N         -3.2734  -17.0740  -56.9512 N.am      21 UNK        -0.5000 
    115 CA        -2.0291  -16.3191  -56.9102 C.3       21 UNK         0.1400 
    116 CB        -1.7687  -15.6272  -58.2609 C.3       21 UNK        -0.1800 
    117 C         -0.8951  -17.2947  -56.5659 C.2       21 UNK         0.5000 
    118 O         -0.9339  -18.4501  -56.9975 O.2       21 UNK        -0.5000 
    119 N          0.1010  -16.8074  -55.8199 N.am      22 UNK        -0.5000 
    120 CA         1.3064  -17.5649  -55.4359 C.3       22 UNK         0.1400 
    121 C          2.4210  -17.5826  -56.5247 C.2       22 UNK         0.5000 
    122 N          2.2951  -16.8534  -57.6271 N.am      22 UNK        -0.7600 
    123 O          3.4180  -18.2829  -56.3719 O.2       22 UNK        -0.5000 
    124 C124        1.8647  -17.0811  -54.0728 C.3       23 UNK        -0.0398 
    125 S125        0.7141  -17.4383  -52.7019 S.3       23 UNK        -0.2404 
    126 C126        1.7254  -18.5705  -51.6911 C.3       23 UNK        -0.0205 
    127 H127       -8.3905  -17.5010  -48.4390 H         1 UNK         0.0600 
    128 H128       -7.2758  -18.6900  -49.1306 H         1 UNK         0.0600 
    129 H129       -7.8982  -17.3731  -50.1287 H         1 UNK         0.0600 
    130 H130       -5.9575  -17.9917  -47.1562 H         1 UNK         0.3000 
    131 H131       -3.9195  -16.0730  -47.9151 H         1 UNK         0.0600 
    132 H132       -2.7681  -16.8248  -45.8477 H         1 UNK         0.0800 
    133 H133       -4.1410  -17.8156  -45.4189 H         1 UNK         0.0800 
    134 H134       -1.3658  -17.1252  -48.0484 H         1 UNK         0.0800 
    135 H135       -0.6953  -18.0450  -46.7300 H         1 UNK         0.0800 
    136 H136        0.2200  -17.3623  -49.7695 H         1 UNK         0.1150 
    137 H137        1.4995  -21.2260  -51.0999 H         1 UNK         0.1150 
    138 H138       -1.0097  -20.8821  -47.6484 H         1 UNK         0.1150 
    139 H139       -0.7398  -23.0657  -48.8755 H         1 UNK         0.0800 
    140 H140        0.3820  -23.1948  -50.1982 H         1 UNK         0.0800 
    141 H141        0.0380  -23.0018  -46.2370 H         1 UNK         0.0800 
    142 H142       -0.2279  -24.5127  -47.0817 H         1 UNK         0.0800 
    143 H143        1.8965  -25.4347  -46.1184 H         1 UNK         0.0600 
    144 H144        2.1862  -22.7685  -45.0402 H         1 UNK         0.3000 
    145 H145        4.8980  -23.6145  -42.8540 H         1 UNK         0.0600 
    146 H146        5.8715  -21.6873  -44.0860 H         1 UNK         0.0600 
    147 H147        4.6913  -21.8928  -45.3792 H         1 UNK         0.0600 
    148 H148        5.8961  -23.1370  -45.0791 H         1 UNK         0.0600 
    149 H149        3.5409  -21.1562  -43.2545 H         1 UNK         0.3000 
    150 H150        1.0169  -21.6340  -40.7259 H         1 UNK         0.0600 
    151 H151        3.1200  -20.8736  -39.6115 H         1 UNK         0.0600 
    152 H152        2.0579  -19.5196  -39.9691 H         1 UNK         0.0600 
    153 H153        3.4736  -19.8173  -40.9737 H         1 UNK         0.0600 
    154 H154        1.5029  -19.4374  -42.4529 H         1 UNK         0.3000 
    155 H155       -0.6296  -20.4557  -45.1513 H         1 UNK         0.0600 
    156 H156       -2.1017  -19.3120  -43.6255 H         1 UNK         0.0600 
    157 H157       -1.3002  -18.0348  -44.5261 H         1 UNK         0.0600 
    158 H158       -0.7972  -18.4014  -42.8866 H         1 UNK         0.0600 
    159 H159        1.0291  -18.1955  -44.9491 H         1 UNK         0.3000 
    160 H160        4.0951  -19.6392  -46.1128 H         1 UNK         0.0600 
    161 H161        2.0636  -17.7751  -47.4400 H         1 UNK         0.0600 
    162 H162        2.8322  -19.1756  -48.1636 H         1 UNK         0.0600 
    163 H163        3.8002  -17.7681  -47.7499 H         1 UNK         0.0600 
    164 H164        3.1694  -17.0138  -45.2807 H         1 UNK         0.3000 
    165 H165        4.2647  -17.3325  -41.8988 H         1 UNK         0.0600 
    166 H166        5.5887  -15.3266  -42.5092 H         1 UNK         0.0600 
    167 H167        6.3484  -16.7714  -43.1574 H         1 UNK         0.0600 
    168 H168        5.4361  -15.7104  -44.2242 H         1 UNK         0.0600 
    169 H169        3.1572  -15.1628  -43.4160 H         1 UNK         0.3000 
    170 H170       -0.2621  -15.9942  -43.0256 H         1 UNK         0.0600 
    171 H171        1.3153  -13.8340  -41.5300 H         1 UNK         0.0600 
    172 H172       -0.4195  -13.8230  -41.8522 H         1 UNK         0.0600 
    173 H173        0.2671  -15.0315  -40.7792 H         1 UNK         0.0600 
    174 H174        0.8755  -13.6181  -43.9926 H         1 UNK         0.3000 
    175 H175        2.1343  -13.5839  -46.2397 H         1 UNK         0.0600 
    176 H176        2.2875  -15.3953  -47.8691 H         1 UNK         0.0600 
    177 H177        0.5510  -15.4003  -48.1313 H         1 UNK         0.0600 
    178 H178        1.5195  -14.0184  -48.6394 H         1 UNK         0.0600 
    179 H179        0.4563  -12.1483  -46.2924 H         1 UNK         0.3000 
    180 H180       -1.9168  -11.5524  -45.7659 H         1 UNK         0.0600 
    181 H181       -0.6698  -10.6638  -47.7494 H         1 UNK         0.0600 
    182 H182       -2.3548  -10.1849  -47.8551 H         1 UNK         0.0600 
    183 H183       -1.7541  -11.5133  -48.8451 H         1 UNK         0.0600 
    184 H184       -3.5042  -13.3133  -47.4630 H         1 UNK         0.3000 
    185 H185       -6.2921  -12.9620  -45.4939 H         1 UNK         0.0600 
    186 H186       -6.9709  -11.1442  -47.0671 H         1 UNK         0.0600 
    187 H187       -6.2731  -12.0305  -48.4182 H         1 UNK         0.0600 
    188 H188       -7.6644  -12.6836  -47.5532 H         1 UNK         0.0600 
    189 H189       -5.7040  -14.3815  -47.9596 H         1 UNK         0.3000 
    190 H190        1.1686  -24.2566  -43.0674 H         1 UNK         0.3000 
    191 H191        0.0673  -24.9482  -41.3016 H         1 UNK         0.0600 
    192 H192       -0.4255  -27.3380  -41.0084 H         1 UNK         0.0600 
    193 H193        1.1069  -27.1575  -41.8459 H         1 UNK         0.0600 
    194 H194       -0.3404  -27.6205  -42.7409 H         1 UNK         0.0600 
    195 H195       -1.3495  -23.3597  -43.0118 H         1 UNK         0.3000 
    196 H196       -3.3127  -22.4497  -43.4053 H         1 UNK         0.0600 
    197 H197       -4.2918  -24.0523  -40.9869 H         1 UNK         0.0600 
    198 H198       -3.4000  -22.5329  -40.9109 H         1 UNK         0.0600 
    199 H199       -5.0060  -22.5741  -41.6175 H         1 UNK         0.0600 
    200 H200       -2.8279  -24.7092  -45.0449 H         1 UNK         0.3000 
    201 H201       -5.5426  -25.2298  -46.0172 H         1 UNK         0.0600 
    202 H202       -5.0133  -27.6715  -46.3023 H         1 UNK         0.0600 
    203 H203       -5.0116  -27.2425  -44.5984 H         1 UNK         0.0600 
    204 H204       -3.4855  -27.4528  -45.4541 H         1 UNK         0.0600 
    205 H205       -5.4231  -26.0089  -48.2693 H         1 UNK         0.3000 
    206 H206       -4.8481  -25.7566  -50.4023 H         1 UNK         0.0600 
    207 H207       -3.3024  -27.6216  -49.7788 H         1 UNK         0.0600 
    208 H208       -2.6437  -26.6428  -51.0791 H         1 UNK         0.0600 
    209 H209       -2.0220  -26.4566  -49.4447 H         1 UNK         0.0600 
    210 H210       -5.1171  -23.3584  -49.1778 H         1 UNK         0.3000 
    211 H211       -3.0363  -21.4878  -49.3365 H         1 UNK         0.0600 
    212 H212       -6.0836  -21.1642  -49.3844 H         1 UNK         0.0600 
    213 H213       -4.9533  -19.8382  -49.1650 H         1 UNK         0.0600 
    214 H214       -5.0296  -21.1246  -47.9702 H         1 UNK         0.0600 
    215 H215       -1.9073  -21.4647  -51.2977 H         1 UNK         0.3000 
    216 H216       -3.0715  -21.2329  -53.8717 H         1 UNK         0.0600 
    217 H217       -0.7199  -21.9639  -53.4688 H         1 UNK         0.0600 
    218 H218       -0.3009  -20.3393  -52.9267 H         1 UNK         0.0600 
    219 H219       -0.7837  -20.6113  -54.5914 H         1 UNK         0.0600 
    220 H220       -2.4449  -18.8331  -51.4155 H         1 UNK         0.3000 
    221 H221       -2.5632  -16.4283  -52.8495 H         1 UNK         0.0600 
    222 H222       -1.8593  -16.5197  -50.5117 H         1 UNK         0.0600 
    223 H223       -3.2831  -15.4991  -50.5877 H         1 UNK         0.0600 
    224 H224       -3.4256  -17.1523  -50.0022 H         1 UNK         0.0600 
    225 H225       -5.1538  -18.6928  -52.3106 H         1 UNK         0.3000 
    226 H226       -7.3928  -16.9171  -52.6101 H         1 UNK         0.0600 
    227 H227       -7.5396  -19.2550  -51.6746 H         1 UNK         0.0600 
    228 H228       -8.6337  -19.0167  -53.0292 H         1 UNK         0.0600 
    229 H229       -7.1327  -19.9041  -53.2592 H         1 UNK         0.0600 
    230 H230       -5.0463  -18.2117  -54.8553 H         1 UNK         0.3000 
    231 H231       -6.5451  -17.1258  -57.2085 H         1 UNK         0.0600 
    232 H232       -5.1295  -18.7408  -58.5387 H         1 UNK         0.0600 
    233 H233       -6.2723  -19.5492  -57.4790 H         1 UNK         0.0600 
    234 H234       -4.5731  -19.4778  -57.0361 H         1 UNK         0.0600 
    235 H235       -3.1405  -18.0768  -56.8907 H         1 UNK         0.3000 
    236 H236       -2.1010  -15.5683  -56.1203 H         1 UNK         0.0600 
    237 H237       -0.8270  -15.0777  -58.2437 H         1 UNK         0.0600 
    238 H238       -1.7143  -16.3496  -59.0763 H         1 UNK         0.0600 
    239 H239       -2.5541  -14.9107  -58.5012 H         1 UNK         0.0600 
    240 H240        0.0634  -15.8488  -55.5059 H         1 UNK         0.3000 
    241 H241        1.0208  -18.6114  -55.3096 H         1 UNK         0.0600 
    242 H242        1.4823  -16.2777  -57.7735 H         1 UNK         0.3800 
    243 H243        3.0224  -16.8804  -58.3249 H         1 UNK         0.3800 
    244 H244        2.8258  -17.5508  -53.8563 H         1 UNK         0.0800 
    245 H245        2.0573  -16.0076  -54.0972 H         1 UNK         0.0800 
    246 H246        2.1536  -19.3356  -52.3406 H         1 UNK         0.0800 
    247 H247        2.5624  -18.0189  -51.2611 H         1 UNK         0.0800 
@<TRIPOS>BOND
     1    1    2 1    
     2    1  127 1    
     3    1  128 1    
     4    1  129 1    
     5    2    3 2    
     6    2    4 am   BACKBONE|DICT|INTERRES
     7    4    5 1    
     8    4  130 1    
     9    5    6 1    
    10    5   65 1    
    11    5  131 1    
    12    6    7 1    
    13    6  132 1    
    14    6  133 1    
    15    7    8 1    
    16    8    9 1    
    17    8  134 1    
    18    8  135 1    
    19    9   10 ar   
    20    9   14 ar   
    21   10   11 ar   
    22   10  136 1    
    23   11   12 ar   
    24   11  126 1    
    25   12   13 ar   
    26   12  137 1    
    27   13   14 ar   
    28   13   15 1    
    29   14  138 1    
    30   15   16 1    
    31   15  139 1    
    32   15  140 1    
    33   16   17 1    
    34   17   18 1    
    35   17  141 1    
    36   17  142 1    
    37   18   19 1    
    38   18   67 1    
    39   18  143 1    
    40   19   20 am   BACKBONE|DICT|INTERRES
    41   19  144 1    
    42   20   21 2    
    43   20   22 1    
    44   22   23 1    
    45   22   24 1    
    46   22  145 1    
    47   23  146 1    
    48   23  147 1    
    49   23  148 1    
    50   24   25 am   BACKBONE|DICT|INTERRES
    51   24  149 1    
    52   25   26 2    
    53   25   27 1    
    54   27   28 1    
    55   27   29 1    
    56   27  150 1    
    57   28  151 1    
    58   28  152 1    
    59   28  153 1    
    60   29   30 am   BACKBONE|DICT|INTERRES
    61   29  154 1    
    62   30   31 2    
    63   30   32 1    
    64   32   33 1    
    65   32   34 1    
    66   32  155 1    
    67   33  156 1    
    68   33  157 1    
    69   33  158 1    
    70   34   35 am   BACKBONE|DICT|INTERRES
    71   34  159 1    
    72   35   36 2    
    73   35   37 1    
    74   37   38 1    
    75   37   39 1    
    76   37  160 1    
    77   38  161 1    
    78   38  162 1    
    79   38  163 1    
    80   39   40 am   BACKBONE|DICT|INTERRES
    81   39  164 1    
    82   40   41 2    
    83   40   42 1    
    84   42   43 1    
    85   42   44 1    
    86   42  165 1    
    87   43  166 1    
    88   43  167 1    
    89   43  168 1    
    90   44   45 am   BACKBONE|DICT|INTERRES
    91   44  169 1    
    92   45   46 2    
    93   45   47 1    
    94   47   48 1    
    95   47   49 1    
    96   47  170 1    
    97   48  171 1    
    98   48  172 1    
    99   48  173 1    
   100   49   50 am   BACKBONE|DICT|INTERRES
   101   49  174 1    
   102   50   51 2    
   103   50   52 1    
   104   52   53 1    
   105   52   54 1    
   106   52  175 1    
   107   53  176 1    
   108   53  177 1    
   109   53  178 1    
   110   54   55 am   BACKBONE|DICT|INTERRES
   111   54  179 1    
   112   55   56 2    
   113   55   57 1    
   114   57   58 1    
   115   57   59 1    
   116   57  180 1    
   117   58  181 1    
   118   58  182 1    
   119   58  183 1    
   120   59   60 am   BACKBONE|DICT|INTERRES
   121   59  184 1    
   122   60   61 2    
   123   60   62 1    
   124   62   63 1    
   125   62   64 1    
   126   62  185 1    
   127   63  186 1    
   128   63  187 1    
   129   63  188 1    
   130   64   65 am   BACKBONE|DICT|INTERRES
   131   64  189 1    
   132   65   66 2    
   133   67   68 2    
   134   67   69 am   BACKBONE|DICT|INTERRES
   135   69   70 1    
   136   69  190 1    
   137   70   71 1    
   138   70   72 1    
   139   70  191 1    
   140   71  192 1    
   141   71  193 1    
   142   71  194 1    
   143   72   73 2    
   144   72   74 am   BACKBONE|DICT|INTERRES
   145   74   75 1    
   146   74  195 1    
   147   75   76 1    
   148   75   77 1    
   149   75  196 1    
   150   76  197 1    
   151   76  198 1    
   152   76  199 1    
   153   77   78 2    
   154   77   79 am   BACKBONE|DICT|INTERRES
   155   79   80 1    
   156   79  200 1    
   157   80   81 1    
   158   80   82 1    
   159   80  201 1    
   160   81  202 1    
   161   81  203 1    
   162   81  204 1    
   163   82   83 2    
   164   82   84 am   BACKBONE|DICT|INTERRES
   165   84   85 1    
   166   84  205 1    
   167   85   86 1    
   168   85   87 1    
   169   85  206 1    
   170   86  207 1    
   171   86  208 1    
   172   86  209 1    
   173   87   88 2    
   174   87   89 am   BACKBONE|DICT|INTERRES
   175   89   90 1    
   176   89  210 1    
   177   90   91 1    
   178   90   92 1    
   179   90  211 1    
   180   91  212 1    
   181   91  213 1    
   182   91  214 1    
   183   92   93 2    
   184   92   94 am   BACKBONE|DICT|INTERRES
   185   94   95 1    
   186   94  215 1    
   187   95   96 1    
   188   95   97 1    
   189   95  216 1    
   190   96  217 1    
   191   96  218 1    
   192   96  219 1    
   193   97   98 2    
   194   97   99 am   BACKBONE|DICT|INTERRES
   195   99  100 1    
   196   99  220 1    
   197  100  101 1    
   198  100  102 1    
   199  100  221 1    
   200  101  222 1    
   201  101  223 1    
   202  101  224 1    
   203  102  103 2    
   204  102  104 am   BACKBONE|DICT|INTERRES
   205  104  105 1    
   206  104  225 1    
   207  105  106 1    
   208  105  107 1    
   209  105  226 1    
   210  106  227 1    
   211  106  228 1    
   212  106  229 1    
   213  107  108 2    
   214  107  109 am   BACKBONE|DICT|INTERRES
   215  109  110 1    
   216  109  230 1    
   217  110  111 1    
   218  110  112 1    
   219  110  231 1    
   220  111  232 1    
   221  111  233 1    
   222  111  234 1    
   223  112  113 2    
   224  112  114 am   BACKBONE|DICT|INTERRES
   225  114  115 1    
   226  114  235 1    
   227  115  116 1    
   228  115  117 1    
   229  115  236 1    
   230  116  237 1    
   231  116  238 1    
   232  116  239 1    
   233  117  118 2    
   234  117  119 am   BACKBONE|DICT|INTERRES
   235  119  120 1    
   236  119  240 1    
   237  120  121 1    
   238  120  124 1    
   239  120  241 1    
   240  121  122 am   BACKBONE|DICT|INTERRES
   241  121  123 2    
   242  122  242 1    
   243  122  243 1    
   244  124  125 1    
   245  124  244 1    
   246  124  245 1    
   247  125  126 1    
   248  126  246 1    
   249  126  247 1    
@<TRIPOS>SUBSTRUCTURE
     1 UNK         1 GROUP             0       ****    0 ROOT    
