@<TRIPOS>MOLECULE
3R540
247   249    1
SMALL
USER_CHARGES


@<TRIPOS>ATOM
      1 CA         -1.3993  -13.7512  -49.1666 C.3       0 UNK        -0.1800 
      2 C          -1.8794  -13.9628  -47.7381 C.2       0 UNK         0.5000 
      3 O          -1.1399  -14.5007  -46.9115 O.2       0 UNK        -0.5000 
      4 N          -3.1218  -13.5606  -47.4436 N.am      1 UNK        -0.5000 
      5 CA         -3.7541  -13.7110  -46.1314 C.3       1 UNK         0.1400 
      6 C6         -5.2711  -13.4006  -46.1497 C.3       23 UNK        -0.0398 
      7 S7         -6.2358  -14.2402  -47.4605 S.3       23 UNK        -0.2404 
      8 C8         -5.9207  -16.0192  -47.1954 C.3       23 UNK        -0.0205 
      9 C9         -4.8966  -16.5614  -48.1850 C.ar      23 UNK        -0.0193 
     10 C10        -5.2337  -16.7054  -49.5345 C.ar      23 UNK        -0.1150 
     11 C11        -4.2893  -17.1602  -50.4595 C.ar      23 UNK        -0.0193 
     12 C12        -2.9962  -17.4688  -50.0295 C.ar      23 UNK        -0.1150 
     13 C13        -2.6521  -17.3460  -48.6811 C.ar      23 UNK        -0.0193 
     14 C14        -3.6120  -16.9124  -47.7630 C.ar      23 UNK        -0.1150 
     15 C15        -1.2347  -17.6476  -48.2196 C.3       23 UNK        -0.0205 
     16 S16        -0.8335  -19.4131  -48.3504 S.3       23 UNK        -0.2404 
     17 C17        -2.0415  -20.1347  -47.1982 C.3       23 UNK        -0.0398 
     18 CA         -1.6248  -21.5648  -46.7958 C.3       11 UNK         0.1400 
     19 N          -0.4524  -21.5872  -45.9191 N.am      11 UNK        -0.5000 
     20 C           0.2723  -22.6815  -45.6490 C.2       10 UNK         0.5000 
     21 O           0.0463  -23.7860  -46.1384 O.2       10 UNK        -0.5000 
     22 CA          1.3951  -22.5268  -44.6100 C.3       10 UNK         0.1400 
     23 CB          2.6728  -21.9789  -45.2611 C.3       10 UNK        -0.1800 
     24 N           0.9806  -21.6619  -43.5047 N.am      10 UNK        -0.5000 
     25 C           0.0506  -22.0152  -42.6027 C.2       9 UNK         0.5000 
     26 O          -0.4848  -23.1242  -42.5780 O.2       9 UNK        -0.5000 
     27 CA         -0.4008  -20.9402  -41.5971 C.3       9 UNK         0.1400 
     28 CB          0.4355  -21.0221  -40.3132 C.3       9 UNK        -0.1800 
     29 N          -0.3482  -19.5860  -42.1577 N.am      9 UNK        -0.5000 
     30 C          -1.1540  -19.1646  -43.1455 C.2       8 UNK         0.5000 
     31 O          -2.0298  -19.8788  -43.6338 O.2       8 UNK        -0.5000 
     32 CA         -0.9173  -17.7672  -43.7550 C.3       8 UNK         0.1400 
     33 CB         -2.2258  -17.0160  -44.0664 C.3       8 UNK        -0.1800 
     34 N           0.0353  -16.9288  -43.0243 N.am      8 UNK        -0.5000 
     35 C          -0.0961  -16.3677  -41.8143 C.2       7 UNK         0.5000 
     36 O          -1.1295  -16.3975  -41.1461 O.2       7 UNK        -0.5000 
     37 CA          1.1720  -15.6745  -41.2679 C.3       7 UNK         0.1400 
     38 CB          1.1300  -15.4461  -39.7425 C.3       7 UNK        -0.1800 
     39 N           2.4019  -16.3743  -41.6717 N.am      7 UNK        -0.5000 
     40 C           2.7306  -17.6390  -41.3606 C.2       6 UNK         0.5000 
     41 O           2.0528  -18.3486  -40.6191 O.2       6 UNK        -0.5000 
     42 CA          3.9817  -18.2217  -42.0508 C.3       6 UNK         0.1400 
     43 CB          4.1511  -19.7374  -41.8126 C.3       6 UNK        -0.1800 
     44 N           4.0153  -17.9259  -43.4863 N.am      6 UNK        -0.5000 
     45 C           3.1057  -18.2466  -44.4168 C.2       5 UNK         0.5000 
     46 O           2.0852  -18.8946  -44.1723 O.2       5 UNK        -0.5000 
     47 CA          3.3684  -17.7201  -45.8490 C.3       5 UNK         0.1400 
     48 CB          2.1684  -17.9505  -46.7853 C.3       5 UNK        -0.1800 
     49 N           3.7035  -16.2919  -45.8816 N.am      5 UNK        -0.5000 
     50 C           4.8517  -15.7294  -45.4804 C.2       4 UNK         0.5000 
     51 O           5.8106  -16.3831  -45.0674 O.2       4 UNK        -0.5000 
     52 CA          4.9538  -14.1895  -45.5043 C.3       4 UNK         0.1400 
     53 CB          5.9537  -13.7377  -46.5807 C.3       4 UNK        -0.1800 
     54 N           3.6950  -13.4629  -45.7060 N.am      4 UNK        -0.5000 
     55 C           2.6176  -13.4793  -44.9085 C.2       3 UNK         0.5000 
     56 O           2.5143  -14.2157  -43.9247 O.2       3 UNK        -0.5000 
     57 CA          1.4818  -12.5040  -45.2881 C.3       3 UNK         0.1400 
     58 CB          1.3002  -12.3749  -46.8129 C.3       3 UNK        -0.1800 
     59 N           0.2036  -12.8897  -44.6867 N.am      3 UNK        -0.5000 
     60 C          -0.2280  -12.4795  -43.4843 C.2       2 UNK         0.5000 
     61 O           0.4239  -11.7298  -42.7553 O.2       2 UNK        -0.5000 
     62 CA         -1.6033  -12.9940  -42.9957 C.3       2 UNK         0.1400 
     63 CB         -2.3580  -11.9558  -42.1387 C.3       2 UNK        -0.1800 
     64 N          -2.4626  -13.5290  -44.0587 N.am      2 UNK        -0.5000 
     65 C          -3.0122  -12.8575  -45.0810 C.2       1 UNK         0.5000 
     66 O          -2.9248  -11.6385  -45.2414 O.2       1 UNK        -0.5000 
     67 C          -2.8145  -22.3379  -46.2036 C.2       11 UNK         0.5000 
     68 O          -3.5232  -22.9975  -46.9623 O.2       11 UNK        -0.5000 
     69 N          -2.9997  -22.2810  -44.8789 N.am      12 UNK        -0.5000 
     70 CA         -4.0044  -23.0647  -44.1593 C.3       12 UNK         0.1400 
     71 CB         -4.0758  -22.5948  -42.6987 C.3       12 UNK        -0.1800 
     72 C          -3.7349  -24.5798  -44.2394 C.2       12 UNK         0.5000 
     73 O          -4.6778  -25.3550  -44.4003 O.2       12 UNK        -0.5000 
     74 N          -2.4547  -24.9680  -44.1564 N.am      13 UNK        -0.5000 
     75 CA         -1.9994  -26.3505  -44.2927 C.3       13 UNK         0.1400 
     76 CB         -0.5685  -26.4706  -43.7452 C.3       13 UNK        -0.1800 
     77 C          -2.0767  -26.8608  -45.7444 C.2       13 UNK         0.5000 
     78 O          -2.5688  -27.9661  -45.9743 O.2       13 UNK        -0.5000 
     79 N          -1.5841  -26.0546  -46.6947 N.am      14 UNK        -0.5000 
     80 CA         -1.4853  -26.4057  -48.1141 C.3       14 UNK         0.1400 
     81 CB         -0.4355  -25.4991  -48.7742 C.3       14 UNK        -0.1800 
     82 C          -2.8123  -26.3014  -48.8883 C.2       14 UNK         0.5000 
     83 O          -2.8990  -26.8558  -49.9841 O.2       14 UNK        -0.5000 
     84 N          -3.7922  -25.5749  -48.3305 N.am      15 UNK        -0.5000 
     85 CA         -5.0453  -25.1402  -48.9563 C.3       15 UNK         0.1400 
     86 CB         -5.9274  -26.3359  -49.3751 C.3       15 UNK        -0.1800 
     87 C          -4.7572  -24.1452  -50.0993 C.2       15 UNK         0.5000 
     88 O          -5.0217  -24.4391  -51.2658 O.2       15 UNK        -0.5000 
     89 N          -4.1900  -22.9950  -49.7051 N.am      16 UNK        -0.5000 
     90 CA         -3.6639  -21.8980  -50.5223 C.3       16 UNK         0.1400 
     91 CB         -4.7234  -21.3087  -51.4758 C.3       16 UNK        -0.1800 
     92 C          -2.3687  -22.3158  -51.2405 C.2       16 UNK         0.5000 
     93 O          -2.4082  -22.8125  -52.3668 O.2       16 UNK        -0.5000 
     94 N          -1.2316  -22.0926  -50.5641 N.am      17 UNK        -0.5000 
     95 CA          0.1187  -22.4326  -51.0294 C.3       17 UNK         0.1400 
     96 CB          1.1222  -22.1968  -49.8879 C.3       17 UNK        -0.1800 
     97 C           0.5593  -21.6633  -52.2909 C.2       17 UNK         0.5000 
     98 O           1.4574  -22.1224  -52.9981 O.2       17 UNK        -0.5000 
     99 N          -0.0959  -20.5285  -52.5724 N.am      18 UNK        -0.5000 
    100 CA         0.0540  -19.7068  -53.7739 C.3       18 UNK         0.1400 
    101 CB        -0.5354  -18.3169  -53.4805 C.3       18 UNK        -0.1800 
    102 C         -0.5807  -20.3748  -55.0159 C.2       18 UNK         0.5000 
    103 O         -1.5170  -19.8319  -55.6107 O.2       18 UNK        -0.5000 
    104 N         -0.0800  -21.5735  -55.3493 N.am      19 UNK        -0.5000 
    105 CA        -0.4207  -22.4324  -56.4920 C.3       19 UNK         0.1400 
    106 CB         0.0590  -21.7685  -57.7993 C.3       19 UNK        -0.1800 
    107 C         -1.9060  -22.8514  -56.5744 C.2       19 UNK         0.5000 
    108 O         -2.3598  -23.2555  -57.6462 O.2       19 UNK        -0.5000 
    109 N         -2.6463  -22.7096  -55.4630 N.am      20 UNK        -0.5000 
    110 CA        -4.1076  -22.7989  -55.3491 C.3       20 UNK         0.1400 
    111 CB        -4.5869  -24.2496  -55.5601 C.3       20 UNK        -0.1800 
    112 C         -4.8611  -21.7805  -56.2399 C.2       20 UNK         0.5000 
    113 O         -6.0343  -21.9939  -56.5511 O.2       20 UNK        -0.5000 
    114 N         -4.1754  -20.7004  -56.6398 N.am      21 UNK        -0.5000 
    115 CA        -4.6544  -19.6906  -57.5830 C.3       21 UNK         0.1400 
    116 CB        -3.7564  -19.7183  -58.8301 C.3       21 UNK        -0.1800 
    117 C         -4.6608  -18.2847  -56.9642 C.2       21 UNK         0.5000 
    118 O         -5.5096  -17.4728  -57.3342 O.2       21 UNK        -0.5000 
    119 N         -3.7331  -18.0196  -56.0331 N.am      22 UNK        -0.5000 
    120 CA        -3.5649  -16.7343  -55.3332 C.3       22 UNK         0.1400 
    121 C         -2.9781  -15.5823  -56.2072 C.2       22 UNK         0.5000 
    122 N         -2.3841  -15.8685  -57.3596 N.am      22 UNK        -0.7600 
    123 O         -3.0333  -14.4148  -55.8309 O.2       22 UNK        -0.5000 
    124 C124       -4.8297  -16.3215  -54.5204 C.3       23 UNK        -0.0398 
    125 S125       -4.4201  -15.7601  -52.8346 S.3       23 UNK        -0.2404 
    126 C126       -4.6644  -17.3132  -51.9226 C.3       23 UNK        -0.0205 
    127 H127       -2.1900  -13.3536  -49.8033 H         1 UNK         0.0600 
    128 H128       -1.0673  -14.6973  -49.5935 H         1 UNK         0.0600 
    129 H129       -0.5621  -13.0542  -49.1845 H         1 UNK         0.0600 
    130 H130       -3.6925  -13.1297  -48.1561 H         1 UNK         0.3000 
    131 H131       -3.6478  -14.7559  -45.8430 H         1 UNK         0.0600 
    132 H132       -5.4328  -12.3285  -46.2763 H         1 UNK         0.0800 
    133 H133       -5.7165  -13.6576  -45.1870 H         1 UNK         0.0800 
    134 H134       -6.8577  -16.5614  -47.3293 H         1 UNK         0.0800 
    135 H135       -5.6124  -16.2009  -46.1650 H         1 UNK         0.0800 
    136 H136       -6.2283  -16.4440  -49.8679 H         1 UNK         0.1150 
    137 H137       -2.2550  -17.8016  -50.7421 H         1 UNK         0.1150 
    138 H138       -3.3441  -16.8143  -46.7237 H         1 UNK         0.1150 
    139 H139       -1.0817  -17.3168  -47.1915 H         1 UNK         0.0800 
    140 H140       -0.5305  -17.0795  -48.8285 H         1 UNK         0.0800 
    141 H141       -3.0151  -20.1253  -47.6916 H         1 UNK         0.0800 
    142 H142       -2.1407  -19.4969  -46.3192 H         1 UNK         0.0800 
    143 H143       -1.3510  -22.1035  -47.7047 H         1 UNK         0.0600 
    144 H144       -0.2113  -20.7231  -45.4585 H         1 UNK         0.3000 
    145 H145        1.6193  -23.5162  -44.2053 H         1 UNK         0.0600 
    146 H146        2.4975  -21.0256  -45.7575 H         1 UNK         0.0600 
    147 H147        3.0502  -22.6716  -46.0142 H         1 UNK         0.0600 
    148 H148        3.4631  -21.8344  -44.5242 H         1 UNK         0.0600 
    149 H149        1.3541  -20.7182  -43.4938 H         1 UNK         0.3000 
    150 H150       -1.4390  -21.1488  -41.3312 H         1 UNK         0.0600 
    151 H151        1.5007  -20.9124  -40.5175 H         1 UNK         0.0600 
    152 H152        0.2977  -21.9865  -39.8228 H         1 UNK         0.0600 
    153 H153        0.1463  -20.2496  -39.6005 H         1 UNK         0.0600 
    154 H154        0.3780  -18.9738  -41.8046 H         1 UNK         0.3000 
    155 H155       -0.4423  -17.9690  -44.7156 H         1 UNK         0.0600 
    156 H156       -2.7395  -16.6836  -43.1649 H         1 UNK         0.0600 
    157 H157       -2.9240  -17.6482  -44.6153 H         1 UNK         0.0600 
    158 H158       -2.0202  -16.1497  -44.6918 H         1 UNK         0.0600 
    159 H159        0.9504  -16.8726  -43.4491 H         1 UNK         0.3000 
    160 H160        1.2047  -14.6910  -41.7363 H         1 UNK         0.0600 
    161 H161        1.0094  -16.3794  -39.1920 H         1 UNK         0.0600 
    162 H162        0.2964  -14.7981  -39.4694 H         1 UNK         0.0600 
    163 H163        2.0424  -14.9642  -39.3914 H         1 UNK         0.0600 
    164 H164        2.9848  -15.8668  -42.3259 H         1 UNK         0.3000 
    165 H165        4.8408  -17.7172  -41.6067 H         1 UNK         0.0600 
    166 H166        4.2261  -19.9603  -40.7477 H         1 UNK         0.0600 
    167 H167        3.3106  -20.3084  -42.2070 H         1 UNK         0.0600 
    168 H168        5.0588  -20.1108  -42.2862 H         1 UNK         0.0600 
    169 H169        4.8169  -17.3903  -43.8093 H         1 UNK         0.3000 
    170 H170        4.2156  -18.2840  -46.2440 H         1 UNK         0.0600 
    171 H171        2.3923  -17.6286  -47.8024 H         1 UNK         0.0600 
    172 H172        1.8989  -19.0054  -46.8372 H         1 UNK         0.0600 
    173 H173        1.2885  -17.4021  -46.4485 H         1 UNK         0.0600 
    174 H174        2.9640  -15.6700  -46.1718 H         1 UNK         0.3000 
    175 H175        5.3460  -13.8892  -44.5307 H         1 UNK         0.0600 
    176 H176        6.9230  -14.2199  -46.4459 H         1 UNK         0.0600 
    177 H177        5.6017  -13.9837  -47.5834 H         1 UNK         0.0600 
    178 H178        6.1224  -12.6615  -46.5374 H         1 UNK         0.0600 
    179 H179        3.6773  -12.8429  -46.5027 H         1 UNK         0.3000 
    180 H180        1.7699  -11.5205  -44.9117 H         1 UNK         0.0600 
    181 H181        1.2121  -13.3498  -47.2935 H         1 UNK         0.0600 
    182 H182        2.1419  -11.8561  -47.2726 H         1 UNK         0.0600 
    183 H183        0.4067  -11.7991  -47.0554 H         1 UNK         0.0600 
    184 H184       -0.3692  -13.5242  -45.2326 H         1 UNK         0.3000 
    185 H185       -1.3849  -13.8384  -42.3436 H         1 UNK         0.0600 
    186 H186       -1.7893  -11.6992  -41.2443 H         1 UNK         0.0600 
    187 H187       -2.5375  -11.0296  -42.6850 H         1 UNK         0.0600 
    188 H188       -3.3213  -12.3430  -41.8066 H         1 UNK         0.0600 
    189 H189       -2.5826  -14.5312  -44.0346 H         1 UNK         0.3000 
    190 H190       -2.4384  -21.6360  -44.3307 H         1 UNK         0.3000 
    191 H191       -4.9736  -22.8730  -44.6246 H         1 UNK         0.0600 
    192 H192       -4.2885  -21.5273  -42.6370 H         1 UNK         0.0600 
    193 H193       -4.8677  -23.1172  -42.1608 H         1 UNK         0.0600 
    194 H194       -3.1424  -22.7816  -42.1682 H         1 UNK         0.0600 
    195 H195       -1.7443  -24.2682  -43.9783 H         1 UNK         0.3000 
    196 H196       -2.6453  -26.9847  -43.6817 H         1 UNK         0.0600 
    197 H197        0.1306  -25.8396  -44.2948 H         1 UNK         0.0600 
    198 H198       -0.2086  -27.4979  -43.8141 H         1 UNK         0.0600 
    199 H199       -0.5238  -26.1792  -42.6956 H         1 UNK         0.0600 
    200 H200       -1.1416  -25.1809  -46.4177 H         1 UNK         0.3000 
    201 H201       -1.1390  -27.4384  -48.1920 H         1 UNK         0.0600 
    202 H202       -0.7457  -24.4548  -48.7429 H         1 UNK         0.0600 
    203 H203        0.5308  -25.5798  -48.2760 H         1 UNK         0.0600 
    204 H204       -0.2851  -25.7655  -49.8211 H         1 UNK         0.0600 
    205 H205       -3.5822  -25.1230  -47.4491 H         1 UNK         0.3000 
    206 H206       -5.5943  -24.5901  -48.1903 H         1 UNK         0.0600 
    207 H207       -6.0991  -27.0103  -48.5363 H         1 UNK         0.0600 
    208 H208       -6.9024  -25.9909  -49.7207 H         1 UNK         0.0600 
    209 H209       -5.4856  -26.9148  -50.1860 H         1 UNK         0.0600 
    210 H210       -4.0033  -22.9154  -48.7072 H         1 UNK         0.3000 
    211 H211       -3.4034  -21.0993  -49.8274 H         1 UNK         0.0600 
    212 H212       -5.5689  -20.9052  -50.9188 H         1 UNK         0.0600 
    213 H213       -4.3027  -20.4934  -52.0644 H         1 UNK         0.0600 
    214 H214       -5.1097  -22.0451  -52.1783 H         1 UNK         0.0600 
    215 H215       -1.2772  -21.6298  -49.6691 H         1 UNK         0.3000 
    216 H216        0.1236  -23.4959  -51.2772 H         1 UNK         0.0600 
    217 H217        1.2115  -21.1388  -49.6409 H         1 UNK         0.0600 
    218 H218        2.1162  -22.5477  -50.1682 H         1 UNK         0.0600 
    219 H219        0.8388  -22.7285  -48.9802 H         1 UNK         0.0600 
    220 H220       -0.8190  -20.2435  -51.9304 H         1 UNK         0.3000 
    221 H221        1.1185  -19.5824  -53.9824 H         1 UNK         0.0600 
    222 H222       -1.5921  -18.3788  -53.2195 H         1 UNK         0.0600 
    223 H223       -0.0159  -17.8359  -52.6514 H         1 UNK         0.0600 
    224 H224       -0.4399  -17.6595  -54.3456 H         1 UNK         0.0600 
    225 H225        0.6393  -21.9413  -54.7318 H         1 UNK         0.3000 
    226 H226        0.1453  -23.3552  -56.3587 H         1 UNK         0.0600 
    227 H227        1.1123  -21.4946  -57.7393 H         1 UNK         0.0600 
    228 H228       -0.0488  -22.4436  -58.6491 H         1 UNK         0.0600 
    229 H229       -0.5098  -20.8656  -58.0243 H         1 UNK         0.0600 
    230 H230       -2.1752  -22.4237  -54.6135 H         1 UNK         0.3000 
    231 H231       -4.3439  -22.5245  -54.3219 H         1 UNK         0.0600 
    232 H232       -4.4468  -24.5788  -56.5898 H         1 UNK         0.0600 
    233 H233       -5.6473  -24.3495  -55.3260 H         1 UNK         0.0600 
    234 H234       -4.0484  -24.9383  -54.9090 H         1 UNK         0.0600 
    235 H235       -3.2203  -20.5932  -56.3147 H         1 UNK         0.3000 
    236 H236       -5.6774  -19.9105  -57.8949 H         1 UNK         0.0600 
    237 H237       -2.7161  -19.5035  -58.5822 H         1 UNK         0.0600 
    238 H238       -3.7876  -20.6951  -59.3135 H         1 UNK         0.0600 
    239 H239       -4.0812  -18.9804  -59.5647 H         1 UNK         0.0600 
    240 H240       -3.0278  -18.7211  -55.8262 H         1 UNK         0.3000 
    241 H241       -2.7684  -16.9397  -54.6212 H         1 UNK         0.0600 
    242 H242       -1.9986  -15.1228  -57.9177 H         1 UNK         0.3800 
    243 H243       -2.3143  -16.8214  -57.6780 H         1 UNK         0.3800 
    244 H244       -5.5272  -17.1557  -54.4343 H         1 UNK         0.0800 
    245 H245       -5.3928  -15.5376  -55.0297 H         1 UNK         0.0800 
    246 H246       -4.0629  -18.0981  -52.3829 H         1 UNK         0.0800 
    247 H247       -5.7053  -17.6293  -52.0077 H         1 UNK         0.0800 
@<TRIPOS>BOND
     1    1    2 1    
     2    1  127 1    
     3    1  128 1    
     4    1  129 1    
     5    2    3 2    
     6    2    4 am   BACKBONE|DICT|INTERRES
     7    4    5 1    
     8    4  130 1    
     9    5    6 1    
    10    5   65 1    
    11    5  131 1    
    12    6    7 1    
    13    6  132 1    
    14    6  133 1    
    15    7    8 1    
    16    8    9 1    
    17    8  134 1    
    18    8  135 1    
    19    9   10 ar   
    20    9   14 ar   
    21   10   11 ar   
    22   10  136 1    
    23   11   12 ar   
    24   11  126 1    
    25   12   13 ar   
    26   12  137 1    
    27   13   14 ar   
    28   13   15 1    
    29   14  138 1    
    30   15   16 1    
    31   15  139 1    
    32   15  140 1    
    33   16   17 1    
    34   17   18 1    
    35   17  141 1    
    36   17  142 1    
    37   18   19 1    
    38   18   67 1    
    39   18  143 1    
    40   19   20 am   BACKBONE|DICT|INTERRES
    41   19  144 1    
    42   20   21 2    
    43   20   22 1    
    44   22   23 1    
    45   22   24 1    
    46   22  145 1    
    47   23  146 1    
    48   23  147 1    
    49   23  148 1    
    50   24   25 am   BACKBONE|DICT|INTERRES
    51   24  149 1    
    52   25   26 2    
    53   25   27 1    
    54   27   28 1    
    55   27   29 1    
    56   27  150 1    
    57   28  151 1    
    58   28  152 1    
    59   28  153 1    
    60   29   30 am   BACKBONE|DICT|INTERRES
    61   29  154 1    
    62   30   31 2    
    63   30   32 1    
    64   32   33 1    
    65   32   34 1    
    66   32  155 1    
    67   33  156 1    
    68   33  157 1    
    69   33  158 1    
    70   34   35 am   BACKBONE|DICT|INTERRES
    71   34  159 1    
    72   35   36 2    
    73   35   37 1    
    74   37   38 1    
    75   37   39 1    
    76   37  160 1    
    77   38  161 1    
    78   38  162 1    
    79   38  163 1    
    80   39   40 am   BACKBONE|DICT|INTERRES
    81   39  164 1    
    82   40   41 2    
    83   40   42 1    
    84   42   43 1    
    85   42   44 1    
    86   42  165 1    
    87   43  166 1    
    88   43  167 1    
    89   43  168 1    
    90   44   45 am   BACKBONE|DICT|INTERRES
    91   44  169 1    
    92   45   46 2    
    93   45   47 1    
    94   47   48 1    
    95   47   49 1    
    96   47  170 1    
    97   48  171 1    
    98   48  172 1    
    99   48  173 1    
   100   49   50 am   BACKBONE|DICT|INTERRES
   101   49  174 1    
   102   50   51 2    
   103   50   52 1    
   104   52   53 1    
   105   52   54 1    
   106   52  175 1    
   107   53  176 1    
   108   53  177 1    
   109   53  178 1    
   110   54   55 am   BACKBONE|DICT|INTERRES
   111   54  179 1    
   112   55   56 2    
   113   55   57 1    
   114   57   58 1    
   115   57   59 1    
   116   57  180 1    
   117   58  181 1    
   118   58  182 1    
   119   58  183 1    
   120   59   60 am   BACKBONE|DICT|INTERRES
   121   59  184 1    
   122   60   61 2    
   123   60   62 1    
   124   62   63 1    
   125   62   64 1    
   126   62  185 1    
   127   63  186 1    
   128   63  187 1    
   129   63  188 1    
   130   64   65 am   BACKBONE|DICT|INTERRES
   131   64  189 1    
   132   65   66 2    
   133   67   68 2    
   134   67   69 am   BACKBONE|DICT|INTERRES
   135   69   70 1    
   136   69  190 1    
   137   70   71 1    
   138   70   72 1    
   139   70  191 1    
   140   71  192 1    
   141   71  193 1    
   142   71  194 1    
   143   72   73 2    
   144   72   74 am   BACKBONE|DICT|INTERRES
   145   74   75 1    
   146   74  195 1    
   147   75   76 1    
   148   75   77 1    
   149   75  196 1    
   150   76  197 1    
   151   76  198 1    
   152   76  199 1    
   153   77   78 2    
   154   77   79 am   BACKBONE|DICT|INTERRES
   155   79   80 1    
   156   79  200 1    
   157   80   81 1    
   158   80   82 1    
   159   80  201 1    
   160   81  202 1    
   161   81  203 1    
   162   81  204 1    
   163   82   83 2    
   164   82   84 am   BACKBONE|DICT|INTERRES
   165   84   85 1    
   166   84  205 1    
   167   85   86 1    
   168   85   87 1    
   169   85  206 1    
   170   86  207 1    
   171   86  208 1    
   172   86  209 1    
   173   87   88 2    
   174   87   89 am   BACKBONE|DICT|INTERRES
   175   89   90 1    
   176   89  210 1    
   177   90   91 1    
   178   90   92 1    
   179   90  211 1    
   180   91  212 1    
   181   91  213 1    
   182   91  214 1    
   183   92   93 2    
   184   92   94 am   BACKBONE|DICT|INTERRES
   185   94   95 1    
   186   94  215 1    
   187   95   96 1    
   188   95   97 1    
   189   95  216 1    
   190   96  217 1    
   191   96  218 1    
   192   96  219 1    
   193   97   98 2    
   194   97   99 am   BACKBONE|DICT|INTERRES
   195   99  100 1    
   196   99  220 1    
   197  100  101 1    
   198  100  102 1    
   199  100  221 1    
   200  101  222 1    
   201  101  223 1    
   202  101  224 1    
   203  102  103 2    
   204  102  104 am   BACKBONE|DICT|INTERRES
   205  104  105 1    
   206  104  225 1    
   207  105  106 1    
   208  105  107 1    
   209  105  226 1    
   210  106  227 1    
   211  106  228 1    
   212  106  229 1    
   213  107  108 2    
   214  107  109 am   BACKBONE|DICT|INTERRES
   215  109  110 1    
   216  109  230 1    
   217  110  111 1    
   218  110  112 1    
   219  110  231 1    
   220  111  232 1    
   221  111  233 1    
   222  111  234 1    
   223  112  113 2    
   224  112  114 am   BACKBONE|DICT|INTERRES
   225  114  115 1    
   226  114  235 1    
   227  115  116 1    
   228  115  117 1    
   229  115  236 1    
   230  116  237 1    
   231  116  238 1    
   232  116  239 1    
   233  117  118 2    
   234  117  119 am   BACKBONE|DICT|INTERRES
   235  119  120 1    
   236  119  240 1    
   237  120  121 1    
   238  120  124 1    
   239  120  241 1    
   240  121  122 am   BACKBONE|DICT|INTERRES
   241  121  123 2    
   242  122  242 1    
   243  122  243 1    
   244  124  125 1    
   245  124  244 1    
   246  124  245 1    
   247  125  126 1    
   248  126  246 1    
   249  126  247 1    
@<TRIPOS>SUBSTRUCTURE
     1 UNK         1 GROUP             0       ****    0 ROOT    
