@<TRIPOS>MOLECULE
3R540
247   249    1
SMALL
USER_CHARGES


@<TRIPOS>ATOM
      1 CA         -2.7713  -13.7318  -43.9382 C.3       0 UNK        -0.1800 
      2 C          -1.4303  -13.7364  -44.6570 C.2       0 UNK         0.5000 
      3 O          -0.5731  -14.5555  -44.3369 O.2       0 UNK        -0.5000 
      4 N          -1.2439  -12.8173  -45.6154 N.am      1 UNK        -0.5000 
      5 CA         -0.0633  -12.6903  -46.4904 C.3       1 UNK         0.1400 
      6 C6          0.1374  -13.9193  -47.4227 C.3       23 UNK        -0.0398 
      7 S7         -1.2823  -14.1082  -48.5583 S.3       23 UNK        -0.2404 
      8 C8         -0.4723  -14.3391  -50.1688 C.3       23 UNK        -0.0205 
      9 C9         -0.2475  -15.8107  -50.4814 C.ar      23 UNK        -0.0193 
     10 C10        -1.2463  -16.5386  -51.1344 C.ar      23 UNK        -0.1150 
     11 C11        -1.0309  -17.8695  -51.4982 C.ar      23 UNK        -0.0193 
     12 C12         0.1920  -18.4734  -51.1998 C.ar      23 UNK        -0.1150 
     13 C13         1.1912  -17.7689  -50.5208 C.ar      23 UNK        -0.0193 
     14 C14         0.9635  -16.4347  -50.1633 C.ar      23 UNK        -0.1150 
     15 C15         2.5390  -18.4218  -50.2297 C.3       23 UNK        -0.0205 
     16 S16         2.4113  -20.1143  -49.5559 S.3       23 UNK        -0.2404 
     17 C17         1.7981  -19.7937  -47.8711 C.3       23 UNK        -0.0398 
     18 CA          0.5540  -20.6410  -47.5015 C.3       11 UNK         0.1400 
     19 N           0.4398  -20.8198  -46.0518 N.am      11 UNK        -0.5000 
     20 C          -0.3836  -21.6835  -45.4413 C.2       10 UNK         0.5000 
     21 O          -1.0811  -22.5030  -46.0372 O.2       10 UNK        -0.5000 
     22 CA         -0.4635  -21.6021  -43.9046 C.3       10 UNK         0.1400 
     23 CB          0.6115  -22.4882  -43.2582 C.3       10 UNK        -0.1800 
     24 N          -0.3389  -20.2345  -43.3965 N.am      10 UNK        -0.5000 
     25 C          -1.2199  -19.2518  -43.6332 C.2       9 UNK         0.5000 
     26 O          -2.2657  -19.4129  -44.2595 O.2       9 UNK        -0.5000 
     27 CA         -0.8403  -17.8414  -43.1467 C.3       9 UNK         0.1400 
     28 CB         -1.1421  -17.6681  -41.6514 C.3       9 UNK        -0.1800 
     29 N           0.5626  -17.5221  -43.4093 N.am      9 UNK        -0.5000 
     30 C           1.0982  -17.4394  -44.6360 C.2       8 UNK         0.5000 
     31 O           0.4642  -17.6070  -45.6768 O.2       8 UNK        -0.5000 
     32 CA          2.6131  -17.1975  -44.7134 C.3       8 UNK         0.1400 
     33 CB          2.9331  -15.7069  -44.5593 C.3       8 UNK        -0.1800 
     34 N           3.3349  -17.9697  -43.7023 N.am      8 UNK        -0.5000 
     35 C           3.4685  -19.3034  -43.7339 C.2       7 UNK         0.5000 
     36 O           3.0324  -20.0119  -44.6403 O.2       7 UNK        -0.5000 
     37 CA          4.1675  -19.9578  -42.5290 C.3       7 UNK         0.1400 
     38 CB          5.6942  -19.8838  -42.6803 C.3       7 UNK        -0.1800 
     39 N           3.7746  -19.3529  -41.2557 N.am      7 UNK        -0.5000 
     40 C           2.5383  -19.4082  -40.7400 C.2       6 UNK         0.5000 
     41 O           1.6036  -20.0067  -41.2703 O.2       6 UNK        -0.5000 
     42 CA          2.2953  -18.6311  -39.4335 C.3       6 UNK         0.1400 
     43 CB          2.5796  -19.5226  -38.2158 C.3       6 UNK        -0.1800 
     44 N           3.0873  -17.4027  -39.3311 N.am      6 UNK        -0.5000 
     45 C           2.9709  -16.3498  -40.1502 C.2       5 UNK         0.5000 
     46 O           2.1971  -16.3084  -41.1096 O.2       5 UNK        -0.5000 
     47 CA          3.8899  -15.1512  -39.8590 C.3       5 UNK         0.1400 
     48 CB          4.7956  -14.8433  -41.0619 C.3       5 UNK        -0.1800 
     49 N           3.1056  -13.9670  -39.5014 N.am      5 UNK        -0.5000 
     50 C           2.5344  -13.7975  -38.2987 C.2       4 UNK         0.5000 
     51 O           2.6279  -14.6301  -37.3948 O.2       4 UNK        -0.5000 
     52 CA          1.7534  -12.4932  -38.0357 C.3       4 UNK         0.1400 
     53 CB          2.0213  -11.9496  -36.6148 C.3       4 UNK        -0.1800 
     54 N           2.0293  -11.4498  -39.0289 N.am      4 UNK        -0.5000 
     55 C           1.2308  -10.3972  -39.2591 C.2       3 UNK         0.5000 
     56 O           0.1493  -10.2191  -38.6967 O.2       3 UNK        -0.5000 
     57 CA          1.7188   -9.3706  -40.2989 C.3       3 UNK         0.1400 
     58 CB          2.8232   -8.4781  -39.7103 C.3       3 UNK        -0.1800 
     59 N           2.2008   -9.9979  -41.5306 N.am      3 UNK        -0.5000 
     60 C           1.4150  -10.6477  -42.3984 C.2       2 UNK         0.5000 
     61 O           0.1915  -10.7575  -42.2679 O.2       2 UNK        -0.5000 
     62 CA          2.1152  -11.2944  -43.6032 C.3       2 UNK         0.1400 
     63 CB          3.0273  -12.4439  -43.1390 C.3       2 UNK        -0.1800 
     64 N           1.0817  -11.7887  -44.5053 N.am      2 UNK        -0.5000 
     65 C           1.2293  -12.2759  -45.7418 C.2       1 UNK         0.5000 
     66 O           2.3200  -12.3613  -46.3082 O.2       1 UNK        -0.5000 
     67 C          -0.7473  -20.0598  -48.0951 C.2       11 UNK         0.5000 
     68 O          -1.2706  -20.6004  -49.0691 O.2       11 UNK        -0.5000 
     69 N          -1.2716  -19.0007  -47.4627 N.am      12 UNK        -0.5000 
     70 CA         -2.5182  -18.3305  -47.8324 C.3       12 UNK         0.1400 
     71 CB         -2.6929  -17.0817  -46.9542 C.3       12 UNK        -0.1800 
     72 C          -3.7520  -19.2448  -47.7140 C.2       12 UNK         0.5000 
     73 O          -4.6178  -19.2215  -48.5888 O.2       12 UNK        -0.5000 
     74 N          -3.7993  -20.0390  -46.6375 N.am      13 UNK        -0.5000 
     75 CA         -4.8883  -20.9571  -46.3050 C.3       13 UNK         0.1400 
     76 CB         -4.9852  -21.0593  -44.7727 C.3       13 UNK        -0.1800 
     77 C          -4.7461  -22.3553  -46.9424 C.2       13 UNK         0.5000 
     78 O          -5.5158  -23.2477  -46.5805 O.2       13 UNK        -0.5000 
     79 N          -3.7751  -22.5486  -47.8483 N.am      14 UNK        -0.5000 
     80 CA         -3.5025  -23.8169  -48.5291 C.3       14 UNK         0.1400 
     81 CB         -2.2706  -23.6600  -49.4293 C.3       14 UNK        -0.1800 
     82 C          -4.7136  -24.3202  -49.3391 C.2       14 UNK         0.5000 
     83 O          -5.2926  -23.5512  -50.1123 O.2       14 UNK        -0.5000 
     84 N          -5.0678  -25.5950  -49.1257 N.am      15 UNK        -0.5000 
     85 CA         -6.2846  -26.2577  -49.6018 C.3       15 UNK         0.1400 
     86 CB         -6.2231  -27.7454  -49.2238 C.3       15 UNK        -0.1800 
     87 C          -6.5415  -26.1023  -51.1106 C.2       15 UNK         0.5000 
     88 O          -5.6306  -26.3227  -51.9121 O.2       15 UNK        -0.5000 
     89 N          -7.7810  -25.7229  -51.4536 N.am      16 UNK        -0.5000 
     90 CA         -8.2891  -25.4868  -52.8099 C.3       16 UNK         0.1400 
     91 CB         -8.4164  -26.8220  -53.5735 C.3       16 UNK        -0.1800 
     92 C          -7.4760  -24.4274  -53.5841 C.2       16 UNK         0.5000 
     93 O          -7.2195  -24.6046  -54.7743 O.2       16 UNK        -0.5000 
     94 N          -7.0559  -23.3634  -52.8811 N.am      17 UNK        -0.5000 
     95 CA         -6.1720  -22.2913  -53.3554 C.3       17 UNK         0.1400 
     96 CB         -6.8644  -21.4426  -54.4437 C.3       17 UNK        -0.1800 
     97 C          -4.8040  -22.8450  -53.8006 C.2       17 UNK         0.5000 
     98 O          -4.3687  -22.5981  -54.9265 O.2       17 UNK        -0.5000 
     99 N          -4.1792  -23.6244  -52.9065 N.am      18 UNK        -0.5000 
    100 CA        -2.9260  -24.3619  -53.1014 C.3       18 UNK         0.1400 
    101 CB        -1.7372  -23.3842  -53.2309 C.3       18 UNK        -0.1800 
    102 C         -3.0114  -25.3558  -54.2791 C.2       18 UNK         0.5000 
    103 O         -2.1368  -25.3635  -55.1452 O.2       18 UNK        -0.5000 
    104 N         -4.0938  -26.1474  -54.3120 N.am      19 UNK        -0.5000 
    105 CA        -4.4728  -27.0688  -55.3917 C.3       19 UNK         0.1400 
    106 CB        -3.5240  -28.2845  -55.4266 C.3       19 UNK        -0.1800 
    107 C         -4.5935  -26.3500  -56.7546 C.2       19 UNK         0.5000 
    108 O         -4.0297  -26.7974  -57.7545 O.2       19 UNK        -0.5000 
    109 N         -5.3017  -25.2138  -56.7355 N.am      20 UNK        -0.5000 
    110 CA        -5.5598  -24.2568  -57.8139 C.3       20 UNK         0.1400 
    111 CB        -6.2823  -24.9322  -58.9969 C.3       20 UNK        -0.1800 
    112 C         -4.3393  -23.4349  -58.2796 C.2       20 UNK         0.5000 
    113 O         -4.5139  -22.5547  -59.1247 O.2       20 UNK        -0.5000 
    114 N         -3.1408  -23.6775  -57.7265 N.am      21 UNK        -0.5000 
    115 CA        -1.9059  -22.9774  -58.0965 C.3       21 UNK         0.1400 
    116 CB        -0.6962  -23.6887  -57.4738 C.3       21 UNK        -0.1800 
    117 C         -1.9047  -21.4844  -57.7162 C.2       21 UNK         0.5000 
    118 O         -1.2340  -20.6958  -58.3839 O.2       21 UNK        -0.5000 
    119 N         -2.6645  -21.1221  -56.6752 N.am      22 UNK        -0.5000 
    120 CA        -2.9012  -19.7373  -56.2436 C.3       22 UNK         0.1400 
    121 C         -4.0936  -19.0488  -56.9759 C.2       22 UNK         0.5000 
    122 N         -4.7727  -19.6977  -57.9163 N.am      22 UNK        -0.7600 
    123 O         -4.4061  -17.8945  -56.6979 O.2       22 UNK        -0.5000 
    124 C124       -3.0224  -19.6463  -54.6952 C.3       23 UNK        -0.0398 
    125 S125       -2.0867  -18.2438  -54.0070 S.3       23 UNK        -0.2404 
    126 C126       -2.1054  -18.6508  -52.2346 C.3       23 UNK        -0.0205 
    127 H127       -3.4364  -12.9587  -44.3235 H         1 UNK         0.0600 
    128 H128       -2.6240  -13.5559  -42.8725 H         1 UNK         0.0600 
    129 H129       -3.2630  -14.6969  -44.0611 H         1 UNK         0.0600 
    130 H130       -1.9907  -12.1668  -45.8158 H         1 UNK         0.3000 
    131 H131       -0.2771  -11.8357  -47.1342 H         1 UNK         0.0600 
    132 H132        1.0494  -13.8144  -48.0111 H         1 UNK         0.0800 
    133 H133        0.2571  -14.8386  -46.8476 H         1 UNK         0.0800 
    134 H134       -1.1099  -13.9006  -50.9380 H         1 UNK         0.0800 
    135 H135        0.4664  -13.7857  -50.2159 H         1 UNK         0.0800 
    136 H136       -2.1849  -16.0625  -51.3816 H         1 UNK         0.1150 
    137 H137        0.3646  -19.4985  -51.4962 H         1 UNK         0.1150 
    138 H138        1.7373  -15.8719  -49.6605 H         1 UNK         0.1150 
    139 H139        3.1047  -18.4632  -51.1613 H         1 UNK         0.0800 
    140 H140        3.1263  -17.8112  -49.5420 H         1 UNK         0.0800 
    141 H141        1.6111  -18.7281  -47.7332 H         1 UNK         0.0800 
    142 H142        2.6246  -20.0371  -47.2039 H         1 UNK         0.0800 
    143 H143        0.6870  -21.6392  -47.9246 H         1 UNK         0.0600 
    144 H144        1.0132  -20.2153  -45.4766 H         1 UNK         0.3000 
    145 H145       -1.4428  -21.9811  -43.6050 H         1 UNK         0.0600 
    146 H146        0.5096  -22.5025  -42.1729 H         1 UNK         0.0600 
    147 H147        0.5307  -23.5186  -43.6065 H         1 UNK         0.0600 
    148 H148        1.6168  -22.1382  -43.4946 H         1 UNK         0.0600 
    149 H149        0.4718  -20.0369  -42.8161 H         1 UNK         0.3000 
    150 H150       -1.4504  -17.1246  -43.7002 H         1 UNK         0.0600 
    151 H151       -0.8971  -16.6602  -41.3152 H         1 UNK         0.0600 
    152 H152       -2.2008  -17.8326  -41.4478 H         1 UNK         0.0600 
    153 H153       -0.5778  -18.3723  -41.0409 H         1 UNK         0.0600 
    154 H154        1.1480  -17.3203  -42.6066 H         1 UNK         0.3000 
    155 H155        2.9574  -17.5174  -45.6993 H         1 UNK         0.0600 
    156 H156        2.5550  -15.3189  -43.6145 H         1 UNK         0.0600 
    157 H157        2.4672  -15.1272  -45.3567 H         1 UNK         0.0600 
    158 H158        4.0060  -15.5197  -44.6014 H         1 UNK         0.0600 
    159 H159        3.6700  -17.4641  -42.8960 H         1 UNK         0.3000 
    160 H160        3.8767  -21.0103  -42.5075 H         1 UNK         0.0600 
    161 H161        6.0515  -18.8532  -42.6797 H         1 UNK         0.0600 
    162 H162        6.0155  -20.3424  -43.6165 H         1 UNK         0.0600 
    163 H163        6.1965  -20.4141  -41.8711 H         1 UNK         0.0600 
    164 H164        4.4843  -18.8432  -40.7509 H         1 UNK         0.3000 
    165 H165        1.2409  -18.3491  -39.4091 H         1 UNK         0.0600 
    166 H166        2.3284  -19.0120  -37.2859 H         1 UNK         0.0600 
    167 H167        1.9850  -20.4364  -38.2539 H         1 UNK         0.0600 
    168 H168        3.6291  -19.8154  -38.1662 H         1 UNK         0.0600 
    169 H169        3.7308  -17.3472  -38.5545 H         1 UNK         0.3000 
    170 H170        4.5436  -15.3987  -39.0194 H         1 UNK         0.0600 
    171 H171        5.4623  -15.6816  -41.2674 H         1 UNK         0.0600 
    172 H172        4.2235  -14.6593  -41.9691 H         1 UNK         0.0600 
    173 H173        5.4212  -13.9704  -40.8747 H         1 UNK         0.0600 
    174 H174        2.9168  -13.3074  -40.2389 H         1 UNK         0.3000 
    175 H175        0.6977  -12.7634  -38.1060 H         1 UNK         0.0600 
    176 H176        3.0668  -11.6670  -36.4883 H         1 UNK         0.0600 
    177 H177        1.4104  -11.0740  -36.3961 H         1 UNK         0.0600 
    178 H178        1.7864  -12.6935  -35.8526 H         1 UNK         0.0600 
    179 H179        2.9180  -11.5023  -39.5047 H         1 UNK         0.3000 
    180 H180        0.8718   -8.7301  -40.5547 H         1 UNK         0.0600 
    181 H181        3.7198   -9.0486  -39.4655 H         1 UNK         0.0600 
    182 H182        2.4841   -7.9913  -38.7949 H         1 UNK         0.0600 
    183 H183        3.1070   -7.6908  -40.4089 H         1 UNK         0.0600 
    184 H184        3.1920   -9.9353  -41.7131 H         1 UNK         0.3000 
    185 H185        2.7029  -10.5327  -44.1189 H         1 UNK         0.0600 
    186 H186        3.8018  -12.0897  -42.4584 H         1 UNK         0.0600 
    187 H187        2.4518  -13.2095  -42.6178 H         1 UNK         0.0600 
    188 H188        3.5390  -12.9155  -43.9771 H         1 UNK         0.0600 
    189 H189        0.1496  -11.7294  -44.1121 H         1 UNK         0.3000 
    190 H190       -0.7523  -18.5906  -46.6896 H         1 UNK         0.3000 
    191 H191       -2.4267  -18.0127  -48.8722 H         1 UNK         0.0600 
    192 H192       -1.7972  -16.4623  -46.9674 H         1 UNK         0.0600 
    193 H193       -3.5227  -16.4688  -47.3073 H         1 UNK         0.0600 
    194 H194       -2.8926  -17.3401  -45.9141 H         1 UNK         0.0600 
    195 H195       -3.0638  -19.9511  -45.9411 H         1 UNK         0.3000 
    196 H196       -5.8277  -20.5371  -46.6697 H         1 UNK         0.0600 
    197 H197       -5.8460  -21.6556  -44.4680 H         1 UNK         0.0600 
    198 H198       -5.0988  -20.0752  -44.3177 H         1 UNK         0.0600 
    199 H199       -4.0950  -21.5242  -44.3469 H         1 UNK         0.0600 
    200 H200       -3.1784  -21.7694  -48.0910 H         1 UNK         0.3000 
    201 H201       -3.2640  -24.5508  -47.7567 H         1 UNK         0.0600 
    202 H202       -1.3938  -23.3728  -48.8485 H         1 UNK         0.0600 
    203 H203       -2.4319  -22.8976  -50.1915 H         1 UNK         0.0600 
    204 H204       -2.0304  -24.5954  -49.9349 H         1 UNK         0.0600 
    205 H205       -4.5012  -26.1424  -48.4948 H         1 UNK         0.3000 
    206 H206       -7.1177  -25.8051  -49.0604 H         1 UNK         0.0600 
    207 H207       -6.1381  -27.8776  -48.1450 H         1 UNK         0.0600 
    208 H208       -7.1254  -28.2687  -49.5433 H         1 UNK         0.0600 
    209 H209       -5.3727  -28.2428  -49.6922 H         1 UNK         0.0600 
    210 H210       -8.4493  -25.5602  -50.7130 H         1 UNK         0.3000 
    211 H211       -9.2926  -25.0737  -52.6993 H         1 UNK         0.0600 
    212 H212       -7.4451  -27.2862  -53.7431 H         1 UNK         0.0600 
    213 H213       -8.8848  -26.6755  -54.5475 H         1 UNK         0.0600 
    214 H214       -9.0334  -27.5320  -53.0229 H         1 UNK         0.0600 
    215 H215       -7.2726  -23.3389  -51.8940 H         1 UNK         0.3000 
    216 H216       -5.9799  -21.6419  -52.5000 H         1 UNK         0.0600 
    217 H217       -6.2505  -20.5856  -54.7211 H         1 UNK         0.0600 
    218 H218       -7.8206  -21.0558  -54.0918 H         1 UNK         0.0600 
    219 H219       -7.0489  -22.0140  -55.3536 H         1 UNK         0.0600 
    220 H220       -4.6411  -23.7713  -52.0143 H         1 UNK         0.3000 
    221 H221       -2.7759  -24.9610  -52.2031 H         1 UNK         0.0600 
    222 H222       -1.7710  -22.8270  -54.1673 H         1 UNK         0.0600 
    223 H223       -1.7201  -22.6613  -52.4162 H         1 UNK         0.0600 
    224 H224       -0.7891  -23.9222  -53.2089 H         1 UNK         0.0600 
    225 H225       -4.7418  -26.0958  -53.5278 H         1 UNK         0.3000 
    226 H226       -5.4704  -27.4360  -55.1491 H         1 UNK         0.0600 
    227 H227       -3.4857  -28.7808  -54.4569 H         1 UNK         0.0600 
    228 H228       -3.8621  -29.0219  -56.1554 H         1 UNK         0.0600 
    229 H229       -2.5071  -27.9993  -55.6977 H         1 UNK         0.0600 
    230 H230       -5.7514  -24.9602  -55.8580 H         1 UNK         0.3000 
    231 H231       -6.2510  -23.5301  -57.3847 H         1 UNK         0.0600 
    232 H232       -5.6339  -25.6321  -59.5242 H         1 UNK         0.0600 
    233 H233       -6.6175  -24.1916  -59.7238 H         1 UNK         0.0600 
    234 H234       -7.1647  -25.4768  -58.6609 H         1 UNK         0.0600 
    235 H235       -3.0665  -24.3821  -57.0031 H         1 UNK         0.3000 
    236 H236       -1.8079  -23.0392  -59.1823 H         1 UNK         0.0600 
    237 H237       -0.6965  -24.7537  -57.7066 H         1 UNK         0.0600 
    238 H238        0.2368  -23.2713  -57.8541 H         1 UNK         0.0600 
    239 H239       -0.6810  -23.5795  -56.3892 H         1 UNK         0.0600 
    240 H240       -3.2098  -21.8303  -56.1879 H         1 UNK         0.3000 
    241 H241       -2.0245  -19.1602  -56.5427 H         1 UNK         0.0600 
    242 H242       -5.5350  -19.2309  -58.3814 H         1 UNK         0.3800 
    243 H243       -4.5240  -20.6397  -58.1907 H         1 UNK         0.3800 
    244 H244       -4.0609  -19.5871  -54.3664 H         1 UNK         0.0800 
    245 H245       -2.6197  -20.5478  -54.2328 H         1 UNK         0.0800 
    246 H246       -3.0873  -18.4252  -51.8158 H         1 UNK         0.0800 
    247 H247       -1.9478  -19.7215  -52.0924 H         1 UNK         0.0800 
@<TRIPOS>BOND
     1    1    2 1    
     2    1  127 1    
     3    1  128 1    
     4    1  129 1    
     5    2    3 2    
     6    2    4 am   BACKBONE|DICT|INTERRES
     7    4    5 1    
     8    4  130 1    
     9    5    6 1    
    10    5   65 1    
    11    5  131 1    
    12    6    7 1    
    13    6  132 1    
    14    6  133 1    
    15    7    8 1    
    16    8    9 1    
    17    8  134 1    
    18    8  135 1    
    19    9   10 ar   
    20    9   14 ar   
    21   10   11 ar   
    22   10  136 1    
    23   11   12 ar   
    24   11  126 1    
    25   12   13 ar   
    26   12  137 1    
    27   13   14 ar   
    28   13   15 1    
    29   14  138 1    
    30   15   16 1    
    31   15  139 1    
    32   15  140 1    
    33   16   17 1    
    34   17   18 1    
    35   17  141 1    
    36   17  142 1    
    37   18   19 1    
    38   18   67 1    
    39   18  143 1    
    40   19   20 am   BACKBONE|DICT|INTERRES
    41   19  144 1    
    42   20   21 2    
    43   20   22 1    
    44   22   23 1    
    45   22   24 1    
    46   22  145 1    
    47   23  146 1    
    48   23  147 1    
    49   23  148 1    
    50   24   25 am   BACKBONE|DICT|INTERRES
    51   24  149 1    
    52   25   26 2    
    53   25   27 1    
    54   27   28 1    
    55   27   29 1    
    56   27  150 1    
    57   28  151 1    
    58   28  152 1    
    59   28  153 1    
    60   29   30 am   BACKBONE|DICT|INTERRES
    61   29  154 1    
    62   30   31 2    
    63   30   32 1    
    64   32   33 1    
    65   32   34 1    
    66   32  155 1    
    67   33  156 1    
    68   33  157 1    
    69   33  158 1    
    70   34   35 am   BACKBONE|DICT|INTERRES
    71   34  159 1    
    72   35   36 2    
    73   35   37 1    
    74   37   38 1    
    75   37   39 1    
    76   37  160 1    
    77   38  161 1    
    78   38  162 1    
    79   38  163 1    
    80   39   40 am   BACKBONE|DICT|INTERRES
    81   39  164 1    
    82   40   41 2    
    83   40   42 1    
    84   42   43 1    
    85   42   44 1    
    86   42  165 1    
    87   43  166 1    
    88   43  167 1    
    89   43  168 1    
    90   44   45 am   BACKBONE|DICT|INTERRES
    91   44  169 1    
    92   45   46 2    
    93   45   47 1    
    94   47   48 1    
    95   47   49 1    
    96   47  170 1    
    97   48  171 1    
    98   48  172 1    
    99   48  173 1    
   100   49   50 am   BACKBONE|DICT|INTERRES
   101   49  174 1    
   102   50   51 2    
   103   50   52 1    
   104   52   53 1    
   105   52   54 1    
   106   52  175 1    
   107   53  176 1    
   108   53  177 1    
   109   53  178 1    
   110   54   55 am   BACKBONE|DICT|INTERRES
   111   54  179 1    
   112   55   56 2    
   113   55   57 1    
   114   57   58 1    
   115   57   59 1    
   116   57  180 1    
   117   58  181 1    
   118   58  182 1    
   119   58  183 1    
   120   59   60 am   BACKBONE|DICT|INTERRES
   121   59  184 1    
   122   60   61 2    
   123   60   62 1    
   124   62   63 1    
   125   62   64 1    
   126   62  185 1    
   127   63  186 1    
   128   63  187 1    
   129   63  188 1    
   130   64   65 am   BACKBONE|DICT|INTERRES
   131   64  189 1    
   132   65   66 2    
   133   67   68 2    
   134   67   69 am   BACKBONE|DICT|INTERRES
   135   69   70 1    
   136   69  190 1    
   137   70   71 1    
   138   70   72 1    
   139   70  191 1    
   140   71  192 1    
   141   71  193 1    
   142   71  194 1    
   143   72   73 2    
   144   72   74 am   BACKBONE|DICT|INTERRES
   145   74   75 1    
   146   74  195 1    
   147   75   76 1    
   148   75   77 1    
   149   75  196 1    
   150   76  197 1    
   151   76  198 1    
   152   76  199 1    
   153   77   78 2    
   154   77   79 am   BACKBONE|DICT|INTERRES
   155   79   80 1    
   156   79  200 1    
   157   80   81 1    
   158   80   82 1    
   159   80  201 1    
   160   81  202 1    
   161   81  203 1    
   162   81  204 1    
   163   82   83 2    
   164   82   84 am   BACKBONE|DICT|INTERRES
   165   84   85 1    
   166   84  205 1    
   167   85   86 1    
   168   85   87 1    
   169   85  206 1    
   170   86  207 1    
   171   86  208 1    
   172   86  209 1    
   173   87   88 2    
   174   87   89 am   BACKBONE|DICT|INTERRES
   175   89   90 1    
   176   89  210 1    
   177   90   91 1    
   178   90   92 1    
   179   90  211 1    
   180   91  212 1    
   181   91  213 1    
   182   91  214 1    
   183   92   93 2    
   184   92   94 am   BACKBONE|DICT|INTERRES
   185   94   95 1    
   186   94  215 1    
   187   95   96 1    
   188   95   97 1    
   189   95  216 1    
   190   96  217 1    
   191   96  218 1    
   192   96  219 1    
   193   97   98 2    
   194   97   99 am   BACKBONE|DICT|INTERRES
   195   99  100 1    
   196   99  220 1    
   197  100  101 1    
   198  100  102 1    
   199  100  221 1    
   200  101  222 1    
   201  101  223 1    
   202  101  224 1    
   203  102  103 2    
   204  102  104 am   BACKBONE|DICT|INTERRES
   205  104  105 1    
   206  104  225 1    
   207  105  106 1    
   208  105  107 1    
   209  105  226 1    
   210  106  227 1    
   211  106  228 1    
   212  106  229 1    
   213  107  108 2    
   214  107  109 am   BACKBONE|DICT|INTERRES
   215  109  110 1    
   216  109  230 1    
   217  110  111 1    
   218  110  112 1    
   219  110  231 1    
   220  111  232 1    
   221  111  233 1    
   222  111  234 1    
   223  112  113 2    
   224  112  114 am   BACKBONE|DICT|INTERRES
   225  114  115 1    
   226  114  235 1    
   227  115  116 1    
   228  115  117 1    
   229  115  236 1    
   230  116  237 1    
   231  116  238 1    
   232  116  239 1    
   233  117  118 2    
   234  117  119 am   BACKBONE|DICT|INTERRES
   235  119  120 1    
   236  119  240 1    
   237  120  121 1    
   238  120  124 1    
   239  120  241 1    
   240  121  122 am   BACKBONE|DICT|INTERRES
   241  121  123 2    
   242  122  242 1    
   243  122  243 1    
   244  124  125 1    
   245  124  244 1    
   246  124  245 1    
   247  125  126 1    
   248  126  246 1    
   249  126  247 1    
@<TRIPOS>SUBSTRUCTURE
     1 UNK         1 GROUP             0       ****    0 ROOT    
