@<TRIPOS>MOLECULE
3R540
247   249    1
SMALL
USER_CHARGES


@<TRIPOS>ATOM
      1 CA          0.6647  -14.3984  -51.1868 C.3       0 UNK        -0.1800 
      2 C           1.5110  -13.7587  -50.0966 C.2       0 UNK         0.5000 
      3 O           2.4554  -13.0288  -50.3997 O.2       0 UNK        -0.5000 
      4 N           1.1785  -14.0329  -48.8307 N.am      1 UNK        -0.5000 
      5 CA          1.8136  -13.4496  -47.6483 C.3       1 UNK         0.1400 
      6 C6          1.5066  -14.2712  -46.3668 C.3       23 UNK        -0.0398 
      7 S7         -0.2757  -14.4419  -45.9759 S.3       23 UNK        -0.2404 
      8 C8         -0.5555  -16.2344  -46.1203 C.3       23 UNK        -0.0205 
      9 C9         -0.4969  -16.7257  -47.5570 C.ar      23 UNK        -0.0193 
     10 C10        -1.6430  -16.7138  -48.3582 C.ar      23 UNK        -0.1150 
     11 C11        -1.5954  -17.2020  -49.6679 C.ar      23 UNK        -0.0193 
     12 C12        -0.3857  -17.6804  -50.1783 C.ar      23 UNK        -0.1150 
     13 C13         0.7636  -17.6958  -49.3883 C.ar      23 UNK        -0.0193 
     14 C14         0.6997  -17.2256  -48.0758 C.ar      23 UNK        -0.1150 
     15 C15         2.0708  -18.2219  -49.9565 C.3       23 UNK        -0.0205 
     16 S16         2.0843  -20.0387  -50.0577 S.3       23 UNK        -0.2404 
     17 C17         2.0777  -20.5088  -48.2948 C.3       23 UNK        -0.0398 
     18 CA          0.9931  -21.5582  -47.9576 C.3       11 UNK         0.1400 
     19 N           1.3480  -22.3038  -46.7496 N.am      11 UNK        -0.5000 
     20 C           0.8454  -23.4979  -46.4130 C.2       10 UNK         0.5000 
     21 O           0.0302  -24.1161  -47.0965 O.2       10 UNK        -0.5000 
     22 CA          1.3116  -24.0759  -45.0641 C.3       10 UNK         0.1400 
     23 CB          2.6622  -24.7910  -45.2170 C.3       10 UNK        -0.1800 
     24 N           1.4185  -23.0499  -44.0238 N.am      10 UNK        -0.5000 
     25 C           0.3653  -22.4025  -43.5078 C.2       9 UNK         0.5000 
     26 O          -0.7975  -22.6231  -43.8420 O.2       9 UNK        -0.5000 
     27 CA          0.6528  -21.2999  -42.4764 C.3       9 UNK         0.1400 
     28 CB          0.7590  -21.8875  -41.0617 C.3       9 UNK        -0.1800 
     29 N           1.8471  -20.5010  -42.7562 N.am      9 UNK        -0.5000 
     30 C           2.0520  -19.7519  -43.8474 C.2       8 UNK         0.5000 
     31 O           1.3071  -19.7639  -44.8285 O.2       8 UNK        -0.5000 
     32 CA          3.2888  -18.8295  -43.8265 C.3       8 UNK         0.1400 
     33 CB          3.2505  -17.7660  -44.9380 C.3       8 UNK        -0.1800 
     34 N           3.4359  -18.1471  -42.5398 N.am      8 UNK        -0.5000 
     35 C           4.0686  -18.6364  -41.4659 C.2       7 UNK         0.5000 
     36 O           4.5738  -19.7584  -41.4264 O.2       7 UNK        -0.5000 
     37 CA          4.0957  -17.7412  -40.2191 C.3       7 UNK         0.1400 
     38 CB          5.0059  -16.5212  -40.4353 C.3       7 UNK        -0.1800 
     39 N           2.7464  -17.2910  -39.8844 N.am      7 UNK        -0.5000 
     40 C           1.9184  -17.9274  -39.0435 C.2       6 UNK         0.5000 
     41 O           2.2199  -18.9528  -38.4320 O.2       6 UNK        -0.5000 
     42 CA          0.5165  -17.3165  -38.8433 C.3       6 UNK         0.1400 
     43 CB          0.5103  -16.3715  -37.6321 C.3       6 UNK        -0.1800 
     44 N           0.0462  -16.5855  -40.0199 N.am      6 UNK        -0.5000 
     45 C          -0.3527  -17.1674  -41.1587 C.2       5 UNK         0.5000 
     46 O          -0.4754  -18.3829  -41.2914 O.2       5 UNK        -0.5000 
     47 CA         -0.6397  -16.2465  -42.3594 C.3       5 UNK         0.1400 
     48 CB         -2.1507  -16.0648  -42.5626 C.3       5 UNK        -0.1800 
     49 N          -0.0080  -14.9275  -42.2660 N.am      5 UNK        -0.5000 
     50 C           1.3091  -14.6927  -42.2955 C.2       4 UNK         0.5000 
     51 O           2.1482  -15.5934  -42.3608 O.2       4 UNK        -0.5000 
     52 CA          1.7557  -13.2160  -42.2218 C.3       4 UNK         0.1400 
     53 CB          3.2506  -13.0398  -42.5442 C.3       4 UNK        -0.1800 
     54 N           0.9838  -12.3369  -43.1033 N.am      4 UNK        -0.5000 
     55 C          -0.2426  -11.8486  -42.8748 C.2       3 UNK         0.5000 
     56 O          -0.9084  -12.1551  -41.8846 O.2       3 UNK        -0.5000 
     57 CA         -0.8491  -10.9013  -43.9360 C.3       3 UNK         0.1400 
     58 CB         -1.4460   -9.6297  -43.2998 C.3       3 UNK        -0.1800 
     59 N           0.0550  -10.5666  -45.0464 N.am      3 UNK        -0.5000 
     60 C           1.1898   -9.8511  -45.0214 C.2       2 UNK         0.5000 
     61 O           1.6308   -9.2999  -44.0124 O.2       2 UNK        -0.5000 
     62 CA          1.9993   -9.8301  -46.3378 C.3       2 UNK         0.1400 
     63 CB          3.3324   -9.0714  -46.2064 C.3       2 UNK        -0.1800 
     64 N           2.2773  -11.1964  -46.7940 N.am      2 UNK        -0.5000 
     65 C           1.4155  -11.9688  -47.4682 C.2       1 UNK         0.5000 
     66 O           0.3150  -11.5671  -47.8568 O.2       1 UNK        -0.5000 
     67 C          -0.4247  -20.9556  -47.8419 C.2       11 UNK         0.5000 
     68 O          -1.1830  -20.9918  -48.8106 O.2       11 UNK        -0.5000 
     69 N          -0.7844  -20.4852  -46.6377 N.am      12 UNK        -0.5000 
     70 CA         -2.1298  -20.0281  -46.2911 C.3       12 UNK         0.1400 
     71 CB         -2.1194  -19.4138  -44.8820 C.3       12 UNK        -0.1800 
     72 C          -3.1732  -21.1578  -46.3860 C.2       12 UNK         0.5000 
     73 O          -4.2488  -20.9430  -46.9429 O.2       12 UNK        -0.5000 
     74 N          -2.8283  -22.3491  -45.8745 N.am      13 UNK        -0.5000 
     75 CA         -3.6543  -23.5563  -45.9456 C.3       13 UNK         0.1400 
     76 CB         -3.0487  -24.6520  -45.0562 C.3       13 UNK        -0.1800 
     77 C          -3.8451  -24.0708  -47.3835 C.2       13 UNK         0.5000 
     78 O          -4.9410  -24.5153  -47.7260 O.2       13 UNK        -0.5000 
     79 N          -2.7981  -23.9624  -48.2149 N.am      14 UNK        -0.5000 
     80 CA         -2.8039  -24.3501  -49.6287 C.3       14 UNK         0.1400 
     81 CB         -1.3781  -24.2731  -50.1938 C.3       14 UNK        -0.1800 
     82 C          -3.7935  -23.5556  -50.5049 C.2       14 UNK         0.5000 
     83 O          -4.1600  -24.0384  -51.5752 O.2       14 UNK        -0.5000 
     84 N          -4.2715  -22.3957  -50.0283 N.am      15 UNK        -0.5000 
     85 CA         -5.3393  -21.6161  -50.6618 C.3       15 UNK         0.1400 
     86 CB         -5.5017  -20.2780  -49.9284 C.3       15 UNK        -0.1800 
     87 C          -6.6862  -22.3648  -50.7344 C.2       15 UNK         0.5000 
     88 O          -7.4883  -22.0678  -51.6195 O.2       15 UNK        -0.5000 
     89 N          -6.8953  -23.3618  -49.8590 N.am      16 UNK        -0.5000 
     90 CA         -8.0348  -24.2830  -49.9096 C.3       16 UNK         0.1400 
     91 CB         -8.0833  -25.1031  -48.6121 C.3       16 UNK        -0.1800 
     92 C          -8.0064  -25.2179  -51.1380 C.2       16 UNK         0.5000 
     93 O          -9.0596  -25.7091  -51.5441 O.2       16 UNK        -0.5000 
     94 N          -6.8171  -25.4219  -51.7231 N.am      17 UNK        -0.5000 
     95 CA         -6.5981  -26.1478  -52.9748 C.3       17 UNK         0.1400 
     96 CB         -5.3561  -27.0427  -52.8211 C.3       17 UNK        -0.1800 
     97 C          -6.4818  -25.1915  -54.1826 C.2       17 UNK         0.5000 
     98 O          -6.0837  -25.6310  -55.2622 O.2       17 UNK        -0.5000 
     99 N          -6.8466  -23.9130  -53.9913 N.am      18 UNK        -0.5000 
    100 CA        -6.9197  -22.8341  -54.9771 C.3       18 UNK         0.1400 
    101 CB        -8.0634  -23.0943  -55.9822 C.3       18 UNK        -0.1800 
    102 C         -5.5622  -22.5469  -55.6443 C.2       18 UNK         0.5000 
    103 O         -4.7349  -21.8508  -55.0517 O.2       18 UNK        -0.5000 
    104 N         -5.3597  -23.0778  -56.8582 N.am      19 UNK        -0.5000 
    105 CA        -4.2046  -22.8617  -57.7367 C.3       19 UNK         0.1400 
    106 CB        -4.4665  -23.5767  -59.0715 C.3       19 UNK        -0.1800 
    107 C         -2.8407  -23.2863  -57.1545 C.2       19 UNK         0.5000 
    108 O         -1.8071  -22.8871  -57.6922 O.2       19 UNK        -0.5000 
    109 N         -2.8519  -24.0601  -56.0610 N.am      20 UNK        -0.5000 
    110 CA        -1.6770  -24.3785  -55.2490 C.3       20 UNK         0.1400 
    111 CB        -2.0551  -25.4752  -54.2439 C.3       20 UNK        -0.1800 
    112 C         -1.0877  -23.1532  -54.5146 C.2       20 UNK         0.5000 
    113 O          0.0821  -23.1953  -54.1312 O.2       20 UNK        -0.5000 
    114 N         -1.8871  -22.0924  -54.3391 N.am      21 UNK        -0.5000 
    115 CA        -1.4865  -20.8265  -53.7383 C.3       21 UNK         0.1400 
    116 CB        -1.7052  -20.8838  -52.2149 C.3       21 UNK        -0.1800 
    117 C         -2.2129  -19.6741  -54.4568 C.2       21 UNK         0.5000 
    118 O         -2.0032  -19.4919  -55.6568 O.2       21 UNK        -0.5000 
    119 N         -3.0251  -18.9039  -53.7220 N.am      22 UNK        -0.5000 
    120 CA        -3.6942  -17.6730  -54.1847 C.3       22 UNK         0.1400 
    121 C         -4.8798  -17.8698  -55.1766 C.2       22 UNK         0.5000 
    122 N         -5.3158  -19.0816  -55.4886 N.am      22 UNK        -0.7600 
    123 O         -5.4170  -16.8908  -55.6878 O.2       22 UNK        -0.5000 
    124 C124       -4.1199  -16.7730  -52.9929 C.3       23 UNK        -0.0398 
    125 S125       -2.6997  -16.1987  -52.0019 S.3       23 UNK        -0.2404 
    126 C126       -2.8485  -17.2525  -50.5268 C.3       23 UNK        -0.0205 
    127 H127        1.1981  -15.2352  -51.6375 H         1 UNK         0.0600 
    128 H128       -0.2801  -14.7678  -50.7889 H         1 UNK         0.0600 
    129 H129        0.4384  -13.6729  -51.9679 H         1 UNK         0.0600 
    130 H130        0.3794  -14.6225  -48.6414 H         1 UNK         0.3000 
    131 H131        2.8937  -13.4808  -47.8076 H         1 UNK         0.0600 
    132 H132        1.9969  -13.8227  -45.5025 H         1 UNK         0.0800 
    133 H133        1.9584  -15.2574  -46.4543 H         1 UNK         0.0800 
    134 H134        0.1699  -16.7728  -45.5110 H         1 UNK         0.0800 
    135 H135       -1.5356  -16.4625  -45.7001 H         1 UNK         0.0800 
    136 H136       -2.5741  -16.3416  -47.9545 H         1 UNK         0.1150 
    137 H137       -0.3370  -18.0453  -51.1937 H         1 UNK         0.1150 
    138 H138        1.5843  -17.2520  -47.4578 H         1 UNK         0.1150 
    139 H139        2.2187  -17.8115  -50.9564 H         1 UNK         0.0800 
    140 H140        2.9192  -17.8835  -49.3597 H         1 UNK         0.0800 
    141 H141        1.9899  -19.6357  -47.6488 H         1 UNK         0.0800 
    142 H142        3.0664  -20.9221  -48.0905 H         1 UNK         0.0800 
    143 H143        0.9666  -22.2809  -48.7764 H         1 UNK         0.0600 
    144 H144        1.9584  -21.8376  -46.0948 H         1 UNK         0.3000 
    145 H145        0.5708  -24.8118  -44.7440 H         1 UNK         0.0600 
    146 H146        2.9629  -25.2685  -44.2842 H         1 UNK         0.0600 
    147 H147        2.6058  -25.5716  -45.9769 H         1 UNK         0.0600 
    148 H148        3.4543  -24.1018  -45.5123 H         1 UNK         0.0600 
    149 H149        2.3438  -22.8118  -43.6979 H         1 UNK         0.3000 
    150 H150       -0.2026  -20.6244  -42.4974 H         1 UNK         0.0600 
    151 H151       -0.1264  -22.4748  -40.8145 H         1 UNK         0.0600 
    152 H152        0.8419  -21.0972  -40.3148 H         1 UNK         0.0600 
    153 H153        1.6272  -22.5396  -40.9599 H         1 UNK         0.0600 
    154 H154        2.5342  -20.4407  -42.0163 H         1 UNK         0.3000 
    155 H155        4.1614  -19.4614  -44.0027 H         1 UNK         0.0600 
    156 H156        2.3899  -17.1069  -44.8271 H         1 UNK         0.0600 
    157 H157        3.1969  -18.2271  -45.9243 H         1 UNK         0.0600 
    158 H158        4.1471  -17.1464  -44.9202 H         1 UNK         0.0600 
    159 H159        3.0064  -17.2266  -42.4753 H         1 UNK         0.3000 
    160 H160        4.5097  -18.3225  -39.3923 H         1 UNK         0.0600 
    161 H161        5.0532  -15.9031  -39.5387 H         1 UNK         0.0600 
    162 H162        4.6598  -15.8924  -41.2559 H         1 UNK         0.0600 
    163 H163        6.0245  -16.8329  -40.6693 H         1 UNK         0.0600 
    164 H164        2.3991  -16.4941  -40.4013 H         1 UNK         0.3000 
    165 H165       -0.1777  -18.1352  -38.6415 H         1 UNK         0.0600 
    166 H166       -0.4897  -15.9816  -37.4411 H         1 UNK         0.0600 
    167 H167        0.8327  -16.8922  -36.7294 H         1 UNK         0.0600 
    168 H168        1.1801  -15.5233  -37.7786 H         1 UNK         0.0600 
    169 H169        0.0918  -15.5780  -39.9846 H         1 UNK         0.3000 
    170 H170       -0.2334  -16.7483  -43.2381 H         1 UNK         0.0600 
    171 H171       -2.6485  -17.0283  -42.6798 H         1 UNK         0.0600 
    172 H172       -2.6110  -15.5562  -41.7147 H         1 UNK         0.0600 
    173 H173       -2.3604  -15.4803  -43.4586 H         1 UNK         0.0600 
    174 H174       -0.6233  -14.1258  -42.1769 H         1 UNK         0.3000 
    175 H175        1.6000  -12.8912  -41.1912 H         1 UNK         0.0600 
    176 H176        3.4930  -13.3930  -43.5469 H         1 UNK         0.0600 
    177 H177        3.5484  -11.9932  -42.4757 H         1 UNK         0.0600 
    178 H178        3.8716  -13.5959  -41.8412 H         1 UNK         0.0600 
    179 H179        1.4436  -12.0396  -43.9490 H         1 UNK         0.3000 
    180 H180       -1.6721  -11.4570  -44.3876 H         1 UNK         0.0600 
    181 H181       -0.6955   -9.0541  -42.7578 H         1 UNK         0.0600 
    182 H182       -2.2349   -9.8815  -42.5900 H         1 UNK         0.0600 
    183 H183       -1.8876   -8.9801  -44.0555 H         1 UNK         0.0600 
    184 H184       -0.1900  -10.9854  -45.9384 H         1 UNK         0.3000 
    185 H185        1.3945   -9.3115  -47.0848 H         1 UNK         0.0600 
    186 H186        3.1657   -8.0378  -45.9003 H         1 UNK         0.0600 
    187 H187        3.9891   -9.5322  -45.4674 H         1 UNK         0.0600 
    188 H188        3.8648   -9.0442  -47.1573 H         1 UNK         0.0600 
    189 H189        3.1606  -11.5871  -46.4983 H         1 UNK         0.3000 
    190 H190       -0.0819  -20.4291  -45.9052 H         1 UNK         0.3000 
    191 H191       -2.4064  -19.2493  -47.0045 H         1 UNK         0.0600 
    192 H192       -1.9662  -20.1694  -44.1121 H         1 UNK         0.0600 
    193 H193       -3.0668  -18.9180  -44.6684 H         1 UNK         0.0600 
    194 H194       -1.3289  -18.6731  -44.7729 H         1 UNK         0.0600 
    195 H195       -1.9522  -22.4302  -45.3660 H         1 UNK         0.3000 
    196 H196       -4.6419  -23.3082  -45.5515 H         1 UNK         0.0600 
    197 H197       -2.0384  -24.9141  -45.3718 H         1 UNK         0.0600 
    198 H198       -3.6506  -25.5610  -45.0899 H         1 UNK         0.0600 
    199 H199       -3.0017  -24.3325  -44.0151 H         1 UNK         0.0600 
    200 H200       -1.9176  -23.6247  -47.8436 H         1 UNK         0.3000 
    201 H201       -3.1212  -25.3937  -49.6761 H         1 UNK         0.0600 
    202 H202       -0.7160  -24.9733  -49.6845 H         1 UNK         0.0600 
    203 H203       -0.9546  -23.2767  -50.0832 H         1 UNK         0.0600 
    204 H204       -1.3590  -24.5220  -51.2557 H         1 UNK         0.0600 
    205 H205       -3.9278  -22.0599  -49.1381 H         1 UNK         0.3000 
    206 H206       -5.0334  -21.4080  -51.6889 H         1 UNK         0.0600 
    207 H207       -4.5448  -19.7718  -49.8064 H         1 UNK         0.0600 
    208 H208       -6.1609  -19.6085  -50.4821 H         1 UNK         0.0600 
    209 H209       -5.9340  -20.4153  -48.9368 H         1 UNK         0.0600 
    210 H210       -6.1851  -23.5637  -49.1633 H         1 UNK         0.3000 
    211 H211       -8.9476  -23.6867  -49.9698 H         1 UNK         0.0600 
    212 H212       -7.2140  -25.7546  -48.5161 H         1 UNK         0.0600 
    213 H213       -8.9708  -25.7365  -48.5843 H         1 UNK         0.0600 
    214 H214       -8.1171  -24.4565  -47.7351 H         1 UNK         0.0600 
    215 H215       -6.0005  -24.9466  -51.3546 H         1 UNK         0.3000 
    216 H216       -7.4485  -26.8009  -53.1792 H         1 UNK         0.0600 
    217 H217       -5.1619  -27.6129  -53.7303 H         1 UNK         0.0600 
    218 H218       -5.4912  -27.7619  -52.0133 H         1 UNK         0.0600 
    219 H219       -4.4624  -26.4619  -52.5999 H         1 UNK         0.0600 
    220 H220       -7.1205  -23.6398  -53.0560 H         1 UNK         0.3000 
    221 H221       -7.1775  -21.9308  -54.4221 H         1 UNK         0.0600 
    222 H222       -7.9372  -24.0300  -56.5274 H         1 UNK         0.0600 
    223 H223       -9.0239  -23.1427  -55.4692 H         1 UNK         0.0600 
    224 H224       -8.1323  -22.2894  -56.7152 H         1 UNK         0.0600 
    225 H225       -6.0812  -23.6827  -57.2233 H         1 UNK         0.3000 
    226 H226       -4.1427  -21.7888  -57.9295 H         1 UNK         0.0600 
    227 H227       -5.3767  -23.2086  -59.5455 H         1 UNK         0.0600 
    228 H228       -3.6483  -23.4114  -59.7737 H         1 UNK         0.0600 
    229 H229       -4.5696  -24.6539  -58.9348 H         1 UNK         0.0600 
    230 H230       -3.7490  -24.3525  -55.6988 H         1 UNK         0.3000 
    231 H231       -0.9027  -24.7710  -55.9112 H         1 UNK         0.0600 
    232 H232       -2.4381  -26.3631  -54.7472 H         1 UNK         0.0600 
    233 H233       -2.8185  -25.1245  -53.5512 H         1 UNK         0.0600 
    234 H234       -1.1909  -25.7810  -53.6529 H         1 UNK         0.0600 
    235 H235       -2.8380  -22.1235  -54.6973 H         1 UNK         0.3000 
    236 H236       -0.4220  -20.6621  -53.9178 H         1 UNK         0.0600 
    237 H237       -1.3982  -19.9598  -51.7292 H         1 UNK         0.0600 
    238 H238       -2.7468  -21.0680  -51.9629 H         1 UNK         0.0600 
    239 H239       -1.1111  -21.6801  -51.7693 H         1 UNK         0.0600 
    240 H240       -3.1551  -19.1381  -52.7511 H         1 UNK         0.3000 
    241 H241       -2.9508  -17.1130  -54.7553 H         1 UNK         0.0600 
    242 H242       -6.0786  -19.1641  -56.1403 H         1 UNK         0.3800 
    243 H243       -4.8764  -19.9197  -55.1241 H         1 UNK         0.3800 
    244 H244       -4.6298  -15.8767  -53.3507 H         1 UNK         0.0800 
    245 H245       -4.8387  -17.2913  -52.3561 H         1 UNK         0.0800 
    246 H246       -3.7270  -16.9488  -49.9553 H         1 UNK         0.0800 
    247 H247       -3.0146  -18.2857  -50.8291 H         1 UNK         0.0800 
@<TRIPOS>BOND
     1    1    2 1    
     2    1  127 1    
     3    1  128 1    
     4    1  129 1    
     5    2    3 2    
     6    2    4 am   BACKBONE|DICT|INTERRES
     7    4    5 1    
     8    4  130 1    
     9    5    6 1    
    10    5   65 1    
    11    5  131 1    
    12    6    7 1    
    13    6  132 1    
    14    6  133 1    
    15    7    8 1    
    16    8    9 1    
    17    8  134 1    
    18    8  135 1    
    19    9   10 ar   
    20    9   14 ar   
    21   10   11 ar   
    22   10  136 1    
    23   11   12 ar   
    24   11  126 1    
    25   12   13 ar   
    26   12  137 1    
    27   13   14 ar   
    28   13   15 1    
    29   14  138 1    
    30   15   16 1    
    31   15  139 1    
    32   15  140 1    
    33   16   17 1    
    34   17   18 1    
    35   17  141 1    
    36   17  142 1    
    37   18   19 1    
    38   18   67 1    
    39   18  143 1    
    40   19   20 am   BACKBONE|DICT|INTERRES
    41   19  144 1    
    42   20   21 2    
    43   20   22 1    
    44   22   23 1    
    45   22   24 1    
    46   22  145 1    
    47   23  146 1    
    48   23  147 1    
    49   23  148 1    
    50   24   25 am   BACKBONE|DICT|INTERRES
    51   24  149 1    
    52   25   26 2    
    53   25   27 1    
    54   27   28 1    
    55   27   29 1    
    56   27  150 1    
    57   28  151 1    
    58   28  152 1    
    59   28  153 1    
    60   29   30 am   BACKBONE|DICT|INTERRES
    61   29  154 1    
    62   30   31 2    
    63   30   32 1    
    64   32   33 1    
    65   32   34 1    
    66   32  155 1    
    67   33  156 1    
    68   33  157 1    
    69   33  158 1    
    70   34   35 am   BACKBONE|DICT|INTERRES
    71   34  159 1    
    72   35   36 2    
    73   35   37 1    
    74   37   38 1    
    75   37   39 1    
    76   37  160 1    
    77   38  161 1    
    78   38  162 1    
    79   38  163 1    
    80   39   40 am   BACKBONE|DICT|INTERRES
    81   39  164 1    
    82   40   41 2    
    83   40   42 1    
    84   42   43 1    
    85   42   44 1    
    86   42  165 1    
    87   43  166 1    
    88   43  167 1    
    89   43  168 1    
    90   44   45 am   BACKBONE|DICT|INTERRES
    91   44  169 1    
    92   45   46 2    
    93   45   47 1    
    94   47   48 1    
    95   47   49 1    
    96   47  170 1    
    97   48  171 1    
    98   48  172 1    
    99   48  173 1    
   100   49   50 am   BACKBONE|DICT|INTERRES
   101   49  174 1    
   102   50   51 2    
   103   50   52 1    
   104   52   53 1    
   105   52   54 1    
   106   52  175 1    
   107   53  176 1    
   108   53  177 1    
   109   53  178 1    
   110   54   55 am   BACKBONE|DICT|INTERRES
   111   54  179 1    
   112   55   56 2    
   113   55   57 1    
   114   57   58 1    
   115   57   59 1    
   116   57  180 1    
   117   58  181 1    
   118   58  182 1    
   119   58  183 1    
   120   59   60 am   BACKBONE|DICT|INTERRES
   121   59  184 1    
   122   60   61 2    
   123   60   62 1    
   124   62   63 1    
   125   62   64 1    
   126   62  185 1    
   127   63  186 1    
   128   63  187 1    
   129   63  188 1    
   130   64   65 am   BACKBONE|DICT|INTERRES
   131   64  189 1    
   132   65   66 2    
   133   67   68 2    
   134   67   69 am   BACKBONE|DICT|INTERRES
   135   69   70 1    
   136   69  190 1    
   137   70   71 1    
   138   70   72 1    
   139   70  191 1    
   140   71  192 1    
   141   71  193 1    
   142   71  194 1    
   143   72   73 2    
   144   72   74 am   BACKBONE|DICT|INTERRES
   145   74   75 1    
   146   74  195 1    
   147   75   76 1    
   148   75   77 1    
   149   75  196 1    
   150   76  197 1    
   151   76  198 1    
   152   76  199 1    
   153   77   78 2    
   154   77   79 am   BACKBONE|DICT|INTERRES
   155   79   80 1    
   156   79  200 1    
   157   80   81 1    
   158   80   82 1    
   159   80  201 1    
   160   81  202 1    
   161   81  203 1    
   162   81  204 1    
   163   82   83 2    
   164   82   84 am   BACKBONE|DICT|INTERRES
   165   84   85 1    
   166   84  205 1    
   167   85   86 1    
   168   85   87 1    
   169   85  206 1    
   170   86  207 1    
   171   86  208 1    
   172   86  209 1    
   173   87   88 2    
   174   87   89 am   BACKBONE|DICT|INTERRES
   175   89   90 1    
   176   89  210 1    
   177   90   91 1    
   178   90   92 1    
   179   90  211 1    
   180   91  212 1    
   181   91  213 1    
   182   91  214 1    
   183   92   93 2    
   184   92   94 am   BACKBONE|DICT|INTERRES
   185   94   95 1    
   186   94  215 1    
   187   95   96 1    
   188   95   97 1    
   189   95  216 1    
   190   96  217 1    
   191   96  218 1    
   192   96  219 1    
   193   97   98 2    
   194   97   99 am   BACKBONE|DICT|INTERRES
   195   99  100 1    
   196   99  220 1    
   197  100  101 1    
   198  100  102 1    
   199  100  221 1    
   200  101  222 1    
   201  101  223 1    
   202  101  224 1    
   203  102  103 2    
   204  102  104 am   BACKBONE|DICT|INTERRES
   205  104  105 1    
   206  104  225 1    
   207  105  106 1    
   208  105  107 1    
   209  105  226 1    
   210  106  227 1    
   211  106  228 1    
   212  106  229 1    
   213  107  108 2    
   214  107  109 am   BACKBONE|DICT|INTERRES
   215  109  110 1    
   216  109  230 1    
   217  110  111 1    
   218  110  112 1    
   219  110  231 1    
   220  111  232 1    
   221  111  233 1    
   222  111  234 1    
   223  112  113 2    
   224  112  114 am   BACKBONE|DICT|INTERRES
   225  114  115 1    
   226  114  235 1    
   227  115  116 1    
   228  115  117 1    
   229  115  236 1    
   230  116  237 1    
   231  116  238 1    
   232  116  239 1    
   233  117  118 2    
   234  117  119 am   BACKBONE|DICT|INTERRES
   235  119  120 1    
   236  119  240 1    
   237  120  121 1    
   238  120  124 1    
   239  120  241 1    
   240  121  122 am   BACKBONE|DICT|INTERRES
   241  121  123 2    
   242  122  242 1    
   243  122  243 1    
   244  124  125 1    
   245  124  244 1    
   246  124  245 1    
   247  125  126 1    
   248  126  246 1    
   249  126  247 1    
@<TRIPOS>SUBSTRUCTURE
     1 UNK         1 GROUP             0       ****    0 ROOT    
