@<TRIPOS>MOLECULE
3R540
247   249    1
SMALL
USER_CHARGES


@<TRIPOS>ATOM
      1 CA         -2.8722  -11.8832  -48.5493 C.3       0 UNK        -0.1800 
      2 C          -2.0310  -12.7837  -47.6575 C.2       0 UNK         0.5000 
      3 O          -1.9029  -12.5161  -46.4620 O.2       0 UNK        -0.5000 
      4 N          -1.4518  -13.8474  -48.2273 N.am      1 UNK        -0.5000 
      5 CA         -0.6549  -14.8414  -47.5025 C.3       1 UNK         0.1400 
      6 C6          0.1680  -15.7428  -48.4585 C.3       23 UNK        -0.0398 
      7 S7          1.8708  -15.9719  -47.8573 S.3       23 UNK        -0.2404 
      8 C8          2.7613  -16.3174  -49.4027 C.3       23 UNK        -0.0205 
      9 C9          2.3746  -17.6672  -49.9863 C.ar      23 UNK        -0.0193 
     10 C10         1.4426  -17.7472  -51.0238 C.ar      23 UNK        -0.1150 
     11 C11         1.1099  -18.9821  -51.5860 C.ar      23 UNK        -0.0193 
     12 C12         1.7171  -20.1449  -51.0994 C.ar      23 UNK        -0.1150 
     13 C13         2.6407  -20.0808  -50.0488 C.ar      23 UNK        -0.0193 
     14 C14         2.9642  -18.8366  -49.4992 C.ar      23 UNK        -0.1150 
     15 C15         3.3289  -21.3379  -49.5248 C.3       23 UNK        -0.0205 
     16 S16         2.1843  -22.7031  -49.1390 S.3       23 UNK        -0.2404 
     17 C17         1.1425  -21.9699  -47.8365 C.3       23 UNK        -0.0398 
     18 CA          0.1561  -23.0167  -47.2671 C.3       11 UNK         0.1400 
     19 N           0.8310  -24.0421  -46.4667 N.am      11 UNK        -0.5000 
     20 C           0.2769  -25.2001  -46.0843 C.2       10 UNK         0.5000 
     21 O          -0.8717  -25.5359  -46.3685 O.2       10 UNK        -0.5000 
     22 CA          1.1400  -26.1176  -45.2000 C.3       10 UNK         0.1400 
     23 CB          2.1230  -26.9287  -46.0573 C.3       10 UNK        -0.1800 
     24 N           1.8813  -25.3744  -44.1805 N.am      10 UNK        -0.5000 
     25 C           1.3103  -24.7213  -43.1587 C.2       9 UNK         0.5000 
     26 O           0.0978  -24.7052  -42.9478 O.2       9 UNK        -0.5000 
     27 CA          2.2496  -23.9015  -42.2543 C.3       9 UNK         0.1400 
     28 CB          2.8824  -24.7967  -41.1785 C.3       9 UNK        -0.1800 
     29 N           3.3070  -23.1913  -42.9837 N.am      9 UNK        -0.5000 
     30 C           3.0881  -22.2903  -43.9500 C.2       8 UNK         0.5000 
     31 O           1.9689  -22.0268  -44.3965 O.2       8 UNK        -0.5000 
     32 CA          4.3221  -21.5893  -44.5486 C.3       8 UNK         0.1400 
     33 CB          4.8795  -22.4090  -45.7228 C.3       8 UNK        -0.1800 
     34 N           3.9642  -20.2546  -45.0298 N.am      8 UNK        -0.5000 
     35 C           3.6238  -19.2377  -44.2288 C.2       7 UNK         0.5000 
     36 O           3.7894  -19.2408  -43.0052 O.2       7 UNK        -0.5000 
     37 CA          2.9206  -18.0559  -44.9117 C.3       7 UNK         0.1400 
     38 CB          1.4707  -18.4527  -45.2440 C.3       7 UNK        -0.1800 
     39 N           2.8901  -16.9056  -44.0112 N.am      7 UNK        -0.5000 
     40 C           3.5028  -15.7365  -44.2192 C.2       6 UNK         0.5000 
     41 O           4.1740  -15.4685  -45.2180 O.2       6 UNK        -0.5000 
     42 CA          3.3525  -14.6852  -43.1034 C.3       6 UNK         0.1400 
     43 CB          4.6903  -14.4557  -42.3827 C.3       6 UNK        -0.1800 
     44 N           2.8573  -13.4084  -43.6201 N.am      6 UNK        -0.5000 
     45 C           1.6300  -13.2227  -44.1203 C.2       5 UNK         0.5000 
     46 O           0.7855  -14.1166  -44.2019 O.2       5 UNK        -0.5000 
     47 CA          1.2915  -11.8076  -44.6189 C.3       5 UNK         0.1400 
     48 CB          1.6596  -11.6394  -46.1012 C.3       5 UNK        -0.1800 
     49 N          -0.1329  -11.5217  -44.4416 N.am      5 UNK        -0.5000 
     50 C          -0.6765  -11.1079  -43.2892 C.2       4 UNK         0.5000 
     51 O          -0.0225  -10.8844  -42.2692 O.2       4 UNK        -0.5000 
     52 CA         -2.1991  -10.9107  -43.2622 C.3       4 UNK         0.1400 
     53 CB         -2.6122   -9.6438  -44.0312 C.3       4 UNK        -0.1800 
     54 N          -2.8967  -12.0730  -43.8065 N.am      4 UNK        -0.5000 
     55 C          -4.0793  -12.5271  -43.3732 C.2       3 UNK         0.5000 
     56 O          -4.7171  -12.0127  -42.4531 O.2       3 UNK        -0.5000 
     57 CA         -4.6495  -13.7706  -44.0811 C.3       3 UNK         0.1400 
     58 CB         -5.4240  -13.3668  -45.3448 C.3       3 UNK        -0.1800 
     59 N          -3.6140  -14.7369  -44.4420 N.am      3 UNK        -0.5000 
     60 C          -2.9440  -15.5095  -43.5774 C.2       2 UNK         0.5000 
     61 O          -3.1768  -15.5326  -42.3684 O.2       2 UNK        -0.5000 
     62 CA         -1.8052  -16.3848  -44.1376 C.3       2 UNK         0.1400 
     63 CB         -2.2762  -17.8249  -44.4146 C.3       2 UNK        -0.1800 
     64 N          -1.1240  -15.7916  -45.2942 N.am      2 UNK        -0.5000 
     65 C          -1.5521  -15.6621  -46.5551 C.2       1 UNK         0.5000 
     66 O          -2.6250  -16.1046  -46.9679 O.2       1 UNK        -0.5000 
     67 C          -0.9848  -22.3433  -46.4832 C.2       11 UNK         0.5000 
     68 O          -2.0484  -22.1016  -47.0558 O.2       11 UNK        -0.5000 
     69 N          -0.7631  -22.0939  -45.1861 N.am      12 UNK        -0.5000 
     70 CA         -1.7673  -21.5800  -44.2582 C.3       12 UNK         0.1400 
     71 CB         -1.0942  -21.1944  -42.9326 C.3       12 UNK        -0.1800 
     72 C          -2.9203  -22.5731  -44.0294 C.2       12 UNK         0.5000 
     73 O          -4.0807  -22.1634  -44.0563 O.2       12 UNK        -0.5000 
     74 N          -2.5872  -23.8597  -43.8486 N.am      13 UNK        -0.5000 
     75 CA         -3.5502  -24.9510  -43.6847 C.3       13 UNK         0.1400 
     76 CB         -2.8121  -26.2300  -43.2613 C.3       13 UNK        -0.1800 
     77 C          -4.3946  -25.2036  -44.9478 C.2       13 UNK         0.5000 
     78 O          -5.6002  -25.4295  -44.8372 O.2       13 UNK        -0.5000 
     79 N          -3.7535  -25.1434  -46.1228 N.am      14 UNK        -0.5000 
     80 CA         -4.3959  -25.3021  -47.4289 C.3       14 UNK         0.1400 
     81 CB         -3.3140  -25.5904  -48.4822 C.3       14 UNK        -0.1800 
     82 C          -5.2312  -24.0820  -47.8624 C.2       14 UNK         0.5000 
     83 O          -6.0720  -24.2252  -48.7506 O.2       14 UNK        -0.5000 
     84 N          -4.9591  -22.9118  -47.2627 N.am      15 UNK        -0.5000 
     85 CA         -5.4384  -21.5808  -47.6526 C.3       15 UNK         0.1400 
     86 CB         -6.9624  -21.4483  -47.4554 C.3       15 UNK        -0.1800 
     87 C          -4.9731  -21.2323  -49.0808 C.2       15 UNK         0.5000 
     88 O          -5.7764  -20.8505  -49.9342 O.2       15 UNK        -0.5000 
     89 N          -3.6670  -21.4163  -49.3174 N.am      16 UNK        -0.5000 
     90 CA         -3.0205  -21.3907  -50.6298 C.3       16 UNK         0.1400 
     91 CB         -1.5309  -21.7089  -50.4586 C.3       16 UNK        -0.1800 
     92 C          -3.2011  -20.0840  -51.4198 C.2       16 UNK         0.5000 
     93 O          -3.2519  -20.1360  -52.6476 O.2       16 UNK        -0.5000 
     94 N          -3.3118  -18.9482  -50.7182 N.am      17 UNK        -0.5000 
     95 CA         -3.5654  -17.6351  -51.3148 C.3       17 UNK         0.1400 
     96 CB         -3.2129  -16.5384  -50.3012 C.3       17 UNK        -0.1800 
     97 C          -5.0129  -17.4672  -51.8107 C.2       17 UNK         0.5000 
     98 O          -5.2298  -16.7771  -52.8066 O.2       17 UNK        -0.5000 
     99 N          -5.9717  -18.1085  -51.1281 N.am      18 UNK        -0.5000 
    100 CA        -7.3832  -18.1265  -51.5160 C.3       18 UNK         0.1400 
    101 CB        -8.2529  -18.4435  -50.2893 C.3       18 UNK        -0.1800 
    102 C         -7.6341  -19.1397  -52.6451 C.2       18 UNK         0.5000 
    103 O         -8.4077  -18.8569  -53.5604 O.2       18 UNK        -0.5000 
    104 N         -6.9473  -20.2883  -52.5731 N.am      19 UNK        -0.5000 
    105 CA        -6.9568  -21.3357  -53.5952 C.3       19 UNK         0.1400 
    106 CB        -6.3534  -22.6131  -52.9904 C.3       19 UNK        -0.1800 
    107 C         -6.1952  -20.9455  -54.8791 C.2       19 UNK         0.5000 
    108 O         -6.4478  -21.5373  -55.9289 O.2       19 UNK        -0.5000 
    109 N         -5.2650  -19.9848  -54.7600 N.am      20 UNK        -0.5000 
    110 CA        -4.2929  -19.5398  -55.7660 C.3       20 UNK         0.1400 
    111 CB        -4.9961  -18.8767  -56.9679 C.3       20 UNK        -0.1800 
    112 C         -3.3194  -20.6674  -56.1731 C.2       20 UNK         0.5000 
    113 O         -2.9127  -20.7579  -57.3332 O.2       20 UNK        -0.5000 
    114 N         -2.9611  -21.5129  -55.1966 N.am      21 UNK        -0.5000 
    115 CA        -2.1706  -22.7339  -55.3714 C.3       21 UNK         0.1400 
    116 CB        -2.2197  -23.5471  -54.0693 C.3       21 UNK        -0.1800 
    117 C         -0.7140  -22.4765  -55.8007 C.2       21 UNK         0.5000 
    118 O         -0.1076  -23.3379  -56.4385 O.2       21 UNK        -0.5000 
    119 N         -0.1927  -21.2930  -55.4607 N.am      22 UNK        -0.5000 
    120 CA         1.1135  -20.7814  -55.8996 C.3       22 UNK         0.1400 
    121 C          1.0989  -20.1114  -57.3078 C.2       22 UNK         0.5000 
    122 N         -0.0336  -20.0062  -57.9957 N.am      22 UNK        -0.7600 
    123 O          2.1444  -19.6949  -57.7996 O.2       22 UNK        -0.5000 
    124 C124        1.7665  -19.8842  -54.8144 C.3       23 UNK        -0.0398 
    125 S125        0.7342  -18.4660  -54.2976 S.3       23 UNK        -0.2404 
    126 C126        0.0789  -19.0494  -52.7031 C.3       23 UNK        -0.0205 
    127 H127       -2.8867  -12.2340  -49.5815 H         1 UNK         0.0600 
    128 H128       -2.4724  -10.8693  -48.5389 H         1 UNK         0.0600 
    129 H129       -3.8992  -11.8491  -48.1866 H         1 UNK         0.0600 
    130 H130       -1.6176  -14.0362  -49.2045 H         1 UNK         0.3000 
    131 H131        0.0379  -14.2728  -46.8813 H         1 UNK         0.0600 
    132 H132        0.2276  -15.2906  -49.4493 H         1 UNK         0.0800 
    133 H133       -0.2868  -16.7241  -48.6064 H         1 UNK         0.0800 
    134 H134        3.8330  -16.3033  -49.1989 H         1 UNK         0.0800 
    135 H135        2.5797  -15.5168  -50.1214 H         1 UNK         0.0800 
    136 H136        0.9802  -16.8470  -51.4034 H         1 UNK         0.1150 
    137 H137        1.4690  -21.1031  -51.5334 H         1 UNK         0.1150 
    138 H138        3.6861  -18.7709  -48.6974 H         1 UNK         0.1150 
    139 H139        3.9172  -21.1153  -48.6337 H         1 UNK         0.0800 
    140 H140        4.0371  -21.6822  -50.2793 H         1 UNK         0.0800 
    141 H141        0.6118  -21.1210  -48.2689 H         1 UNK         0.0800 
    142 H142        1.7774  -21.5623  -47.0493 H         1 UNK         0.0800 
    143 H143       -0.3151  -23.5288  -48.1080 H         1 UNK         0.0600 
    144 H144        1.7609  -23.8206  -46.1455 H         1 UNK         0.3000 
    145 H145        0.4716  -26.8166  -44.6927 H         1 UNK         0.0600 
    146 H146        1.5932  -27.5050  -46.8170 H         1 UNK         0.0600 
    147 H147        2.6860  -27.6362  -45.4483 H         1 UNK         0.0600 
    148 H148        2.8375  -26.2852  -46.5723 H         1 UNK         0.0600 
    149 H149        2.8844  -25.3295  -44.2814 H         1 UNK         0.3000 
    150 H150        1.6389  -23.1486  -41.7517 H         1 UNK         0.0600 
    151 H151        3.4642  -24.2089  -40.4682 H         1 UNK         0.0600 
    152 H152        2.1158  -25.3246  -40.6094 H         1 UNK         0.0600 
    153 H153        3.5427  -25.5471  -41.6149 H         1 UNK         0.0600 
    154 H154        4.2548  -23.3658  -42.6818 H         1 UNK         0.3000 
    155 H155        5.0914  -21.4945  -43.7794 H         1 UNK         0.0600 
    156 H156        4.1350  -22.5535  -46.5065 H         1 UNK         0.0600 
    157 H157        5.2015  -23.3971  -45.3920 H         1 UNK         0.0600 
    158 H158        5.7455  -21.9201  -46.1696 H         1 UNK         0.0600 
    159 H159        3.7711  -20.1774  -46.0162 H         1 UNK         0.3000 
    160 H160        3.4506  -17.8164  -45.8360 H         1 UNK         0.0600 
    161 H161        0.9334  -18.7877  -44.3565 H         1 UNK         0.0600 
    162 H162        1.4366  -19.2630  -45.9728 H         1 UNK         0.0600 
    163 H163        0.9176  -17.6172  -45.6674 H         1 UNK         0.0600 
    164 H164        2.4315  -17.0676  -43.1260 H         1 UNK         0.3000 
    165 H165        2.6319  -15.0494  -42.3677 H         1 UNK         0.0600 
    166 H166        5.0761  -15.3894  -41.9714 H         1 UNK         0.0600 
    167 H167        5.4486  -14.0564  -43.0576 H         1 UNK         0.0600 
    168 H168        4.5776  -13.7578  -41.5528 H         1 UNK         0.0600 
    169 H169        3.5122  -12.6403  -43.6201 H         1 UNK         0.3000 
    170 H170        1.8760  -11.0874  -44.0421 H         1 UNK         0.0600 
    171 H171        1.0678  -12.2862  -46.7464 H         1 UNK         0.0600 
    172 H172        2.7102  -11.8760  -46.2745 H         1 UNK         0.0600 
    173 H173        1.5001  -10.6120  -46.4286 H         1 UNK         0.0600 
    174 H174       -0.7390  -11.7460  -45.2260 H         1 UNK         0.3000 
    175 H175       -2.4782  -10.7801  -42.2143 H         1 UNK         0.0600 
    176 H176       -2.0775   -8.7685  -43.6605 H         1 UNK         0.0600 
    177 H177       -2.4004   -9.7343  -45.0974 H         1 UNK         0.0600 
    178 H178       -3.6782   -9.4456  -43.9187 H         1 UNK         0.0600 
    179 H179       -2.4580  -12.5306  -44.5997 H         1 UNK         0.3000 
    180 H180       -5.3468  -14.2564  -43.3953 H         1 UNK         0.0600 
    181 H181       -4.7769  -12.8808  -46.0751 H         1 UNK         0.0600 
    182 H182       -6.2277  -12.6700  -45.1036 H         1 UNK         0.0600 
    183 H183       -5.8782  -14.2344  -45.8238 H         1 UNK         0.0600 
    184 H184       -3.3779  -14.8163  -45.4231 H         1 UNK         0.3000 
    185 H185       -1.0434  -16.4366  -43.3580 H         1 UNK         0.0600 
    186 H186       -2.5890  -18.3127  -43.4908 H         1 UNK         0.0600 
    187 H187       -3.1246  -17.8556  -45.0985 H         1 UNK         0.0600 
    188 H188       -1.4755  -18.4234  -44.8470 H         1 UNK         0.0600 
    189 H189       -0.2764  -15.2863  -45.0348 H         1 UNK         0.3000 
    190 H190        0.1657  -22.2664  -44.8082 H         1 UNK         0.3000 
    191 H191       -2.1966  -20.6799  -44.7001 H         1 UNK         0.0600 
    192 H192       -0.3162  -20.4473  -43.0879 H         1 UNK         0.0600 
    193 H193       -1.8184  -20.7713  -42.2357 H         1 UNK         0.0600 
    194 H194       -0.6349  -22.0563  -42.4482 H         1 UNK         0.0600 
    195 H195       -1.6048  -24.1098  -43.7873 H         1 UNK         0.3000 
    196 H196       -4.2344  -24.6741  -42.8800 H         1 UNK         0.0600 
    197 H197       -3.5092  -27.0576  -43.1245 H         1 UNK         0.0600 
    198 H198       -2.2881  -26.0871  -42.3161 H         1 UNK         0.0600 
    199 H199       -2.0782  -26.5371  -44.0070 H         1 UNK         0.0600 
    200 H200       -2.7438  -25.0287  -46.1267 H         1 UNK         0.3000 
    201 H201       -5.0667  -26.1626  -47.3830 H         1 UNK         0.0600 
    202 H202       -3.7547  -25.7408  -49.4686 H         1 UNK         0.0600 
    203 H203       -2.7544  -26.4930  -48.2364 H         1 UNK         0.0600 
    204 H204       -2.6037  -24.7664  -48.5621 H         1 UNK         0.0600 
    205 H205       -4.2258  -22.9146  -46.5658 H         1 UNK         0.3000 
    206 H206       -4.9533  -20.8695  -46.9826 H         1 UNK         0.0600 
    207 H207       -7.2521  -21.7184  -46.4400 H         1 UNK         0.0600 
    208 H208       -7.2861  -20.4207  -47.6239 H         1 UNK         0.0600 
    209 H209       -7.5218  -22.0816  -48.1443 H         1 UNK         0.0600 
    210 H210       -3.0843  -21.7098  -48.5357 H         1 UNK         0.3000 
    211 H211       -3.4685  -22.1906  -51.2212 H         1 UNK         0.0600 
    212 H212       -1.0208  -21.7567  -51.4192 H         1 UNK         0.0600 
    213 H213       -1.3896  -22.6754  -49.9771 H         1 UNK         0.0600 
    214 H214       -1.0309  -20.9488  -49.8592 H         1 UNK         0.0600 
    215 H215       -3.2567  -18.9949  -49.7113 H         1 UNK         0.3000 
    216 H216       -2.9121  -17.5148  -52.1811 H         1 UNK         0.0600 
    217 H217       -2.1653  -16.5988  -50.0125 H         1 UNK         0.0600 
    218 H218       -3.8177  -16.6157  -49.3969 H         1 UNK         0.0600 
    219 H219       -3.3773  -15.5461  -50.7229 H         1 UNK         0.0600 
    220 H220       -5.7072  -18.7203  -50.3671 H         1 UNK         0.3000 
    221 H221       -7.6642  -17.1361  -51.8807 H         1 UNK         0.0600 
    222 H222       -8.0480  -19.4370  -49.8901 H         1 UNK         0.0600 
    223 H223       -8.0871  -17.7203  -49.4907 H         1 UNK         0.0600 
    224 H224       -9.3123  -18.4078  -50.5459 H         1 UNK         0.0600 
    225 H225       -6.3917  -20.4650  -51.7408 H         1 UNK         0.3000 
    226 H226       -7.9935  -21.5399  -53.8707 H         1 UNK         0.0600 
    227 H227       -6.8969  -22.9244  -52.0978 H         1 UNK         0.0600 
    228 H228       -6.3922  -23.4394  -53.7012 H         1 UNK         0.0600 
    229 H229       -5.3096  -22.4690  -52.7123 H         1 UNK         0.0600 
    230 H230       -5.1093  -19.6157  -53.8317 H         1 UNK         0.3000 
    231 H231       -3.6837  -18.7766  -55.2795 H         1 UNK         0.0600 
    232 H232       -5.5700  -19.5964  -57.5519 H         1 UNK         0.0600 
    233 H233       -4.2696  -18.4180  -57.6395 H         1 UNK         0.0600 
    234 H234       -5.6763  -18.0905  -56.6404 H         1 UNK         0.0600 
    235 H235       -3.2698  -21.2942  -54.2549 H         1 UNK         0.3000 
    236 H236       -2.6428  -23.3237  -56.1598 H         1 UNK         0.0600 
    237 H237       -1.7709  -23.0017  -53.2403 H         1 UNK         0.0600 
    238 H238       -3.2456  -23.7930  -53.7946 H         1 UNK         0.0600 
    239 H239       -1.6775  -24.4877  -54.1750 H         1 UNK         0.0600 
    240 H240       -0.7773  -20.6374  -54.9642 H         1 UNK         0.3000 
    241 H241        1.7776  -21.6398  -56.0163 H         1 UNK         0.0600 
    242 H242       -0.0138  -19.5766  -58.9070 H         1 UNK         0.3800 
    243 H243       -0.9122  -20.3571  -57.6331 H         1 UNK         0.3800 
    244 H244        2.0033  -20.4935  -53.9424 H         1 UNK         0.0800 
    245 H245        2.7275  -19.4999  -55.1599 H         1 UNK         0.0800 
    246 H246       -0.7730  -18.4270  -52.4322 H         1 UNK         0.0800 
    247 H247       -0.3080  -20.0613  -52.8183 H         1 UNK         0.0800 
@<TRIPOS>BOND
     1    1    2 1    
     2    1  127 1    
     3    1  128 1    
     4    1  129 1    
     5    2    3 2    
     6    2    4 am   BACKBONE|DICT|INTERRES
     7    4    5 1    
     8    4  130 1    
     9    5    6 1    
    10    5   65 1    
    11    5  131 1    
    12    6    7 1    
    13    6  132 1    
    14    6  133 1    
    15    7    8 1    
    16    8    9 1    
    17    8  134 1    
    18    8  135 1    
    19    9   10 ar   
    20    9   14 ar   
    21   10   11 ar   
    22   10  136 1    
    23   11   12 ar   
    24   11  126 1    
    25   12   13 ar   
    26   12  137 1    
    27   13   14 ar   
    28   13   15 1    
    29   14  138 1    
    30   15   16 1    
    31   15  139 1    
    32   15  140 1    
    33   16   17 1    
    34   17   18 1    
    35   17  141 1    
    36   17  142 1    
    37   18   19 1    
    38   18   67 1    
    39   18  143 1    
    40   19   20 am   BACKBONE|DICT|INTERRES
    41   19  144 1    
    42   20   21 2    
    43   20   22 1    
    44   22   23 1    
    45   22   24 1    
    46   22  145 1    
    47   23  146 1    
    48   23  147 1    
    49   23  148 1    
    50   24   25 am   BACKBONE|DICT|INTERRES
    51   24  149 1    
    52   25   26 2    
    53   25   27 1    
    54   27   28 1    
    55   27   29 1    
    56   27  150 1    
    57   28  151 1    
    58   28  152 1    
    59   28  153 1    
    60   29   30 am   BACKBONE|DICT|INTERRES
    61   29  154 1    
    62   30   31 2    
    63   30   32 1    
    64   32   33 1    
    65   32   34 1    
    66   32  155 1    
    67   33  156 1    
    68   33  157 1    
    69   33  158 1    
    70   34   35 am   BACKBONE|DICT|INTERRES
    71   34  159 1    
    72   35   36 2    
    73   35   37 1    
    74   37   38 1    
    75   37   39 1    
    76   37  160 1    
    77   38  161 1    
    78   38  162 1    
    79   38  163 1    
    80   39   40 am   BACKBONE|DICT|INTERRES
    81   39  164 1    
    82   40   41 2    
    83   40   42 1    
    84   42   43 1    
    85   42   44 1    
    86   42  165 1    
    87   43  166 1    
    88   43  167 1    
    89   43  168 1    
    90   44   45 am   BACKBONE|DICT|INTERRES
    91   44  169 1    
    92   45   46 2    
    93   45   47 1    
    94   47   48 1    
    95   47   49 1    
    96   47  170 1    
    97   48  171 1    
    98   48  172 1    
    99   48  173 1    
   100   49   50 am   BACKBONE|DICT|INTERRES
   101   49  174 1    
   102   50   51 2    
   103   50   52 1    
   104   52   53 1    
   105   52   54 1    
   106   52  175 1    
   107   53  176 1    
   108   53  177 1    
   109   53  178 1    
   110   54   55 am   BACKBONE|DICT|INTERRES
   111   54  179 1    
   112   55   56 2    
   113   55   57 1    
   114   57   58 1    
   115   57   59 1    
   116   57  180 1    
   117   58  181 1    
   118   58  182 1    
   119   58  183 1    
   120   59   60 am   BACKBONE|DICT|INTERRES
   121   59  184 1    
   122   60   61 2    
   123   60   62 1    
   124   62   63 1    
   125   62   64 1    
   126   62  185 1    
   127   63  186 1    
   128   63  187 1    
   129   63  188 1    
   130   64   65 am   BACKBONE|DICT|INTERRES
   131   64  189 1    
   132   65   66 2    
   133   67   68 2    
   134   67   69 am   BACKBONE|DICT|INTERRES
   135   69   70 1    
   136   69  190 1    
   137   70   71 1    
   138   70   72 1    
   139   70  191 1    
   140   71  192 1    
   141   71  193 1    
   142   71  194 1    
   143   72   73 2    
   144   72   74 am   BACKBONE|DICT|INTERRES
   145   74   75 1    
   146   74  195 1    
   147   75   76 1    
   148   75   77 1    
   149   75  196 1    
   150   76  197 1    
   151   76  198 1    
   152   76  199 1    
   153   77   78 2    
   154   77   79 am   BACKBONE|DICT|INTERRES
   155   79   80 1    
   156   79  200 1    
   157   80   81 1    
   158   80   82 1    
   159   80  201 1    
   160   81  202 1    
   161   81  203 1    
   162   81  204 1    
   163   82   83 2    
   164   82   84 am   BACKBONE|DICT|INTERRES
   165   84   85 1    
   166   84  205 1    
   167   85   86 1    
   168   85   87 1    
   169   85  206 1    
   170   86  207 1    
   171   86  208 1    
   172   86  209 1    
   173   87   88 2    
   174   87   89 am   BACKBONE|DICT|INTERRES
   175   89   90 1    
   176   89  210 1    
   177   90   91 1    
   178   90   92 1    
   179   90  211 1    
   180   91  212 1    
   181   91  213 1    
   182   91  214 1    
   183   92   93 2    
   184   92   94 am   BACKBONE|DICT|INTERRES
   185   94   95 1    
   186   94  215 1    
   187   95   96 1    
   188   95   97 1    
   189   95  216 1    
   190   96  217 1    
   191   96  218 1    
   192   96  219 1    
   193   97   98 2    
   194   97   99 am   BACKBONE|DICT|INTERRES
   195   99  100 1    
   196   99  220 1    
   197  100  101 1    
   198  100  102 1    
   199  100  221 1    
   200  101  222 1    
   201  101  223 1    
   202  101  224 1    
   203  102  103 2    
   204  102  104 am   BACKBONE|DICT|INTERRES
   205  104  105 1    
   206  104  225 1    
   207  105  106 1    
   208  105  107 1    
   209  105  226 1    
   210  106  227 1    
   211  106  228 1    
   212  106  229 1    
   213  107  108 2    
   214  107  109 am   BACKBONE|DICT|INTERRES
   215  109  110 1    
   216  109  230 1    
   217  110  111 1    
   218  110  112 1    
   219  110  231 1    
   220  111  232 1    
   221  111  233 1    
   222  111  234 1    
   223  112  113 2    
   224  112  114 am   BACKBONE|DICT|INTERRES
   225  114  115 1    
   226  114  235 1    
   227  115  116 1    
   228  115  117 1    
   229  115  236 1    
   230  116  237 1    
   231  116  238 1    
   232  116  239 1    
   233  117  118 2    
   234  117  119 am   BACKBONE|DICT|INTERRES
   235  119  120 1    
   236  119  240 1    
   237  120  121 1    
   238  120  124 1    
   239  120  241 1    
   240  121  122 am   BACKBONE|DICT|INTERRES
   241  121  123 2    
   242  122  242 1    
   243  122  243 1    
   244  124  125 1    
   245  124  244 1    
   246  124  245 1    
   247  125  126 1    
   248  126  246 1    
   249  126  247 1    
@<TRIPOS>SUBSTRUCTURE
     1 UNK         1 GROUP             0       ****    0 ROOT    
