@<TRIPOS>MOLECULE
3R540
247   249    1
SMALL
USER_CHARGES


@<TRIPOS>ATOM
      1 CA          3.7969  -15.0927  -48.6105 C.3       0 UNK        -0.1800 
      2 C           2.6343  -14.6895  -47.7162 C.2       0 UNK         0.5000 
      3 O           2.7318  -14.7871  -46.4941 O.2       0 UNK        -0.5000 
      4 N           1.5375  -14.2168  -48.3211 N.am      1 UNK        -0.5000 
      5 CA          0.2822  -13.8476  -47.6493 C.3       1 UNK         0.1400 
      6 C6         -0.8534  -13.6300  -48.6831 C.3       23 UNK        -0.0398 
      7 S7         -2.5174  -14.0953  -48.0858 S.3       23 UNK        -0.2404 
      8 C8         -2.4108  -15.9019  -47.8322 C.3       23 UNK        -0.0205 
      9 C9         -1.7352  -16.6318  -48.9847 C.ar      23 UNK        -0.0193 
     10 C10        -2.4133  -16.8282  -50.1896 C.ar      23 UNK        -0.1150 
     11 C11        -1.7708  -17.4326  -51.2740 C.ar      23 UNK        -0.0193 
     12 C12        -0.4471  -17.8647  -51.1382 C.ar      23 UNK        -0.1150 
     13 C13         0.2389  -17.6832  -49.9329 C.ar      23 UNK        -0.0193 
     14 C14        -0.4157  -17.0752  -48.8584 C.ar      23 UNK        -0.1150 
     15 C15         1.7087  -18.0669  -49.8172 C.3       23 UNK        -0.0205 
     16 S16         1.9670  -19.8288  -49.4476 S.3       23 UNK        -0.2404 
     17 C17         1.5244  -19.9117  -47.6768 C.3       23 UNK        -0.0398 
     18 CA          0.7603  -21.2024  -47.3017 C.3       11 UNK         0.1400 
     19 N           0.6290  -21.3527  -45.8511 N.am      11 UNK        -0.5000 
     20 C           0.1617  -22.4472  -45.2334 C.2       10 UNK         0.5000 
     21 O          -0.1546  -23.4829  -45.8176 O.2       10 UNK        -0.5000 
     22 CA         -0.0371  -22.3517  -43.7110 C.3       10 UNK         0.1400 
     23 CB          1.2915  -22.5624  -42.9700 C.3       10 UNK        -0.1800 
     24 N          -0.6332  -21.0792  -43.3051 N.am      10 UNK        -0.5000 
     25 C          -1.8527  -20.6582  -43.6685 C.2       9 UNK         0.5000 
     26 O          -2.6316  -21.3246  -44.3479 O.2       9 UNK        -0.5000 
     27 CA         -2.2541  -19.2368  -43.2410 C.3       9 UNK         0.1400 
     28 CB         -2.7540  -19.2184  -41.7888 C.3       9 UNK        -0.1800 
     29 N          -1.1625  -18.2763  -43.3997 N.am      9 UNK        -0.5000 
     30 C          -0.6479  -17.8985  -44.5784 C.2       8 UNK         0.5000 
     31 O          -1.0370  -18.3231  -45.6664 O.2       8 UNK        -0.5000 
     32 CA          0.5285  -16.9066  -44.5198 C.3       8 UNK         0.1400 
     33 CB          0.0228  -15.4922  -44.2011 C.3       8 UNK        -0.1800 
     34 N           1.5337  -17.2834  -43.5267 N.am      8 UNK        -0.5000 
     35 C           2.2230  -18.4334  -43.5299 C.2       7 UNK         0.5000 
     36 O           2.1341  -19.2866  -44.4133 O.2       7 UNK        -0.5000 
     37 CA          3.1117  -18.6978  -42.3015 C.3       7 UNK         0.1400 
     38 CB          4.4357  -17.9287  -42.4169 C.3       7 UNK        -0.1800 
     39 N           2.4479  -18.3407  -41.0453 N.am      7 UNK        -0.5000 
     40 C           1.3182  -18.8889  -40.5783 C.2       6 UNK         0.5000 
     41 O           0.7272  -19.8036  -41.1492 O.2       6 UNK        -0.5000 
     42 CA          0.7018  -18.2906  -39.2973 C.3       6 UNK         0.1400 
     43 CB          1.3113  -18.9223  -38.0314 C.3       6 UNK        -0.1800 
     44 N           0.7275  -16.8206  -39.2526 N.am      6 UNK        -0.5000 
     45 C           1.7886  -16.0120  -39.1400 C.2       5 UNK         0.5000 
     46 O           2.9449  -16.4103  -38.9764 O.2       5 UNK        -0.5000 
     47 CA          1.5105  -14.5028  -39.2672 C.3       5 UNK         0.1400 
     48 CB          1.2260  -13.8875  -37.8888 C.3       5 UNK        -0.1800 
     49 N           2.6427  -13.8063  -39.8772 N.am      5 UNK        -0.5000 
     50 C           3.0756  -14.0030  -41.1287 C.2       4 UNK         0.5000 
     51 O           2.4955  -14.7077  -41.9618 O.2       4 UNK        -0.5000 
     52 CA          4.4073  -13.3320  -41.4840 C.3       4 UNK         0.1400 
     53 CB          5.5881  -14.1944  -40.9926 C.3       4 UNK        -0.1800 
     54 N           4.4765  -13.1357  -42.9275 N.am      4 UNK        -0.5000 
     55 C           5.3823  -12.3864  -43.5659 C.2       3 UNK         0.5000 
     56 O           6.2803  -11.7604  -43.0008 O.2       3 UNK        -0.5000 
     57 CA          5.2539  -12.3096  -45.0958 C.3       3 UNK         0.1400 
     58 CB          5.7960  -13.5893  -45.7505 C.3       3 UNK        -0.1800 
     59 N           3.8770  -12.0606  -45.5333 N.am      3 UNK        -0.5000 
     60 C           3.2602  -10.8734  -45.4057 C.2       2 UNK         0.5000 
     61 O           3.7952   -9.8926  -44.8863 O.2       2 UNK        -0.5000 
     62 CA          1.8278  -10.7335  -45.9612 C.3       2 UNK         0.1400 
     63 CB          1.6450   -9.4210  -46.7449 C.3       2 UNK        -0.1800 
     64 N           1.4721  -11.8508  -46.8352 N.am      2 UNK        -0.5000 
     65 C           0.4146  -12.6550  -46.6720 C.2       1 UNK         0.5000 
     66 O          -0.4251  -12.5020  -45.7849 O.2       1 UNK        -0.5000 
     67 C          -0.6077  -21.3059  -48.0076 C.2       11 UNK         0.5000 
     68 O          -0.7358  -22.0825  -48.9538 O.2       11 UNK        -0.5000 
     69 N          -1.6134  -20.5763  -47.5023 N.am      12 UNK        -0.5000 
     70 CA         -2.9876  -20.6186  -48.0034 C.3       12 UNK         0.1400 
     71 CB         -3.8385  -19.5730  -47.2710 C.3       12 UNK        -0.1800 
     72 C          -3.6245  -22.0148  -47.8846 C.2       12 UNK         0.5000 
     73 O          -4.2548  -22.4721  -48.8361 O.2       12 UNK        -0.5000 
     74 N          -3.4263  -22.6786  -46.7370 N.am      13 UNK        -0.5000 
     75 CA         -3.8796  -24.0445  -46.4756 C.3       13 UNK         0.1400 
     76 CB         -3.6213  -24.4075  -45.0057 C.3       13 UNK        -0.1800 
     77 C          -3.2341  -25.0742  -47.4192 C.2       13 UNK         0.5000 
     78 O          -3.9496  -25.9037  -47.9827 O.2       13 UNK        -0.5000 
     79 N          -1.9079  -24.9780  -47.6005 N.am      14 UNK        -0.5000 
     80 CA         -1.1277  -25.8061  -48.5225 C.3       14 UNK         0.1400 
     81 CB          0.3704  -25.5221  -48.3368 C.3       14 UNK        -0.1800 
     82 C          -1.5447  -25.6101  -49.9907 C.2       14 UNK         0.5000 
     83 O          -1.6843  -26.5927  -50.7207 O.2       14 UNK        -0.5000 
     84 N          -1.8025  -24.3562  -50.3823 N.am      15 UNK        -0.5000 
     85 CA         -2.3650  -23.9653  -51.6736 C.3       15 UNK         0.1400 
     86 CB         -1.9859  -22.5028  -51.9628 C.3       15 UNK        -0.1800 
     87 C          -3.8888  -24.2052  -51.7310 C.2       15 UNK         0.5000 
     88 O          -4.6493  -23.2770  -51.9963 O.2       15 UNK        -0.5000 
     89 N          -4.3075  -25.4524  -51.4723 N.am      16 UNK        -0.5000 
     90 CA         -5.6612  -25.9981  -51.6296 C.3       16 UNK         0.1400 
     91 CB         -5.9395  -26.2313  -53.1289 C.3       16 UNK        -0.1800 
     92 C          -6.7843  -25.1909  -50.9358 C.2       16 UNK         0.5000 
     93 O          -7.8973  -25.1246  -51.4601 O.2       16 UNK        -0.5000 
     94 N          -6.4723  -24.5986  -49.7729 N.am      17 UNK        -0.5000 
     95 CA         -7.3199  -23.6861  -48.9957 C.3       17 UNK         0.1400 
     96 CB         -8.5581  -24.4153  -48.4325 C.3       17 UNK        -0.1800 
     97 C          -7.6634  -22.4050  -49.7876 C.2       17 UNK         0.5000 
     98 O          -8.8370  -22.0906  -49.9952 O.2       17 UNK        -0.5000 
     99 N          -6.6052  -21.7010  -50.2101 N.am      18 UNK        -0.5000 
    100 CA        -6.5896  -20.4762  -51.0128 C.3       18 UNK         0.1400 
    101 CB        -7.2127  -19.2972  -50.2371 C.3       18 UNK        -0.1800 
    102 C         -7.1966  -20.6788  -52.4164 C.2       18 UNK         0.5000 
    103 O         -8.0706  -19.9189  -52.8392 O.2       18 UNK        -0.5000 
    104 N         -6.7030  -21.7020  -53.1172 N.am      19 UNK        -0.5000 
    105 CA        -7.0273  -22.0384  -54.4994 C.3       19 UNK         0.1400 
    106 CB        -8.1898  -23.0495  -54.5239 C.3       19 UNK        -0.1800 
    107 C         -5.7489  -22.5480  -55.1904 C.2       19 UNK         0.5000 
    108 O         -4.6496  -22.2475  -54.7215 O.2       19 UNK        -0.5000 
    109 N         -5.8950  -23.2925  -56.2970 N.am      20 UNK        -0.5000 
    110 CA        -4.8220  -23.9312  -57.0721 C.3       20 UNK         0.1400 
    111 CB        -4.2760  -25.1566  -56.3040 C.3       20 UNK        -0.1800 
    112 C         -3.7261  -22.9268  -57.4924 C.2       20 UNK         0.5000 
    113 O         -3.9564  -22.1296  -58.4033 O.2       20 UNK        -0.5000 
    114 N         -2.5861  -22.9422  -56.7867 N.am      21 UNK        -0.5000 
    115 CA        -1.4703  -22.0029  -56.9244 C.3       21 UNK         0.1400 
    116 CB        -0.3414  -22.4340  -55.9753 C.3       21 UNK        -0.1800 
    117 C         -1.8496  -20.5281  -56.6720 C.2       21 UNK         0.5000 
    118 O         -1.2109  -19.6409  -57.2398 O.2       21 UNK        -0.5000 
    119 N         -2.8873  -20.2902  -55.8588 N.am      22 UNK        -0.5000 
    120 CA        -3.5004  -18.9687  -55.6539 C.3       22 UNK         0.1400 
    121 C         -4.4100  -18.4995  -56.8303 C.2       22 UNK         0.5000 
    122 N         -4.7014  -19.3175  -57.8359 N.am      22 UNK        -0.7600 
    123 O         -4.8582  -17.3563  -56.8359 O.2       22 UNK        -0.5000 
    124 C124       -4.2662  -18.8781  -54.3078 C.3       23 UNK        -0.0398 
    125 S125       -3.2281  -19.1963  -52.8414 S.3       23 UNK        -0.2404 
    126 C126       -2.4888  -17.5533  -52.6085 C.3       23 UNK        -0.0205 
    127 H127        3.4639  -15.3093  -49.6257 H         1 UNK         0.0600 
    128 H128        4.2850  -15.9845  -48.2170 H         1 UNK         0.0600 
    129 H129        4.5323  -14.2907  -48.6581 H         1 UNK         0.0600 
    130 H130        1.5328  -14.1374  -49.3283 H         1 UNK         0.3000 
    131 H131        0.0245  -14.7076  -47.0324 H         1 UNK         0.0600 
    132 H132       -0.6674  -14.2090  -49.5885 H         1 UNK         0.0800 
    133 H133       -0.8829  -12.5921  -49.0197 H         1 UNK         0.0800 
    134 H134       -3.4227  -16.2862  -47.7025 H         1 UNK         0.0800 
    135 H135       -1.8926  -16.1034  -46.8953 H         1 UNK         0.0800 
    136 H136       -3.4301  -16.4762  -50.2927 H         1 UNK         0.1150 
    137 H137        0.0570  -18.3195  -51.9794 H         1 UNK         0.1150 
    138 H138        0.1139  -16.9154  -47.9308 H         1 UNK         0.1150 
    139 H139        2.2164  -17.8296  -50.7532 H         1 UNK         0.0800 
    140 H140        2.1997  -17.4694  -49.0492 H         1 UNK         0.0800 
    141 H141        0.9501  -19.0336  -47.3850 H         1 UNK         0.0800 
    142 H142        2.4549  -19.8583  -47.1100 H         1 UNK         0.0800 
    143 H143        1.3607  -22.0480  -47.6446 H         1 UNK         0.0600 
    144 H144        0.9093  -20.5566  -45.2859 H         1 UNK         0.3000 
    145 H145       -0.7215  -23.1489  -43.4140 H         1 UNK         0.0600 
    146 H146        1.1432  -22.5670  -41.8900 H         1 UNK         0.0600 
    147 H147        1.7426  -23.5176  -43.2412 H         1 UNK         0.0600 
    148 H148        2.0128  -21.7793  -43.2042 H         1 UNK         0.0600 
    149 H149       -0.0752  -20.4920  -42.6902 H         1 UNK         0.3000 
    150 H150       -3.0759  -18.9172  -43.8853 H         1 UNK         0.0600 
    151 H151       -3.5998  -19.8953  -41.6618 H         1 UNK         0.0600 
    152 H152       -3.0894  -18.2226  -41.4989 H         1 UNK         0.0600 
    153 H153       -1.9793  -19.5301  -41.0882 H         1 UNK         0.0600 
    154 H154       -0.7514  -17.9104  -42.5551 H         1 UNK         0.3000 
    155 H155        1.0068  -16.8933  -45.5012 H         1 UNK         0.0600 
    156 H156       -0.3488  -15.4157  -43.1787 H         1 UNK         0.0600 
    157 H157       -0.7920  -15.2011  -44.8641 H         1 UNK         0.0600 
    158 H158        0.8196  -14.7575  -44.3190 H         1 UNK         0.0600 
    159 H159        1.7164  -16.6108  -42.7912 H         1 UNK         0.3000 
    160 H160        3.3341  -19.7662  -42.2703 H         1 UNK         0.0600 
    161 H161        5.0882  -18.1330  -41.5679 H         1 UNK         0.0600 
    162 H162        4.2700  -16.8522  -42.4624 H         1 UNK         0.0600 
    163 H163        4.9755  -18.2154  -43.3202 H         1 UNK         0.0600 
    164 H164        2.8667  -17.5986  -40.4926 H         1 UNK         0.3000 
    165 H165       -0.3555  -18.5598  -39.3103 H         1 UNK         0.0600 
    166 H166        0.8499  -18.5212  -37.1291 H         1 UNK         0.0600 
    167 H167        1.1532  -20.0015  -38.0252 H         1 UNK         0.0600 
    168 H168        2.3862  -18.7546  -37.9628 H         1 UNK         0.0600 
    169 H169       -0.1744  -16.3846  -39.3876 H         1 UNK         0.3000 
    170 H170        0.6376  -14.3559  -39.9069 H         1 UNK         0.0600 
    171 H171        0.3676  -14.3663  -37.4159 H         1 UNK         0.0600 
    172 H172        2.0763  -13.9998  -37.2147 H         1 UNK         0.0600 
    173 H173        0.9994  -12.8242  -37.9699 H         1 UNK         0.0600 
    174 H174        3.2030  -13.2440  -39.2537 H         1 UNK         0.3000 
    175 H175        4.4407  -12.3551  -40.9971 H         1 UNK         0.0600 
    176 H176        5.6431  -15.1420  -41.5282 H         1 UNK         0.0600 
    177 H177        6.5414  -13.6831  -41.1237 H         1 UNK         0.0600 
    178 H178        5.4942  -14.4246  -39.9305 H         1 UNK         0.0600 
    179 H179        3.7513  -13.6115  -43.4500 H         1 UNK         0.3000 
    180 H180        5.8753  -11.4787  -45.4373 H         1 UNK         0.0600 
    181 H181        5.2026  -14.4652  -45.4865 H         1 UNK         0.0600 
    182 H182        6.8216  -13.7836  -45.4342 H         1 UNK         0.0600 
    183 H183        5.8068  -13.4999  -46.8358 H         1 UNK         0.0600 
    184 H184        3.3665  -12.8525  -45.9063 H         1 UNK         0.3000 
    185 H185        1.1698  -10.7030  -45.0906 H         1 UNK         0.0600 
    186 H186        1.8415   -8.5526  -46.1150 H         1 UNK         0.0600 
    187 H187        2.3187   -9.3676  -47.6008 H         1 UNK         0.0600 
    188 H188        0.6243   -9.3240  -47.1154 H         1 UNK         0.0600 
    189 H189        2.1107  -12.0470  -47.5930 H         1 UNK         0.3000 
    190 H190       -1.4260  -19.9363  -46.7361 H         1 UNK         0.3000 
    191 H191       -2.9592  -20.3525  -49.0626 H         1 UNK         0.0600 
    192 H192       -3.9101  -19.7833  -46.2039 H         1 UNK         0.0600 
    193 H193       -4.8523  -19.5448  -47.6710 H         1 UNK         0.0600 
    194 H194       -3.4134  -18.5782  -47.3845 H         1 UNK         0.0600 
    195 H195       -2.9417  -22.2076  -45.9767 H         1 UNK         0.3000 
    196 H196       -4.9577  -24.0730  -46.6419 H         1 UNK         0.0600 
    197 H197       -3.9647  -25.4192  -44.7866 H         1 UNK         0.0600 
    198 H198       -4.1516  -23.7315  -44.3348 H         1 UNK         0.0600 
    199 H199       -2.5608  -24.3590  -44.7580 H         1 UNK         0.0600 
    200 H200       -1.3891  -24.2818  -47.0715 H         1 UNK         0.3000 
    201 H201       -1.3096  -26.8510  -48.2634 H         1 UNK         0.0600 
    202 H202        0.6897  -25.7453  -47.3187 H         1 UNK         0.0600 
    203 H203        0.6110  -24.4783  -48.5407 H         1 UNK         0.0600 
    204 H204        0.9714  -26.1362  -49.0084 H         1 UNK         0.0600 
    205 H205       -1.6350  -23.5976  -49.7258 H         1 UNK         0.3000 
    206 H206       -1.9142  -24.5805  -52.4547 H         1 UNK         0.0600 
    207 H207       -2.3480  -22.1916  -52.9436 H         1 UNK         0.0600 
    208 H208       -2.4161  -21.8251  -51.2241 H         1 UNK         0.0600 
    209 H209       -0.9050  -22.3625  -51.9546 H         1 UNK         0.0600 
    210 H210       -3.5925  -26.1228  -51.2098 H         1 UNK         0.3000 
    211 H211       -5.6532  -26.9730  -51.1404 H         1 UNK         0.0600 
    212 H212       -5.9524  -25.2922  -53.6816 H         1 UNK         0.0600 
    213 H213       -6.9006  -26.7220  -53.2863 H         1 UNK         0.0600 
    214 H214       -5.1769  -26.8689  -53.5760 H         1 UNK         0.0600 
    215 H215       -5.5173  -24.6881  -49.4490 H         1 UNK         0.3000 
    216 H216       -6.7245  -23.3654  -48.1407 H         1 UNK         0.0600 
    217 H217       -9.1205  -23.7621  -47.7645 H         1 UNK         0.0600 
    218 H218       -8.2688  -25.2954  -47.8584 H         1 UNK         0.0600 
    219 H219       -9.2397  -24.7373  -49.2200 H         1 UNK         0.0600 
    220 H220       -5.6859  -22.0790  -49.9875 H         1 UNK         0.3000 
    221 H221       -5.5363  -20.2402  -51.1690 H         1 UNK         0.0600 
    222 H222       -8.2806  -19.4390  -50.0694 H         1 UNK         0.0600 
    223 H223       -6.7348  -19.1670  -49.2666 H         1 UNK         0.0600 
    224 H224       -7.0892  -18.3634  -50.7867 H         1 UNK         0.0600 
    225 H225       -5.9348  -22.2460  -52.7184 H         1 UNK         0.3000 
    226 H226       -7.3309  -21.1351  -55.0321 H         1 UNK         0.0600 
    227 H227       -8.5272  -23.2505  -55.5408 H         1 UNK         0.0600 
    228 H228       -7.9064  -23.9993  -54.0709 H         1 UNK         0.0600 
    229 H229       -9.0503  -22.6684  -53.9736 H         1 UNK         0.0600 
    230 H230       -6.8305  -23.4546  -56.6411 H         1 UNK         0.3000 
    231 H231       -5.2736  -24.2954  -57.9961 H         1 UNK         0.0600 
    232 H232       -5.0602  -25.8989  -56.1558 H         1 UNK         0.0600 
    233 H233       -3.8881  -24.8919  -55.3196 H         1 UNK         0.0600 
    234 H234       -3.4748  -25.6458  -56.8595 H         1 UNK         0.0600 
    235 H235       -2.5211  -23.5987  -56.0233 H         1 UNK         0.3000 
    236 H236       -1.1045  -22.0751  -57.9505 H         1 UNK         0.0600 
    237 H237        0.5226  -21.7749  -56.0706 H         1 UNK         0.0600 
    238 H238       -0.6613  -22.4063  -54.9328 H         1 UNK         0.0600 
    239 H239       -0.0025  -23.4461  -56.1970 H         1 UNK         0.0600 
    240 H240       -3.3704  -21.0742  -55.4253 H         1 UNK         0.3000 
    241 H241       -2.6912  -18.2379  -55.6092 H         1 UNK         0.0600 
    242 H242       -4.3336  -20.2619  -57.8812 H         1 UNK         0.3800 
    243 H243       -5.2856  -18.9814  -58.5849 H         1 UNK         0.3800 
    244 H244       -4.7320  -17.8983  -54.1894 H         1 UNK         0.0800 
    245 H245       -5.0868  -19.5944  -54.3001 H         1 UNK         0.0800 
    246 H246       -1.7894  -17.3552  -53.4219 H         1 UNK         0.0800 
    247 H247       -3.2645  -16.7892  -52.6789 H         1 UNK         0.0800 
@<TRIPOS>BOND
     1    1    2 1    
     2    1  127 1    
     3    1  128 1    
     4    1  129 1    
     5    2    3 2    
     6    2    4 am   BACKBONE|DICT|INTERRES
     7    4    5 1    
     8    4  130 1    
     9    5    6 1    
    10    5   65 1    
    11    5  131 1    
    12    6    7 1    
    13    6  132 1    
    14    6  133 1    
    15    7    8 1    
    16    8    9 1    
    17    8  134 1    
    18    8  135 1    
    19    9   10 ar   
    20    9   14 ar   
    21   10   11 ar   
    22   10  136 1    
    23   11   12 ar   
    24   11  126 1    
    25   12   13 ar   
    26   12  137 1    
    27   13   14 ar   
    28   13   15 1    
    29   14  138 1    
    30   15   16 1    
    31   15  139 1    
    32   15  140 1    
    33   16   17 1    
    34   17   18 1    
    35   17  141 1    
    36   17  142 1    
    37   18   19 1    
    38   18   67 1    
    39   18  143 1    
    40   19   20 am   BACKBONE|DICT|INTERRES
    41   19  144 1    
    42   20   21 2    
    43   20   22 1    
    44   22   23 1    
    45   22   24 1    
    46   22  145 1    
    47   23  146 1    
    48   23  147 1    
    49   23  148 1    
    50   24   25 am   BACKBONE|DICT|INTERRES
    51   24  149 1    
    52   25   26 2    
    53   25   27 1    
    54   27   28 1    
    55   27   29 1    
    56   27  150 1    
    57   28  151 1    
    58   28  152 1    
    59   28  153 1    
    60   29   30 am   BACKBONE|DICT|INTERRES
    61   29  154 1    
    62   30   31 2    
    63   30   32 1    
    64   32   33 1    
    65   32   34 1    
    66   32  155 1    
    67   33  156 1    
    68   33  157 1    
    69   33  158 1    
    70   34   35 am   BACKBONE|DICT|INTERRES
    71   34  159 1    
    72   35   36 2    
    73   35   37 1    
    74   37   38 1    
    75   37   39 1    
    76   37  160 1    
    77   38  161 1    
    78   38  162 1    
    79   38  163 1    
    80   39   40 am   BACKBONE|DICT|INTERRES
    81   39  164 1    
    82   40   41 2    
    83   40   42 1    
    84   42   43 1    
    85   42   44 1    
    86   42  165 1    
    87   43  166 1    
    88   43  167 1    
    89   43  168 1    
    90   44   45 am   BACKBONE|DICT|INTERRES
    91   44  169 1    
    92   45   46 2    
    93   45   47 1    
    94   47   48 1    
    95   47   49 1    
    96   47  170 1    
    97   48  171 1    
    98   48  172 1    
    99   48  173 1    
   100   49   50 am   BACKBONE|DICT|INTERRES
   101   49  174 1    
   102   50   51 2    
   103   50   52 1    
   104   52   53 1    
   105   52   54 1    
   106   52  175 1    
   107   53  176 1    
   108   53  177 1    
   109   53  178 1    
   110   54   55 am   BACKBONE|DICT|INTERRES
   111   54  179 1    
   112   55   56 2    
   113   55   57 1    
   114   57   58 1    
   115   57   59 1    
   116   57  180 1    
   117   58  181 1    
   118   58  182 1    
   119   58  183 1    
   120   59   60 am   BACKBONE|DICT|INTERRES
   121   59  184 1    
   122   60   61 2    
   123   60   62 1    
   124   62   63 1    
   125   62   64 1    
   126   62  185 1    
   127   63  186 1    
   128   63  187 1    
   129   63  188 1    
   130   64   65 am   BACKBONE|DICT|INTERRES
   131   64  189 1    
   132   65   66 2    
   133   67   68 2    
   134   67   69 am   BACKBONE|DICT|INTERRES
   135   69   70 1    
   136   69  190 1    
   137   70   71 1    
   138   70   72 1    
   139   70  191 1    
   140   71  192 1    
   141   71  193 1    
   142   71  194 1    
   143   72   73 2    
   144   72   74 am   BACKBONE|DICT|INTERRES
   145   74   75 1    
   146   74  195 1    
   147   75   76 1    
   148   75   77 1    
   149   75  196 1    
   150   76  197 1    
   151   76  198 1    
   152   76  199 1    
   153   77   78 2    
   154   77   79 am   BACKBONE|DICT|INTERRES
   155   79   80 1    
   156   79  200 1    
   157   80   81 1    
   158   80   82 1    
   159   80  201 1    
   160   81  202 1    
   161   81  203 1    
   162   81  204 1    
   163   82   83 2    
   164   82   84 am   BACKBONE|DICT|INTERRES
   165   84   85 1    
   166   84  205 1    
   167   85   86 1    
   168   85   87 1    
   169   85  206 1    
   170   86  207 1    
   171   86  208 1    
   172   86  209 1    
   173   87   88 2    
   174   87   89 am   BACKBONE|DICT|INTERRES
   175   89   90 1    
   176   89  210 1    
   177   90   91 1    
   178   90   92 1    
   179   90  211 1    
   180   91  212 1    
   181   91  213 1    
   182   91  214 1    
   183   92   93 2    
   184   92   94 am   BACKBONE|DICT|INTERRES
   185   94   95 1    
   186   94  215 1    
   187   95   96 1    
   188   95   97 1    
   189   95  216 1    
   190   96  217 1    
   191   96  218 1    
   192   96  219 1    
   193   97   98 2    
   194   97   99 am   BACKBONE|DICT|INTERRES
   195   99  100 1    
   196   99  220 1    
   197  100  101 1    
   198  100  102 1    
   199  100  221 1    
   200  101  222 1    
   201  101  223 1    
   202  101  224 1    
   203  102  103 2    
   204  102  104 am   BACKBONE|DICT|INTERRES
   205  104  105 1    
   206  104  225 1    
   207  105  106 1    
   208  105  107 1    
   209  105  226 1    
   210  106  227 1    
   211  106  228 1    
   212  106  229 1    
   213  107  108 2    
   214  107  109 am   BACKBONE|DICT|INTERRES
   215  109  110 1    
   216  109  230 1    
   217  110  111 1    
   218  110  112 1    
   219  110  231 1    
   220  111  232 1    
   221  111  233 1    
   222  111  234 1    
   223  112  113 2    
   224  112  114 am   BACKBONE|DICT|INTERRES
   225  114  115 1    
   226  114  235 1    
   227  115  116 1    
   228  115  117 1    
   229  115  236 1    
   230  116  237 1    
   231  116  238 1    
   232  116  239 1    
   233  117  118 2    
   234  117  119 am   BACKBONE|DICT|INTERRES
   235  119  120 1    
   236  119  240 1    
   237  120  121 1    
   238  120  124 1    
   239  120  241 1    
   240  121  122 am   BACKBONE|DICT|INTERRES
   241  121  123 2    
   242  122  242 1    
   243  122  243 1    
   244  124  125 1    
   245  124  244 1    
   246  124  245 1    
   247  125  126 1    
   248  126  246 1    
   249  126  247 1    
@<TRIPOS>SUBSTRUCTURE
     1 UNK         1 GROUP             0       ****    0 ROOT    
