@<TRIPOS>MOLECULE
3R540
247   249    1
SMALL
USER_CHARGES


@<TRIPOS>ATOM
      1 CA         -4.5854  -15.2574  -45.8398 C.3       0 UNK        -0.1800 
      2 C          -3.5258  -14.5472  -46.6703 C.2       0 UNK         0.5000 
      3 O          -3.7016  -13.3822  -47.0264 O.2       0 UNK        -0.5000 
      4 N          -2.4260  -15.2456  -46.9764 N.am      1 UNK        -0.5000 
      5 CA         -1.3088  -14.7479  -47.7942 C.3       1 UNK         0.1400 
      6 C6         -0.5564  -15.9045  -48.4976 C.3       23 UNK        -0.0398 
      7 S7         -1.6632  -16.8484  -49.6014 S.3       23 UNK        -0.2404 
      8 C8         -1.0977  -16.3450  -51.2619 C.3       23 UNK        -0.0205 
      9 C9         -0.0849  -17.3110  -51.8693 C.ar      23 UNK        -0.0193 
     10 C10        -0.1983  -17.6876  -53.2121 C.ar      23 UNK        -0.1150 
     11 C11         0.7184  -18.5759  -53.7843 C.ar      23 UNK        -0.0193 
     12 C12         1.7456  -19.1044  -52.9967 C.ar      23 UNK        -0.1150 
     13 C13         1.8557  -18.7553  -51.6494 C.ar      23 UNK        -0.0193 
     14 C14         0.9620  -17.8334  -51.1040 C.ar      23 UNK        -0.1150 
     15 C15         2.9129  -19.3992  -50.7674 C.3       23 UNK        -0.0205 
     16 S16         2.3083  -20.9604  -50.0472 S.3       23 UNK        -0.2404 
     17 C17         0.9651  -20.3660  -48.9590 C.3       23 UNK        -0.0398 
     18 CA          0.4551  -21.4585  -47.9893 C.3       11 UNK         0.1400 
     19 N           1.5321  -21.9757  -47.1332 N.am      11 UNK        -0.5000 
     20 C           1.5213  -23.1395  -46.4719 C.2       10 UNK         0.5000 
     21 O           0.5551  -23.9018  -46.4698 O.2       10 UNK        -0.5000 
     22 CA          2.7744  -23.5027  -45.6455 C.3       10 UNK         0.1400 
     23 CB          3.4470  -24.7549  -46.2293 C.3       10 UNK        -0.1800 
     24 N           3.7797  -22.4334  -45.5715 N.am      10 UNK        -0.5000 
     25 C           3.7869  -21.3396  -44.7929 C.2       9 UNK         0.5000 
     26 O           4.7338  -20.5533  -44.8167 O.2       9 UNK        -0.5000 
     27 CA          2.6128  -21.0687  -43.8204 C.3       9 UNK         0.1400 
     28 CB          2.9559  -21.5932  -42.4176 C.3       9 UNK        -0.1800 
     29 N           2.2469  -19.6532  -43.7223 N.am      9 UNK        -0.5000 
     30 C           1.9386  -18.8391  -44.7432 C.2       8 UNK         0.5000 
     31 O           1.9222  -19.1941  -45.9203 O.2       8 UNK        -0.5000 
     32 CA          1.5470  -17.3896  -44.4027 C.3       8 UNK         0.1400 
     33 CB          0.0170  -17.2479  -44.3557 C.3       8 UNK        -0.1800 
     34 N           2.1172  -16.9118  -43.1426 N.am      8 UNK        -0.5000 
     35 C           3.4060  -16.5853  -42.9665 C.2       7 UNK         0.5000 
     36 O           4.2565  -16.6502  -43.8541 O.2       7 UNK        -0.5000 
     37 CA          3.8151  -16.1059  -41.5623 C.3       7 UNK         0.1400 
     38 CB          3.5910  -14.5929  -41.4082 C.3       7 UNK        -0.1800 
     39 N           3.0799  -16.8130  -40.5153 N.am      7 UNK        -0.5000 
     40 C           3.4236  -18.0150  -40.0320 C.2       6 UNK         0.5000 
     41 O           4.4402  -18.6227  -40.3677 O.2       6 UNK        -0.5000 
     42 CA          2.4641  -18.6551  -39.0090 C.3       6 UNK         0.1400 
     43 CB          2.8832  -18.2897  -37.5771 C.3       6 UNK        -0.1800 
     44 N           1.0649  -18.2724  -39.2094 N.am      6 UNK        -0.5000 
     45 C           0.3299  -18.6121  -40.2774 C.2       5 UNK         0.5000 
     46 O           0.7500  -19.3064  -41.1998 O.2       5 UNK        -0.5000 
     47 CA         -1.0913  -18.0258  -40.3567 C.3       5 UNK         0.1400 
     48 CB         -2.0951  -18.9453  -39.6466 C.3       5 UNK        -0.1800 
     49 N          -1.1884  -16.6716  -39.8031 N.am      5 UNK        -0.5000 
     50 C          -0.5297  -15.6074  -40.2797 C.2       4 UNK         0.5000 
     51 O           0.2538  -15.6545  -41.2324 O.2       4 UNK        -0.5000 
     52 CA         -0.7333  -14.2867  -39.5312 C.3       4 UNK         0.1400 
     53 CB          0.2782  -14.1566  -38.3802 C.3       4 UNK        -0.1800 
     54 N          -0.5461  -13.1856  -40.4675 N.am      4 UNK        -0.5000 
     55 C          -1.2373  -12.0407  -40.4654 C.2       3 UNK         0.5000 
     56 O          -2.0854  -11.7609  -39.6165 O.2       3 UNK        -0.5000 
     57 CA         -0.9389  -11.0246  -41.5887 C.3       3 UNK         0.1400 
     58 CB         -0.1352   -9.8374  -41.0344 C.3       3 UNK        -0.1800 
     59 N          -0.2204  -11.5764  -42.7421 N.am      3 UNK        -0.5000 
     60 C          -0.7221  -12.4580  -43.6156 C.2       2 UNK         0.5000 
     61 O          -1.8516  -12.9480  -43.5263 O.2       2 UNK        -0.5000 
     62 CA          0.2045  -12.8624  -44.7729 C.3       2 UNK         0.1400 
     63 CB          1.4602  -13.5896  -44.2618 C.3       2 UNK        -0.1800 
     64 N          -0.5363  -13.7290  -45.6815 N.am      2 UNK        -0.5000 
     65 C          -0.3320  -13.8514  -46.9975 C.2       1 UNK         0.5000 
     66 O           0.5843  -13.2829  -47.5931 O.2       1 UNK        -0.5000 
     67 C          -0.7876  -20.9703  -47.2036 C.2       11 UNK         0.5000 
     68 O          -1.7680  -20.5583  -47.8211 O.2       11 UNK        -0.5000 
     69 N          -0.7632  -21.0570  -45.8659 N.am      12 UNK        -0.5000 
     70 CA         -1.8669  -20.7324  -44.9568 C.3       12 UNK         0.1400 
     71 CB         -1.3679  -20.8672  -43.5106 C.3       12 UNK        -0.1800 
     72 C          -3.1359  -21.5880  -45.1598 C.2       12 UNK         0.5000 
     73 O          -4.2071  -21.1867  -44.7041 O.2       12 UNK        -0.5000 
     74 N          -3.0007  -22.7373  -45.8375 N.am      13 UNK        -0.5000 
     75 CA         -4.0732  -23.6445  -46.2440 C.3       13 UNK         0.1400 
     76 CB         -3.4366  -24.9374  -46.7827 C.3       13 UNK        -0.1800 
     77 C          -5.0218  -22.9947  -47.2742 C.2       13 UNK         0.5000 
     78 O          -4.8700  -23.2050  -48.4800 O.2       13 UNK        -0.5000 
     79 N          -5.9627  -22.1846  -46.7690 N.am      14 UNK        -0.5000 
     80 CA         -6.9981  -21.4486  -47.5030 C.3       14 UNK         0.1400 
     81 CB         -8.0463  -22.4270  -48.0731 C.3       14 UNK        -0.1800 
     82 C          -6.4217  -20.4920  -48.5680 C.2       14 UNK         0.5000 
     83 O          -6.9751  -20.3862  -49.6630 O.2       14 UNK        -0.5000 
     84 N          -5.2987  -19.8382  -48.2313 N.am      15 UNK        -0.5000 
     85 CA         -4.5034  -18.9559  -49.0939 C.3       15 UNK         0.1400 
     86 CB         -5.2728  -17.6509  -49.3919 C.3       15 UNK        -0.1800 
     87 C          -4.0253  -19.6846  -50.3684 C.2       15 UNK         0.5000 
     88 O          -4.3127  -19.2464  -51.4828 O.2       15 UNK        -0.5000 
     89 N          -3.3677  -20.8344  -50.1612 N.am      16 UNK        -0.5000 
     90 CA         -2.9455  -21.8199  -51.1608 C.3       16 UNK         0.1400 
     91 CB         -1.7658  -21.2799  -51.9962 C.3       16 UNK        -0.1800 
     92 C          -4.1232  -22.3171  -52.0249 C.2       16 UNK         0.5000 
     93 O          -4.0091  -22.3751  -53.2505 O.2       16 UNK        -0.5000 
     94 N          -5.2475  -22.6360  -51.3673 N.am      17 UNK        -0.5000 
     95 CA         -6.5378  -23.0091  -51.9610 C.3       17 UNK         0.1400 
     96 CB         -6.4511  -24.4154  -52.5891 C.3       17 UNK        -0.1800 
     97 C          -7.0686  -21.9411  -52.9446 C.2       17 UNK         0.5000 
     98 O          -7.4692  -22.2721  -54.0608 O.2       17 UNK        -0.5000 
     99 N          -7.0255  -20.6737  -52.5099 N.am      18 UNK        -0.5000 
    100 CA        -7.2977  -19.4562  -53.2805 C.3       18 UNK         0.1400 
    101 CB        -8.7879  -19.3713  -53.6718 C.3       18 UNK        -0.1800 
    102 C         -6.3359  -19.2971  -54.4792 C.2       18 UNK         0.5000 
    103 O         -6.7763  -19.0592  -55.6058 O.2       18 UNK        -0.5000 
    104 N         -5.0336  -19.4375  -54.1927 N.am      19 UNK        -0.5000 
    105 CA        -3.8907  -19.3639  -55.1070 C.3       19 UNK         0.1400 
    106 CB        -3.6592  -17.9089  -55.5620 C.3       19 UNK        -0.1800 
    107 C         -3.9803  -20.3654  -56.2790 C.2       19 UNK         0.5000 
    108 O         -3.7832  -19.9863  -57.4357 O.2       19 UNK        -0.5000 
    109 N         -4.2874  -21.6260  -55.9517 N.am      20 UNK        -0.5000 
    110 CA        -4.4233  -22.7316  -56.8998 C.3       20 UNK         0.1400 
    111 CB        -5.8736  -23.2364  -56.8926 C.3       20 UNK        -0.1800 
    112 C         -3.4572  -23.8797  -56.5720 C.2       20 UNK         0.5000 
    113 O         -2.8738  -24.4547  -57.4921 O.2       20 UNK        -0.5000 
    114 N         -3.2710  -24.1859  -55.2785 N.am      21 UNK        -0.5000 
    115 CA        -2.3948  -25.2614  -54.7974 C.3       21 UNK         0.1400 
    116 CB        -2.6609  -25.5107  -53.3048 C.3       21 UNK        -0.1800 
    117 C         -0.9015  -24.9698  -55.0341 C.2       21 UNK         0.5000 
    118 O         -0.1037  -25.9021  -55.1374 O.2       21 UNK        -0.5000 
    119 N         -0.5648  -23.6804  -55.1375 N.am      22 UNK        -0.5000 
    120 CA         0.7520  -23.1664  -55.5282 C.3       22 UNK         0.1400 
    121 C          1.0607  -23.2566  -57.0545 C.2       22 UNK         0.5000 
    122 N          0.1330  -23.6769  -57.9086 N.am      22 UNK        -0.7600 
    123 O          2.1755  -22.9550  -57.4719 O.2       22 UNK        -0.5000 
    124 C124        0.9766  -21.7426  -54.9606 C.3       23 UNK        -0.0398 
    125 S125       -0.2917  -20.5301  -55.4774 S.3       23 UNK        -0.2404 
    126 C126        0.6005  -18.9602  -55.2523 C.3       23 UNK        -0.0205 
    127 H127       -4.7207  -14.7440  -44.8878 H         1 UNK         0.0600 
    128 H128       -5.5387  -15.2571  -46.3683 H         1 UNK         0.0600 
    129 H129       -4.3129  -16.2927  -45.6330 H         1 UNK         0.0600 
    130 H130       -2.3464  -16.2036  -46.6691 H         1 UNK         0.3000 
    131 H131       -1.7229  -14.1103  -48.5786 H         1 UNK         0.0600 
    132 H132        0.2867  -15.5229  -49.0761 H         1 UNK         0.0800 
    133 H133       -0.1335  -16.5923  -47.7633 H         1 UNK         0.0800 
    134 H134       -1.9802  -16.2875  -51.9011 H         1 UNK         0.0800 
    135 H135       -0.6750  -15.3402  -51.2344 H         1 UNK         0.0800 
    136 H136       -1.0010  -17.2881  -53.8159 H         1 UNK         0.1150 
    137 H137        2.4491  -19.8037  -53.4244 H         1 UNK         0.1150 
    138 H138        1.0623  -17.5589  -50.0651 H         1 UNK         0.1150 
    139 H139        3.8108  -19.6022  -51.3528 H         1 UNK         0.0800 
    140 H140        3.2148  -18.7189  -49.9694 H         1 UNK         0.0800 
    141 H141        0.1498  -20.0144  -49.5924 H         1 UNK         0.0800 
    142 H142        1.3169  -19.4942  -48.4069 H         1 UNK         0.0800 
    143 H143        0.1024  -22.2911  -48.6019 H         1 UNK         0.0600 
    144 H144        2.3490  -21.3841  -47.0621 H         1 UNK         0.3000 
    145 H145        2.4425  -23.7498  -44.6357 H         1 UNK         0.0600 
    146 H146        3.8044  -24.5833  -47.2455 H         1 UNK         0.0600 
    147 H147        4.2975  -25.0659  -45.6221 H         1 UNK         0.0600 
    148 H148        2.7524  -25.5955  -46.2637 H         1 UNK         0.0600 
    149 H149        4.5692  -22.5610  -46.1875 H         1 UNK         0.3000 
    150 H150        1.7162  -21.5822  -44.1595 H         1 UNK         0.0600 
    151 H151        3.2607  -22.6399  -42.4505 H         1 UNK         0.0600 
    152 H152        2.0970  -21.5305  -41.7498 H         1 UNK         0.0600 
    153 H153        3.7727  -21.0271  -41.9678 H         1 UNK         0.0600 
    154 H154        2.1534  -19.2842  -42.7838 H         1 UNK         0.3000 
    155 H155        1.9183  -16.7529  -45.2086 H         1 UNK         0.0600 
    156 H156       -0.4350  -17.5692  -45.2949 H         1 UNK         0.0600 
    157 H157       -0.2836  -16.2148  -44.1853 H         1 UNK         0.0600 
    158 H158       -0.4153  -17.8526  -43.5600 H         1 UNK         0.0600 
    159 H159        1.4687  -16.7599  -42.3777 H         1 UNK         0.3000 
    160 H160        4.8839  -16.2976  -41.4438 H         1 UNK         0.0600 
    161 H161        2.5369  -14.3266  -41.4789 H         1 UNK         0.0600 
    162 H162        4.1221  -14.0390  -42.1832 H         1 UNK         0.0600 
    163 H163        3.9591  -14.2383  -40.4455 H         1 UNK         0.0600 
    164 H164        2.2054  -16.4021  -40.2215 H         1 UNK         0.3000 
    165 H165        2.5373  -19.7390  -39.1226 H         1 UNK         0.0600 
    166 H166        2.2609  -18.7996  -36.8414 H         1 UNK         0.0600 
    167 H167        3.9164  -18.5828  -37.3857 H         1 UNK         0.0600 
    168 H168        2.8074  -17.2166  -37.3966 H         1 UNK         0.0600 
    169 H169        0.6423  -17.6960  -38.4970 H         1 UNK         0.3000 
    170 H170       -1.3688  -17.9744  -41.4108 H         1 UNK         0.0600 
    171 H171       -1.8919  -19.0161  -38.5773 H         1 UNK         0.0600 
    172 H172       -3.1166  -18.5858  -39.7721 H         1 UNK         0.0600 
    173 H173       -2.0554  -19.9557  -40.0564 H         1 UNK         0.0600 
    174 H174       -1.8027  -16.5541  -39.0101 H         1 UNK         0.3000 
    175 H175       -1.7492  -14.2715  -39.1308 H         1 UNK         0.0600 
    176 H176        0.1658  -14.9703  -37.6628 H         1 UNK         0.0600 
    177 H177        1.3065  -14.1766  -38.7442 H         1 UNK         0.0600 
    178 H178        0.1356  -13.2229  -37.8359 H         1 UNK         0.0600 
    179 H179        0.0870  -13.3814  -41.2310 H         1 UNK         0.3000 
    180 H180       -1.9007  -10.6481  -41.9431 H         1 UNK         0.0600 
    181 H181        0.0084   -9.0680  -41.7933 H         1 UNK         0.0600 
    182 H182        0.8481  -10.1490  -40.6795 H         1 UNK         0.0600 
    183 H183       -0.6533   -9.3699  -40.1959 H         1 UNK         0.0600 
    184 H184        0.7175  -11.2303  -42.8846 H         1 UNK         0.3000 
    185 H185        0.4976  -11.9528  -45.3013 H         1 UNK         0.0600 
    186 H186        2.1087  -12.9137  -43.7042 H         1 UNK         0.0600 
    187 H187        1.1936  -14.4089  -43.5967 H         1 UNK         0.0600 
    188 H188        2.0512  -13.9993  -45.0810 H         1 UNK         0.0600 
    189 H189       -1.3596  -14.1510  -45.2707 H         1 UNK         0.3000 
    190 H190        0.0827  -21.4015  -45.4424 H         1 UNK         0.3000 
    191 H191       -2.1446  -19.6913  -45.1321 H         1 UNK         0.0600 
    192 H192       -1.0764  -21.8921  -43.2780 H         1 UNK         0.0600 
    193 H193       -2.1405  -20.5748  -42.7983 H         1 UNK         0.0600 
    194 H194       -0.5068  -20.2278  -43.3295 H         1 UNK         0.0600 
    195 H195       -2.0755  -22.9766  -46.1642 H         1 UNK         0.3000 
    196 H196       -4.6603  -23.9026  -45.3602 H         1 UNK         0.0600 
    197 H197       -4.2016  -25.6448  -47.1052 H         1 UNK         0.0600 
    198 H198       -2.8395  -25.4318  -46.0162 H         1 UNK         0.0600 
    199 H199       -2.7871  -24.7428  -47.6374 H         1 UNK         0.0600 
    200 H200       -5.9187  -21.9983  -45.7737 H         1 UNK         0.3000 
    201 H201       -7.5032  -20.8141  -46.7735 H         1 UNK         0.0600 
    202 H202       -8.4866  -23.0333  -47.2816 H         1 UNK         0.0600 
    203 H203       -7.6111  -23.1049  -48.8067 H         1 UNK         0.0600 
    204 H204       -8.8625  -21.8926  -48.5608 H         1 UNK         0.0600 
    205 H205       -4.9100  -20.0222  -47.3173 H         1 UNK         0.3000 
    206 H206       -3.6114  -18.6948  -48.5249 H         1 UNK         0.0600 
    207 H207       -6.1848  -17.8346  -49.9603 H         1 UNK         0.0600 
    208 H208       -5.5480  -17.1378  -48.4707 H         1 UNK         0.0600 
    209 H209       -4.6620  -16.9622  -49.9761 H         1 UNK         0.0600 
    210 H210       -3.1313  -21.0595  -49.2008 H         1 UNK         0.3000 
    211 H211       -2.5884  -22.6894  -50.6074 H         1 UNK         0.0600 
    212 H212       -2.0306  -20.3726  -52.5377 H         1 UNK         0.0600 
    213 H213       -1.4306  -22.0146  -52.7285 H         1 UNK         0.0600 
    214 H214       -0.9095  -21.0467  -51.3659 H         1 UNK         0.0600 
    215 H215       -5.2246  -22.5951  -50.3523 H         1 UNK         0.3000 
    216 H216       -7.2558  -23.0548  -51.1423 H         1 UNK         0.0600 
    217 H217       -7.4333  -24.7562  -52.9182 H         1 UNK         0.0600 
    218 H218       -6.0778  -25.1455  -51.8711 H         1 UNK         0.0600 
    219 H219       -5.7933  -24.4317  -53.4582 H         1 UNK         0.0600 
    220 H220       -6.7278  -20.5185  -51.5494 H         1 UNK         0.3000 
    221 H221       -7.0879  -18.6224  -52.6088 H         1 UNK         0.0600 
    222 H222       -9.0688  -20.1503  -54.3810 H         1 UNK         0.0600 
    223 H223       -9.4303  -19.4665  -52.7965 H         1 UNK         0.0600 
    224 H224       -9.0132  -18.4110  -54.1369 H         1 UNK         0.0600 
    225 H225       -4.7881  -19.5831  -53.2144 H         1 UNK         0.3000 
    226 H226       -3.0211  -19.6614  -54.5221 H         1 UNK         0.0600 
    227 H227       -4.4819  -17.5414  -56.1760 H         1 UNK         0.0600 
    228 H228       -3.5541  -17.2423  -54.7060 H         1 UNK         0.0600 
    229 H229       -2.7449  -17.8260  -56.1507 H         1 UNK         0.0600 
    230 H230       -4.3963  -21.8490  -54.9648 H         1 UNK         0.3000 
    231 H231       -4.1906  -22.3959  -57.9123 H         1 UNK         0.0600 
    232 H232       -6.0199  -24.0138  -57.6434 H         1 UNK         0.0600 
    233 H233       -6.5730  -22.4301  -57.1147 H         1 UNK         0.0600 
    234 H234       -6.1478  -23.6590  -55.9258 H         1 UNK         0.0600 
    235 H235       -3.7240  -23.6241  -54.5625 H         1 UNK         0.3000 
    236 H236       -2.6455  -26.1717  -55.3458 H         1 UNK         0.0600 
    237 H237       -2.3863  -24.6484  -52.6975 H         1 UNK         0.0600 
    238 H238       -3.7109  -25.7356  -53.1199 H         1 UNK         0.0600 
    239 H239       -2.0799  -26.3603  -52.9439 H         1 UNK         0.0600 
    240 H240       -1.2947  -22.9880  -55.0540 H         1 UNK         0.3000 
    241 H241        1.4978  -23.8078  -55.0550 H         1 UNK         0.0600 
    242 H242        0.3586  -23.7333  -58.8891 H         1 UNK         0.3800 
    243 H243       -0.7918  -23.9430  -57.5956 H         1 UNK         0.3800 
    244 H244        1.9668  -21.3782  -55.2383 H         1 UNK         0.0800 
    245 H245        0.9709  -21.7866  -53.8707 H         1 UNK         0.0800 
    246 H246        1.5900  -19.0246  -55.7072 H         1 UNK         0.0800 
    247 H247        0.0692  -18.1792  -55.7982 H         1 UNK         0.0800 
@<TRIPOS>BOND
     1    1    2 1    
     2    1  127 1    
     3    1  128 1    
     4    1  129 1    
     5    2    3 2    
     6    2    4 am   BACKBONE|DICT|INTERRES
     7    4    5 1    
     8    4  130 1    
     9    5    6 1    
    10    5   65 1    
    11    5  131 1    
    12    6    7 1    
    13    6  132 1    
    14    6  133 1    
    15    7    8 1    
    16    8    9 1    
    17    8  134 1    
    18    8  135 1    
    19    9   10 ar   
    20    9   14 ar   
    21   10   11 ar   
    22   10  136 1    
    23   11   12 ar   
    24   11  126 1    
    25   12   13 ar   
    26   12  137 1    
    27   13   14 ar   
    28   13   15 1    
    29   14  138 1    
    30   15   16 1    
    31   15  139 1    
    32   15  140 1    
    33   16   17 1    
    34   17   18 1    
    35   17  141 1    
    36   17  142 1    
    37   18   19 1    
    38   18   67 1    
    39   18  143 1    
    40   19   20 am   BACKBONE|DICT|INTERRES
    41   19  144 1    
    42   20   21 2    
    43   20   22 1    
    44   22   23 1    
    45   22   24 1    
    46   22  145 1    
    47   23  146 1    
    48   23  147 1    
    49   23  148 1    
    50   24   25 am   BACKBONE|DICT|INTERRES
    51   24  149 1    
    52   25   26 2    
    53   25   27 1    
    54   27   28 1    
    55   27   29 1    
    56   27  150 1    
    57   28  151 1    
    58   28  152 1    
    59   28  153 1    
    60   29   30 am   BACKBONE|DICT|INTERRES
    61   29  154 1    
    62   30   31 2    
    63   30   32 1    
    64   32   33 1    
    65   32   34 1    
    66   32  155 1    
    67   33  156 1    
    68   33  157 1    
    69   33  158 1    
    70   34   35 am   BACKBONE|DICT|INTERRES
    71   34  159 1    
    72   35   36 2    
    73   35   37 1    
    74   37   38 1    
    75   37   39 1    
    76   37  160 1    
    77   38  161 1    
    78   38  162 1    
    79   38  163 1    
    80   39   40 am   BACKBONE|DICT|INTERRES
    81   39  164 1    
    82   40   41 2    
    83   40   42 1    
    84   42   43 1    
    85   42   44 1    
    86   42  165 1    
    87   43  166 1    
    88   43  167 1    
    89   43  168 1    
    90   44   45 am   BACKBONE|DICT|INTERRES
    91   44  169 1    
    92   45   46 2    
    93   45   47 1    
    94   47   48 1    
    95   47   49 1    
    96   47  170 1    
    97   48  171 1    
    98   48  172 1    
    99   48  173 1    
   100   49   50 am   BACKBONE|DICT|INTERRES
   101   49  174 1    
   102   50   51 2    
   103   50   52 1    
   104   52   53 1    
   105   52   54 1    
   106   52  175 1    
   107   53  176 1    
   108   53  177 1    
   109   53  178 1    
   110   54   55 am   BACKBONE|DICT|INTERRES
   111   54  179 1    
   112   55   56 2    
   113   55   57 1    
   114   57   58 1    
   115   57   59 1    
   116   57  180 1    
   117   58  181 1    
   118   58  182 1    
   119   58  183 1    
   120   59   60 am   BACKBONE|DICT|INTERRES
   121   59  184 1    
   122   60   61 2    
   123   60   62 1    
   124   62   63 1    
   125   62   64 1    
   126   62  185 1    
   127   63  186 1    
   128   63  187 1    
   129   63  188 1    
   130   64   65 am   BACKBONE|DICT|INTERRES
   131   64  189 1    
   132   65   66 2    
   133   67   68 2    
   134   67   69 am   BACKBONE|DICT|INTERRES
   135   69   70 1    
   136   69  190 1    
   137   70   71 1    
   138   70   72 1    
   139   70  191 1    
   140   71  192 1    
   141   71  193 1    
   142   71  194 1    
   143   72   73 2    
   144   72   74 am   BACKBONE|DICT|INTERRES
   145   74   75 1    
   146   74  195 1    
   147   75   76 1    
   148   75   77 1    
   149   75  196 1    
   150   76  197 1    
   151   76  198 1    
   152   76  199 1    
   153   77   78 2    
   154   77   79 am   BACKBONE|DICT|INTERRES
   155   79   80 1    
   156   79  200 1    
   157   80   81 1    
   158   80   82 1    
   159   80  201 1    
   160   81  202 1    
   161   81  203 1    
   162   81  204 1    
   163   82   83 2    
   164   82   84 am   BACKBONE|DICT|INTERRES
   165   84   85 1    
   166   84  205 1    
   167   85   86 1    
   168   85   87 1    
   169   85  206 1    
   170   86  207 1    
   171   86  208 1    
   172   86  209 1    
   173   87   88 2    
   174   87   89 am   BACKBONE|DICT|INTERRES
   175   89   90 1    
   176   89  210 1    
   177   90   91 1    
   178   90   92 1    
   179   90  211 1    
   180   91  212 1    
   181   91  213 1    
   182   91  214 1    
   183   92   93 2    
   184   92   94 am   BACKBONE|DICT|INTERRES
   185   94   95 1    
   186   94  215 1    
   187   95   96 1    
   188   95   97 1    
   189   95  216 1    
   190   96  217 1    
   191   96  218 1    
   192   96  219 1    
   193   97   98 2    
   194   97   99 am   BACKBONE|DICT|INTERRES
   195   99  100 1    
   196   99  220 1    
   197  100  101 1    
   198  100  102 1    
   199  100  221 1    
   200  101  222 1    
   201  101  223 1    
   202  101  224 1    
   203  102  103 2    
   204  102  104 am   BACKBONE|DICT|INTERRES
   205  104  105 1    
   206  104  225 1    
   207  105  106 1    
   208  105  107 1    
   209  105  226 1    
   210  106  227 1    
   211  106  228 1    
   212  106  229 1    
   213  107  108 2    
   214  107  109 am   BACKBONE|DICT|INTERRES
   215  109  110 1    
   216  109  230 1    
   217  110  111 1    
   218  110  112 1    
   219  110  231 1    
   220  111  232 1    
   221  111  233 1    
   222  111  234 1    
   223  112  113 2    
   224  112  114 am   BACKBONE|DICT|INTERRES
   225  114  115 1    
   226  114  235 1    
   227  115  116 1    
   228  115  117 1    
   229  115  236 1    
   230  116  237 1    
   231  116  238 1    
   232  116  239 1    
   233  117  118 2    
   234  117  119 am   BACKBONE|DICT|INTERRES
   235  119  120 1    
   236  119  240 1    
   237  120  121 1    
   238  120  124 1    
   239  120  241 1    
   240  121  122 am   BACKBONE|DICT|INTERRES
   241  121  123 2    
   242  122  242 1    
   243  122  243 1    
   244  124  125 1    
   245  124  244 1    
   246  124  245 1    
   247  125  126 1    
   248  126  246 1    
   249  126  247 1    
@<TRIPOS>SUBSTRUCTURE
     1 UNK         1 GROUP             0       ****    0 ROOT    
