@<TRIPOS>MOLECULE
3R540
247   249    1
SMALL
USER_CHARGES


@<TRIPOS>ATOM
      1 CA          0.2551  -15.1618  -43.3288 C.3       0 UNK        -0.1800 
      2 C          -0.1366  -13.8115  -43.9134 C.2       0 UNK         0.5000 
      3 O           0.6692  -13.1891  -44.6059 O.2       0 UNK        -0.5000 
      4 N          -1.3646  -13.3588  -43.6197 N.am      1 UNK        -0.5000 
      5 CA         -1.9623  -12.0860  -44.0543 C.3       1 UNK         0.1400 
      6 C6         -2.2925  -12.0428  -45.5716 C.3       23 UNK        -0.0398 
      7 S7         -3.6780  -13.1562  -45.9809 S.3       23 UNK        -0.2404 
      8 C8         -3.4268  -13.4345  -47.7620 C.3       23 UNK        -0.0205 
      9 C9         -3.3821  -14.9222  -48.0631 C.ar      23 UNK        -0.0193 
     10 C10        -4.5295  -15.5973  -48.4921 C.ar      23 UNK        -0.1150 
     11 C11        -4.4964  -16.9753  -48.7301 C.ar      23 UNK        -0.0193 
     12 C12        -3.3032  -17.6751  -48.5242 C.ar      23 UNK        -0.1150 
     13 C13        -2.1478  -17.0066  -48.1120 C.ar      23 UNK        -0.0193 
     14 C14        -2.1913  -15.6294  -47.8883 C.ar      23 UNK        -0.1150 
     15 C15        -0.8517  -17.7674  -47.8994 C.3       23 UNK        -0.0205 
     16 S16        -0.4297  -17.9013  -46.1336 S.3       23 UNK        -0.2404 
     17 C17        -1.8288  -18.8540  -45.4504 C.3       23 UNK        -0.0398 
     18 CA         -2.0330  -20.2431  -46.0997 C.3       11 UNK         0.1400 
     19 N          -0.8019  -21.0392  -46.1688 N.am      11 UNK        -0.5000 
     20 C          -0.6803  -22.1833  -46.8559 C.2       10 UNK         0.5000 
     21 O          -1.5958  -22.6777  -47.5108 O.2       10 UNK        -0.5000 
     22 CA          0.6606  -22.9255  -46.7497 C.3       10 UNK         0.1400 
     23 CB          1.6765  -22.3786  -47.7643 C.3       10 UNK        -0.1800 
     24 N           1.2043  -22.8241  -45.3965 N.am      10 UNK        -0.5000 
     25 C           0.7849  -23.5664  -44.3620 C.2       9 UNK         0.5000 
     26 O          -0.0439  -24.4710  -44.4655 O.2       9 UNK        -0.5000 
     27 CA          1.3609  -23.2219  -42.9736 C.3       9 UNK         0.1400 
     28 CB          2.6625  -23.9978  -42.7231 C.3       9 UNK        -0.1800 
     29 N           1.6119  -21.7906  -42.7909 N.am      9 UNK        -0.5000 
     30 C           0.6592  -20.8482  -42.7663 C.2       8 UNK         0.5000 
     31 O          -0.5435  -21.0954  -42.8444 O.2       8 UNK        -0.5000 
     32 CA          1.1235  -19.3798  -42.6946 C.3       8 UNK         0.1400 
     33 CB          1.1928  -18.9072  -41.2355 C.3       8 UNK        -0.1800 
     34 N           2.4032  -19.0965  -43.3535 N.am      8 UNK        -0.5000 
     35 C           2.7094  -19.3798  -44.6264 C.2       7 UNK         0.5000 
     36 O           1.9808  -20.0294  -45.3775 O.2       7 UNK        -0.5000 
     37 CA          4.0485  -18.8334  -45.1513 C.3       7 UNK         0.1400 
     38 CB          4.7395  -19.8412  -46.0859 C.3       7 UNK        -0.1800 
     39 N           3.8514  -17.5753  -45.8705 N.am      7 UNK        -0.5000 
     40 C           3.5243  -16.4080  -45.3017 C.2       6 UNK         0.5000 
     41 O           3.3893  -16.2579  -44.0842 O.2       6 UNK        -0.5000 
     42 CA          3.3244  -15.2183  -46.2629 C.3       6 UNK         0.1400 
     43 CB          1.9997  -15.3280  -47.0321 C.3       6 UNK        -0.1800 
     44 N           3.3537  -13.9380  -45.5589 N.am      6 UNK        -0.5000 
     45 C           4.4701  -13.3505  -45.1108 C.2       5 UNK         0.5000 
     46 O           5.6000  -13.8091  -45.2971 O.2       5 UNK        -0.5000 
     47 CA          4.2879  -12.0242  -44.3414 C.3       5 UNK         0.1400 
     48 CB          5.6118  -11.2599  -44.1356 C.3       5 UNK        -0.1800 
     49 N           3.2837  -11.1311  -44.9269 N.am      5 UNK        -0.5000 
     50 C           3.2320  -10.6611  -46.1843 C.2       4 UNK         0.5000 
     51 O           4.0258  -10.9681  -47.0746 O.2       4 UNK        -0.5000 
     52 CA          2.1124   -9.6468  -46.4960 C.3       4 UNK         0.1400 
     53 CB          0.8745  -10.3695  -47.0430 C.3       4 UNK        -0.1800 
     54 N           1.7337   -8.8454  -45.3289 N.am      4 UNK        -0.5000 
     55 C           2.5373   -7.9384  -44.7514 C.2       3 UNK         0.5000 
     56 O           3.6277   -7.6049  -45.2177 O.2       3 UNK        -0.5000 
     57 CA          2.0712   -7.3025  -43.4260 C.3       3 UNK         0.1400 
     58 CB          1.5550   -5.8754  -43.6675 C.3       3 UNK        -0.1800 
     59 N           1.0415   -8.0589  -42.7113 N.am      3 UNK        -0.5000 
     60 C           1.1659   -9.2983  -42.2169 C.2       2 UNK         0.5000 
     61 O           2.1829   -9.9840  -42.3288 O.2       2 UNK        -0.5000 
     62 CA         -0.0650   -9.8884  -41.4991 C.3       2 UNK         0.1400 
     63 CB         -1.1022   -8.8287  -41.0635 C.3       2 UNK        -0.1800 
     64 N          -0.7251  -10.9349  -42.2849 N.am      2 UNK        -0.5000 
     65 C          -1.1689  -10.8573  -43.5501 C.2       1 UNK         0.5000 
     66 O          -0.9967   -9.8787  -44.2805 O.2       1 UNK        -0.5000 
     67 C          -3.1904  -20.9980  -45.4143 C.2       11 UNK         0.5000 
     68 O          -4.3400  -20.8354  -45.8212 O.2       11 UNK        -0.5000 
     69 N          -2.8638  -21.8400  -44.4233 N.am      12 UNK        -0.5000 
     70 CA         -3.7931  -22.7529  -43.7573 C.3       12 UNK         0.1400 
     71 CB         -3.1075  -23.3590  -42.5235 C.3       12 UNK        -0.1800 
     72 C          -4.3200  -23.8647  -44.6869 C.2       12 UNK         0.5000 
     73 O          -5.4707  -24.2779  -44.5384 O.2       12 UNK        -0.5000 
     74 N          -3.4849  -24.3171  -45.6344 N.am      13 UNK        -0.5000 
     75 CA         -3.8681  -25.2605  -46.6881 C.3       13 UNK         0.1400 
     76 CB         -2.6103  -25.9406  -47.2508 C.3       13 UNK        -0.1800 
     77 C          -4.6774  -24.5776  -47.8087 C.2       13 UNK         0.5000 
     78 O          -5.5264  -25.2277  -48.4212 O.2       13 UNK        -0.5000 
     79 N          -4.4106  -23.2822  -48.0346 N.am      14 UNK        -0.5000 
     80 CA         -5.0723  -22.3617  -48.9606 C.3       14 UNK         0.1400 
     81 CB         -6.5197  -22.0740  -48.5069 C.3       14 UNK        -0.1800 
     82 C          -4.9631  -22.8483  -50.4154 C.2       14 UNK         0.5000 
     83 O          -3.9280  -22.6274  -51.0433 O.2       14 UNK        -0.5000 
     84 N          -6.0099  -23.5176  -50.9172 N.am      15 UNK        -0.5000 
     85 CA         -6.0369  -24.1707  -52.2267 C.3       15 UNK         0.1400 
     86 CB         -7.4766  -24.5994  -52.5454 C.3       15 UNK        -0.1800 
     87 C          -5.0840  -25.3788  -52.3187 C.2       15 UNK         0.5000 
     88 O          -4.6092  -25.6913  -53.4103 O.2       15 UNK        -0.5000 
     89 N          -4.8386  -26.0424  -51.1768 N.am      16 UNK        -0.5000 
     90 CA         -3.8913  -27.1457  -50.9634 C.3       16 UNK         0.1400 
     91 CB         -2.4466  -26.6196  -51.0904 C.3       16 UNK        -0.1800 
     92 C          -4.1317  -28.4012  -51.8342 C.2       16 UNK         0.5000 
     93 O          -3.2350  -29.2379  -51.9507 O.2       16 UNK        -0.5000 
     94 N          -5.3288  -28.5056  -52.4331 N.am      17 UNK        -0.5000 
     95 CA         -5.7581  -29.5124  -53.4119 C.3       17 UNK         0.1400 
     96 CB         -5.8831  -30.8993  -52.7468 C.3       17 UNK        -0.1800 
     97 C          -4.8928  -29.5370  -54.6949 C.2       17 UNK         0.5000 
     98 O          -4.7819  -30.5825  -55.3387 O.2       17 UNK        -0.5000 
     99 N          -4.2952  -28.3917  -55.0478 N.am      18 UNK        -0.5000 
    100 CA        -3.3960  -28.2206  -56.1855 C.3       18 UNK         0.1400 
    101 CB        -1.9957  -28.7765  -55.8391 C.3       18 UNK        -0.1800 
    102 C         -3.4039  -26.7374  -56.5958 C.2       18 UNK         0.5000 
    103 O         -4.4787  -26.1369  -56.6653 O.2       18 UNK        -0.5000 
    104 N         -2.2223  -26.1637  -56.8590 N.am      19 UNK        -0.5000 
    105 CA        -2.0260  -24.7260  -57.0323 C.3       19 UNK         0.1400 
    106 CB        -0.6595  -24.4736  -57.6882 C.3       19 UNK        -0.1800 
    107 C         -2.1197  -24.0284  -55.6641 C.2       19 UNK         0.5000 
    108 O         -1.4621  -24.4661  -54.7162 O.2       19 UNK        -0.5000 
    109 N         -2.9450  -22.9796  -55.5821 N.am      20 UNK        -0.5000 
    110 CA        -3.2392  -22.2727  -54.3391 C.3       20 UNK         0.1400 
    111 CB        -4.4747  -21.3811  -54.5453 C.3       20 UNK        -0.1800 
    112 C         -2.0546  -21.4320  -53.8359 C.2       20 UNK         0.5000 
    113 O         -1.3538  -20.8058  -54.6345 O.2       20 UNK        -0.5000 
    114 N         -1.9089  -21.3771  -52.5081 N.am      21 UNK        -0.5000 
    115 CA        -0.9718  -20.5053  -51.7979 C.3       21 UNK         0.1400 
    116 CB        -0.8073  -21.0318  -50.3644 C.3       21 UNK        -0.1800 
    117 C         -1.4370  -19.0350  -51.7784 C.2       21 UNK         0.5000 
    118 O         -0.6250  -18.1438  -51.5313 O.2       21 UNK        -0.5000 
    119 N         -2.7330  -18.8172  -52.0349 N.am      22 UNK        -0.5000 
    120 CA        -3.4083  -17.5111  -52.0579 C.3       22 UNK         0.1400 
    121 C         -3.0578  -16.6121  -53.2806 C.2       22 UNK         0.5000 
    122 N         -2.3568  -17.1047  -54.2953 N.am      22 UNK        -0.7600 
    123 O         -3.4301  -15.4425  -53.3094 O.2       22 UNK        -0.5000 
    124 C124       -4.9495  -17.6580  -51.9133 C.3       23 UNK        -0.0398 
    125 S125       -5.4751  -18.8208  -50.6018 S.3       23 UNK        -0.2404 
    126 C126       -5.7560  -17.7037  -49.1870 C.3       23 UNK        -0.0205 
    127 H127        0.5039  -15.8618  -44.1247 H         1 UNK         0.0600 
    128 H128       -0.5475  -15.5982  -42.7343 H         1 UNK         0.0600 
    129 H129        1.1318  -15.0527  -42.6904 H         1 UNK         0.0600 
    130 H130       -1.9684  -13.9364  -43.0517 H         1 UNK         0.3000 
    131 H131       -2.9124  -12.0155  -43.5221 H         1 UNK         0.0600 
    132 H132       -2.5861  -11.0416  -45.8911 H         1 UNK         0.0800 
    133 H133       -1.4173  -12.3153  -46.1603 H         1 UNK         0.0800 
    134 H134       -4.2378  -12.9577  -48.3145 H         1 UNK         0.0800 
    135 H135       -2.5062  -12.9622  -48.1074 H         1 UNK         0.0800 
    136 H136       -5.4516  -15.0496  -48.6275 H         1 UNK         0.1150 
    137 H137       -3.2748  -18.7393  -48.7060 H         1 UNK         0.1150 
    138 H138       -1.3028  -15.1129  -47.5522 H         1 UNK         0.1150 
    139 H139       -0.8995  -18.7602  -48.3453 H         1 UNK         0.0800 
    140 H140       -0.0474  -17.2483  -48.4210 H         1 UNK         0.0800 
    141 H141       -1.6633  -18.9585  -44.3776 H         1 UNK         0.0800 
    142 H142       -2.7327  -18.2510  -45.5545 H         1 UNK         0.0800 
    143 H143       -2.3540  -20.0880  -47.1293 H         1 UNK         0.0600 
    144 H144        0.0151  -20.6613  -45.7014 H         1 UNK         0.3000 
    145 H145        0.4855  -23.9780  -46.9833 H         1 UNK         0.0600 
    146 H146        2.6471  -22.8616  -47.6514 H         1 UNK         0.0600 
    147 H147        1.8227  -21.3034  -47.6596 H         1 UNK         0.0600 
    148 H148        1.3401  -22.5632  -48.7845 H         1 UNK         0.0600 
    149 H149        1.8167  -22.0353  -45.2220 H         1 UNK         0.3000 
    150 H150        0.6277  -23.5330  -42.2263 H         1 UNK         0.0600 
    151 H151        3.0369  -23.8251  -41.7139 H         1 UNK         0.0600 
    152 H152        3.4449  -23.7099  -43.4265 H         1 UNK         0.0600 
    153 H153        2.5034  -25.0716  -42.8301 H         1 UNK         0.0600 
    154 H154        2.5760  -21.4986  -42.7284 H         1 UNK         0.3000 
    155 H155        0.3695  -18.7784  -43.2037 H         1 UNK         0.0600 
    156 H156        0.2457  -19.0803  -40.7224 H         1 UNK         0.0600 
    157 H157        1.4008  -17.8385  -41.1772 H         1 UNK         0.0600 
    158 H158        1.9696  -19.4330  -40.6792 H         1 UNK         0.0600 
    159 H159        3.0462  -18.5152  -42.8344 H         1 UNK         0.3000 
    160 H160        4.7114  -18.6533  -44.3023 H         1 UNK         0.0600 
    161 H161        4.1528  -20.0292  -46.9862 H         1 UNK         0.0600 
    162 H162        4.8871  -20.7993  -45.5857 H         1 UNK         0.0600 
    163 H163        5.7211  -19.4822  -46.3955 H         1 UNK         0.0600 
    164 H164        3.9133  -17.6272  -46.8766 H         1 UNK         0.3000 
    165 H165        4.1397  -15.2316  -46.9894 H         1 UNK         0.0600 
    166 H166        1.8811  -14.5015  -47.7330 H         1 UNK         0.0600 
    167 H167        1.9596  -16.2510  -47.6103 H         1 UNK         0.0600 
    168 H168        1.1405  -15.3201  -46.3627 H         1 UNK         0.0600 
    169 H169        2.4537  -13.5348  -45.3119 H         1 UNK         0.3000 
    170 H170        3.9091  -12.2983  -43.3557 H         1 UNK         0.0600 
    171 H171        6.3356  -11.8665  -43.5903 H         1 UNK         0.0600 
    172 H172        6.0666  -10.9788  -45.0861 H         1 UNK         0.0600 
    173 H173        5.4530  -10.3490  -43.5580 H         1 UNK         0.0600 
    174 H174        2.5864  -10.7975  -44.2716 H         1 UNK         0.3000 
    175 H175        2.4800   -8.9686  -47.2689 H         1 UNK         0.0600 
    176 H176        0.4970  -11.0934  -46.3230 H         1 UNK         0.0600 
    177 H177        0.0711   -9.6694  -47.2724 H         1 UNK         0.0600 
    178 H178        1.1109  -10.9120  -47.9591 H         1 UNK         0.0600 
    179 H179        0.8435   -9.0634  -44.8930 H         1 UNK         0.3000 
    180 H180        2.9455   -7.2443  -42.7746 H         1 UNK         0.0600 
    181 H181        1.3108   -5.3789  -42.7282 H         1 UNK         0.0600 
    182 H182        0.6612   -5.8728  -44.2927 H         1 UNK         0.0600 
    183 H183        2.3079   -5.2655  -44.1686 H         1 UNK         0.0600 
    184 H184        0.1492   -7.5992  -42.6033 H         1 UNK         0.3000 
    185 H185        0.3136  -10.3682  -40.5953 H         1 UNK         0.0600 
    186 H186       -1.8852   -9.2819  -40.4553 H         1 UNK         0.0600 
    187 H187       -0.6398   -8.0488  -40.4569 H         1 UNK         0.0600 
    188 H188       -1.5875   -8.3492  -41.9144 H         1 UNK         0.0600 
    189 H189       -0.8755  -11.8071  -41.7982 H         1 UNK         0.3000 
    190 H190       -1.9078  -21.8367  -44.0815 H         1 UNK         0.3000 
    191 H191       -4.6519  -22.1699  -43.4185 H         1 UNK         0.0600 
    192 H192       -3.7831  -24.0284  -41.9896 H         1 UNK         0.0600 
    193 H193       -2.7981  -22.5827  -41.8234 H         1 UNK         0.0600 
    194 H194       -2.2223  -23.9342  -42.7971 H         1 UNK         0.0600 
    195 H195       -2.5575  -23.9205  -45.6959 H         1 UNK         0.3000 
    196 H196       -4.4983  -26.0359  -46.2474 H         1 UNK         0.0600 
    197 H197       -2.8785  -26.7368  -47.9448 H         1 UNK         0.0600 
    198 H198       -2.0158  -26.3915  -46.4560 H         1 UNK         0.0600 
    199 H199       -1.9721  -25.2408  -47.7898 H         1 UNK         0.0600 
    200 H200       -3.6037  -22.8969  -47.5562 H         1 UNK         0.3000 
    201 H201       -4.5197  -21.4223  -48.9069 H         1 UNK         0.0600 
    202 H202       -7.1268  -22.9772  -48.4428 H         1 UNK         0.0600 
    203 H203       -7.0152  -21.3863  -49.1935 H         1 UNK         0.0600 
    204 H204       -6.5273  -21.6049  -47.5229 H         1 UNK         0.0600 
    205 H205       -6.8048  -23.6759  -50.3150 H         1 UNK         0.3000 
    206 H206       -5.7280  -23.4430  -52.9768 H         1 UNK         0.0600 
    207 H207       -8.1494  -23.7416  -52.5576 H         1 UNK         0.0600 
    208 H208       -7.5352  -25.0703  -53.5278 H         1 UNK         0.0600 
    209 H209       -7.8562  -25.3143  -51.8143 H         1 UNK         0.0600 
    210 H210       -5.2890  -25.7037  -50.3309 H         1 UNK         0.3000 
    211 H211       -4.0386  -27.4696  -49.9329 H         1 UNK         0.0600 
    212 H212       -2.2098  -26.3383  -52.1175 H         1 UNK         0.0600 
    213 H213       -1.7222  -27.3736  -50.7809 H         1 UNK         0.0600 
    214 H214       -2.2897  -25.7434  -50.4607 H         1 UNK         0.0600 
    215 H215       -5.9844  -27.7558  -52.2672 H         1 UNK         0.3000 
    216 H216       -6.7565  -29.2131  -53.7335 H         1 UNK         0.0600 
    217 H217       -6.5030  -30.8530  -51.8515 H         1 UNK         0.0600 
    218 H218       -4.9105  -31.3009  -52.4614 H         1 UNK         0.0600 
    219 H219       -6.3471  -31.6181  -53.4231 H         1 UNK         0.0600 
    220 H220       -4.4666  -27.5514  -54.5032 H         1 UNK         0.3000 
    221 H221       -3.7921  -28.7783  -57.0365 H         1 UNK         0.0600 
    222 H222       -1.3198  -28.7192  -56.6929 H         1 UNK         0.0600 
    223 H223       -1.5423  -28.2329  -55.0088 H         1 UNK         0.0600 
    224 H224       -2.0476  -29.8269  -55.5524 H         1 UNK         0.0600 
    225 H225       -1.3854  -26.7162  -56.7443 H         1 UNK         0.3000 
    226 H226       -2.8032  -24.3386  -57.6949 H         1 UNK         0.0600 
    227 H227       -0.5958  -24.9544  -58.6645 H         1 UNK         0.0600 
    228 H228       -0.4925  -23.4064  -57.8391 H         1 UNK         0.0600 
    229 H229        0.1595  -24.8502  -57.0739 H         1 UNK         0.0600 
    230 H230       -3.4261  -22.6598  -56.4097 H         1 UNK         0.3000 
    231 H231       -3.4741  -23.0263  -53.5865 H         1 UNK         0.0600 
    232 H232       -4.7757  -20.9087  -53.6091 H         1 UNK         0.0600 
    233 H233       -5.3266  -21.9593  -54.9034 H         1 UNK         0.0600 
    234 H234       -4.2822  -20.5868  -55.2678 H         1 UNK         0.0600 
    235 H235       -2.5579  -21.9074  -51.9259 H         1 UNK         0.3000 
    236 H236       -0.0027  -20.5482  -52.2991 H         1 UNK         0.0600 
    237 H237       -1.7360  -20.9522  -49.7972 H         1 UNK         0.0600 
    238 H238       -0.5069  -22.0796  -50.3607 H         1 UNK         0.0600 
    239 H239       -0.0413  -20.4721  -49.8269 H         1 UNK         0.0600 
    240 H240       -3.3230  -19.6183  -52.1984 H         1 UNK         0.3000 
    241 H241       -3.0484  -16.9573  -51.1904 H         1 UNK         0.0600 
    242 H242       -2.1350  -16.5112  -55.0791 H         1 UNK         0.3800 
    243 H243       -2.0355  -18.0603  -54.2830 H         1 UNK         0.3800 
    244 H244       -5.3785  -18.0193  -52.8495 H         1 UNK         0.0800 
    245 H245       -5.4078  -16.6846  -51.7297 H         1 UNK         0.0800 
    246 H246       -6.5417  -16.9940  -49.4506 H         1 UNK         0.0800 
    247 H247       -6.1380  -18.2909  -48.3509 H         1 UNK         0.0800 
@<TRIPOS>BOND
     1    1    2 1    
     2    1  127 1    
     3    1  128 1    
     4    1  129 1    
     5    2    3 2    
     6    2    4 am   BACKBONE|DICT|INTERRES
     7    4    5 1    
     8    4  130 1    
     9    5    6 1    
    10    5   65 1    
    11    5  131 1    
    12    6    7 1    
    13    6  132 1    
    14    6  133 1    
    15    7    8 1    
    16    8    9 1    
    17    8  134 1    
    18    8  135 1    
    19    9   10 ar   
    20    9   14 ar   
    21   10   11 ar   
    22   10  136 1    
    23   11   12 ar   
    24   11  126 1    
    25   12   13 ar   
    26   12  137 1    
    27   13   14 ar   
    28   13   15 1    
    29   14  138 1    
    30   15   16 1    
    31   15  139 1    
    32   15  140 1    
    33   16   17 1    
    34   17   18 1    
    35   17  141 1    
    36   17  142 1    
    37   18   19 1    
    38   18   67 1    
    39   18  143 1    
    40   19   20 am   BACKBONE|DICT|INTERRES
    41   19  144 1    
    42   20   21 2    
    43   20   22 1    
    44   22   23 1    
    45   22   24 1    
    46   22  145 1    
    47   23  146 1    
    48   23  147 1    
    49   23  148 1    
    50   24   25 am   BACKBONE|DICT|INTERRES
    51   24  149 1    
    52   25   26 2    
    53   25   27 1    
    54   27   28 1    
    55   27   29 1    
    56   27  150 1    
    57   28  151 1    
    58   28  152 1    
    59   28  153 1    
    60   29   30 am   BACKBONE|DICT|INTERRES
    61   29  154 1    
    62   30   31 2    
    63   30   32 1    
    64   32   33 1    
    65   32   34 1    
    66   32  155 1    
    67   33  156 1    
    68   33  157 1    
    69   33  158 1    
    70   34   35 am   BACKBONE|DICT|INTERRES
    71   34  159 1    
    72   35   36 2    
    73   35   37 1    
    74   37   38 1    
    75   37   39 1    
    76   37  160 1    
    77   38  161 1    
    78   38  162 1    
    79   38  163 1    
    80   39   40 am   BACKBONE|DICT|INTERRES
    81   39  164 1    
    82   40   41 2    
    83   40   42 1    
    84   42   43 1    
    85   42   44 1    
    86   42  165 1    
    87   43  166 1    
    88   43  167 1    
    89   43  168 1    
    90   44   45 am   BACKBONE|DICT|INTERRES
    91   44  169 1    
    92   45   46 2    
    93   45   47 1    
    94   47   48 1    
    95   47   49 1    
    96   47  170 1    
    97   48  171 1    
    98   48  172 1    
    99   48  173 1    
   100   49   50 am   BACKBONE|DICT|INTERRES
   101   49  174 1    
   102   50   51 2    
   103   50   52 1    
   104   52   53 1    
   105   52   54 1    
   106   52  175 1    
   107   53  176 1    
   108   53  177 1    
   109   53  178 1    
   110   54   55 am   BACKBONE|DICT|INTERRES
   111   54  179 1    
   112   55   56 2    
   113   55   57 1    
   114   57   58 1    
   115   57   59 1    
   116   57  180 1    
   117   58  181 1    
   118   58  182 1    
   119   58  183 1    
   120   59   60 am   BACKBONE|DICT|INTERRES
   121   59  184 1    
   122   60   61 2    
   123   60   62 1    
   124   62   63 1    
   125   62   64 1    
   126   62  185 1    
   127   63  186 1    
   128   63  187 1    
   129   63  188 1    
   130   64   65 am   BACKBONE|DICT|INTERRES
   131   64  189 1    
   132   65   66 2    
   133   67   68 2    
   134   67   69 am   BACKBONE|DICT|INTERRES
   135   69   70 1    
   136   69  190 1    
   137   70   71 1    
   138   70   72 1    
   139   70  191 1    
   140   71  192 1    
   141   71  193 1    
   142   71  194 1    
   143   72   73 2    
   144   72   74 am   BACKBONE|DICT|INTERRES
   145   74   75 1    
   146   74  195 1    
   147   75   76 1    
   148   75   77 1    
   149   75  196 1    
   150   76  197 1    
   151   76  198 1    
   152   76  199 1    
   153   77   78 2    
   154   77   79 am   BACKBONE|DICT|INTERRES
   155   79   80 1    
   156   79  200 1    
   157   80   81 1    
   158   80   82 1    
   159   80  201 1    
   160   81  202 1    
   161   81  203 1    
   162   81  204 1    
   163   82   83 2    
   164   82   84 am   BACKBONE|DICT|INTERRES
   165   84   85 1    
   166   84  205 1    
   167   85   86 1    
   168   85   87 1    
   169   85  206 1    
   170   86  207 1    
   171   86  208 1    
   172   86  209 1    
   173   87   88 2    
   174   87   89 am   BACKBONE|DICT|INTERRES
   175   89   90 1    
   176   89  210 1    
   177   90   91 1    
   178   90   92 1    
   179   90  211 1    
   180   91  212 1    
   181   91  213 1    
   182   91  214 1    
   183   92   93 2    
   184   92   94 am   BACKBONE|DICT|INTERRES
   185   94   95 1    
   186   94  215 1    
   187   95   96 1    
   188   95   97 1    
   189   95  216 1    
   190   96  217 1    
   191   96  218 1    
   192   96  219 1    
   193   97   98 2    
   194   97   99 am   BACKBONE|DICT|INTERRES
   195   99  100 1    
   196   99  220 1    
   197  100  101 1    
   198  100  102 1    
   199  100  221 1    
   200  101  222 1    
   201  101  223 1    
   202  101  224 1    
   203  102  103 2    
   204  102  104 am   BACKBONE|DICT|INTERRES
   205  104  105 1    
   206  104  225 1    
   207  105  106 1    
   208  105  107 1    
   209  105  226 1    
   210  106  227 1    
   211  106  228 1    
   212  106  229 1    
   213  107  108 2    
   214  107  109 am   BACKBONE|DICT|INTERRES
   215  109  110 1    
   216  109  230 1    
   217  110  111 1    
   218  110  112 1    
   219  110  231 1    
   220  111  232 1    
   221  111  233 1    
   222  111  234 1    
   223  112  113 2    
   224  112  114 am   BACKBONE|DICT|INTERRES
   225  114  115 1    
   226  114  235 1    
   227  115  116 1    
   228  115  117 1    
   229  115  236 1    
   230  116  237 1    
   231  116  238 1    
   232  116  239 1    
   233  117  118 2    
   234  117  119 am   BACKBONE|DICT|INTERRES
   235  119  120 1    
   236  119  240 1    
   237  120  121 1    
   238  120  124 1    
   239  120  241 1    
   240  121  122 am   BACKBONE|DICT|INTERRES
   241  121  123 2    
   242  122  242 1    
   243  122  243 1    
   244  124  125 1    
   245  124  244 1    
   246  124  245 1    
   247  125  126 1    
   248  126  246 1    
   249  126  247 1    
@<TRIPOS>SUBSTRUCTURE
     1 UNK         1 GROUP             0       ****    0 ROOT    
