@<TRIPOS>MOLECULE
3R540
247   249    1
SMALL
USER_CHARGES


@<TRIPOS>ATOM
      1 CA         -2.6991  -12.6361  -47.8921 C.3       0 UNK        -0.1800 
      2 C          -1.3473  -12.1684  -48.4110 C.2       0 UNK         0.5000 
      3 O          -0.7255  -11.2941  -47.8082 O.2       0 UNK        -0.5000 
      4 N          -0.8749  -12.7653  -49.5128 N.am      1 UNK        -0.5000 
      5 CA          0.4148  -12.4827  -50.1640 C.3       1 UNK         0.1400 
      6 C6          0.5235  -13.1913  -51.5366 C.3       23 UNK        -0.0398 
      7 S7          0.2728  -14.9984  -51.4370 S.3       23 UNK        -0.2404 
      8 C8          1.8883  -15.6233  -51.9799 C.3       23 UNK        -0.0205 
      9 C9          1.9276  -17.1366  -51.8664 C.ar      23 UNK        -0.0193 
     10 C10         1.3257  -17.9308  -52.8467 C.ar      23 UNK        -0.1150 
     11 C11         1.3127  -19.3223  -52.7206 C.ar      23 UNK        -0.0193 
     12 C12         1.9227  -19.9193  -51.6140 C.ar      23 UNK        -0.1150 
     13 C13         2.5355  -19.1350  -50.6320 C.ar      23 UNK        -0.0193 
     14 C14         2.5381  -17.7436  -50.7660 C.ar      23 UNK        -0.1150 
     15 C15         3.1797  -19.7914  -49.4189 C.3       23 UNK        -0.0205 
     16 S16         2.3508  -19.3430  -47.8593 S.3       23 UNK        -0.2404 
     17 C17         0.6698  -20.0024  -48.1161 C.3       23 UNK        -0.0398 
     18 CA          0.4784  -21.4066  -47.4984 C.3       11 UNK         0.1400 
     19 N           0.5252  -21.3956  -46.0314 N.am      11 UNK        -0.5000 
     20 C           0.4970  -22.4875  -45.2535 C.2       10 UNK         0.5000 
     21 O           0.4853  -23.6366  -45.6916 O.2       10 UNK        -0.5000 
     22 CA          0.4055  -22.2674  -43.7323 C.3       10 UNK         0.1400 
     23 CB          1.7801  -21.9411  -43.1300 C.3       10 UNK        -0.1800 
     24 N          -0.5637  -21.2300  -43.3765 N.am      10 UNK        -0.5000 
     25 C          -1.8834  -21.3314  -43.5928 C.2       9 UNK         0.5000 
     26 O          -2.4207  -22.3357  -44.0598 O.2       9 UNK        -0.5000 
     27 CA         -2.7447  -20.0937  -43.2790 C.3       9 UNK         0.1400 
     28 CB         -3.0854  -20.0301  -41.7830 C.3       9 UNK        -0.1800 
     29 N          -2.1127  -18.8420  -43.6976 N.am      9 UNK        -0.5000 
     30 C          -1.8232  -18.5265  -44.9682 C.2       8 UNK         0.5000 
     31 O          -2.1191  -19.2338  -45.9304 O.2       8 UNK        -0.5000 
     32 CA         -1.0071  -17.2415  -45.2009 C.3       8 UNK         0.1400 
     33 CB         -1.9091  -15.9987  -45.1982 C.3       8 UNK        -0.1800 
     34 N           0.0700  -17.0767  -44.2234 N.am      8 UNK        -0.5000 
     35 C           1.0918  -17.9326  -44.0768 C.2       7 UNK         0.5000 
     36 O           1.2453  -18.9328  -44.7730 O.2       7 UNK        -0.5000 
     37 CA          2.0665  -17.6693  -42.9185 C.3       7 UNK         0.1400 
     38 CB          3.0960  -16.5915  -43.2848 C.3       7 UNK        -0.1800 
     39 N           1.3560  -17.2910  -41.6991 N.am      7 UNK        -0.5000 
     40 C           0.6126  -18.1386  -40.9737 C.2       6 UNK         0.5000 
     41 O           0.4904  -19.3356  -41.2338 O.2       6 UNK        -0.5000 
     42 CA         -0.1525  -17.5371  -39.7812 C.3       6 UNK         0.1400 
     43 CB          0.7464  -17.4726  -38.5375 C.3       6 UNK        -0.1800 
     44 N          -0.6789  -16.2020  -40.0696 N.am      6 UNK        -0.5000 
     45 C          -1.6458  -15.9478  -40.9626 C.2       5 UNK         0.5000 
     46 O          -2.2196  -16.8181  -41.6159 O.2       5 UNK        -0.5000 
     47 CA         -1.9930  -14.4674  -41.1998 C.3       5 UNK         0.1400 
     48 CB         -3.0168  -13.9786  -40.1645 C.3       5 UNK        -0.1800 
     49 N          -0.8191  -13.5898  -41.1786 N.am      5 UNK        -0.5000 
     50 C           0.1887  -13.6545  -42.0579 C.2       4 UNK         0.5000 
     51 O           0.2597  -14.4952  -42.9573 O.2       4 UNK        -0.5000 
     52 CA          1.3266  -12.6379  -41.8794 C.3       4 UNK         0.1400 
     53 CB          2.5342  -13.2865  -41.1866 C.3       4 UNK        -0.1800 
     54 N           1.7395  -12.1106  -43.1765 N.am      4 UNK        -0.5000 
     55 C           1.0820  -11.1597  -43.8479 C.2       3 UNK         0.5000 
     56 O           0.1003  -10.5659  -43.3990 O.2       3 UNK        -0.5000 
     57 CA          1.5934  -10.8105  -45.2563 C.3       3 UNK         0.1400 
     58 CB          2.9035  -10.0007  -45.2035 C.3       3 UNK        -0.1800 
     59 N           1.6971  -11.9618  -46.1599 N.am      3 UNK        -0.5000 
     60 C           2.5562  -12.9935  -46.1374 C.2       2 UNK         0.5000 
     61 O           3.4135  -13.1468  -45.2661 O.2       2 UNK        -0.5000 
     62 CA          2.4421  -14.0410  -47.2693 C.3       2 UNK         0.1400 
     63 CB          2.0641  -15.4176  -46.7069 C.3       2 UNK        -0.1800 
     64 N           1.4605  -13.6864  -48.2935 N.am      2 UNK        -0.5000 
     65 C           1.6407  -12.7892  -49.2720 C.2       1 UNK         0.5000 
     66 O           2.7015  -12.1954  -49.4677 O.2       1 UNK        -0.5000 
     67 C          -0.8205  -22.0471  -48.0258 C.2       11 UNK         0.5000 
     68 O          -0.7555  -22.8971  -48.9137 O.2       11 UNK        -0.5000 
     69 N          -1.9661  -21.6606  -47.4458 N.am      12 UNK        -0.5000 
     70 CA         -3.2852  -22.2171  -47.7449 C.3       12 UNK         0.1400 
     71 CB         -4.3521  -21.4654  -46.9352 C.3       12 UNK        -0.1800 
     72 C          -3.3675  -23.7298  -47.4793 C.2       12 UNK         0.5000 
     73 O          -3.8624  -24.4669  -48.3326 O.2       12 UNK        -0.5000 
     74 N          -2.8449  -24.1636  -46.3237 N.am      13 UNK        -0.5000 
     75 CA         -2.7556  -25.5671  -45.9245 C.3       13 UNK         0.1400 
     76 CB         -2.3231  -25.6579  -44.4535 C.3       13 UNK        -0.1800 
     77 C          -1.8131  -26.3869  -46.8240 C.2       13 UNK         0.5000 
     78 O          -2.1705  -27.4997  -47.2101 O.2       13 UNK        -0.5000 
     79 N          -0.6466  -25.8192  -47.1634 N.am      14 UNK        -0.5000 
     80 CA          0.3538  -26.4265  -48.0443 C.3       14 UNK         0.1400 
     81 CB          1.6446  -25.5937  -48.0149 C.3       14 UNK        -0.1800 
     82 C          -0.1466  -26.6000  -49.4890 C.2       14 UNK         0.5000 
     83 O           0.0966  -27.6447  -50.0945 O.2       14 UNK        -0.5000 
     84 N          -0.8583  -25.5886  -50.0045 N.am      15 UNK        -0.5000 
     85 CA         -1.5068  -25.6208  -51.3163 C.3       15 UNK         0.1400 
     86 CB         -1.8490  -24.1842  -51.7388 C.3       15 UNK        -0.1800 
     87 C          -2.7755  -26.4966  -51.3462 C.2       15 UNK         0.5000 
     88 O          -3.2021  -26.8945  -52.4304 O.2       15 UNK        -0.5000 
     89 N          -3.3597  -26.7539  -50.1656 N.am      16 UNK        -0.5000 
     90 CA         -4.6524  -27.4024  -49.9230 C.3       16 UNK         0.1400 
     91 CB         -4.6161  -28.8872  -50.3397 C.3       16 UNK        -0.1800 
     92 C          -5.8103  -26.6084  -50.5639 C.2       16 UNK         0.5000 
     93 O          -6.6871  -27.1866  -51.2096 O.2       16 UNK        -0.5000 
     94 N          -5.7625  -25.2826  -50.3946 N.am      17 UNK        -0.5000 
     95 CA         -6.6557  -24.3119  -51.0145 C.3       17 UNK         0.1400 
     96 CB         -6.2453  -24.0930  -52.4901 C.3       17 UNK        -0.1800 
     97 C          -6.6536  -23.0345  -50.1569 C.2       17 UNK         0.5000 
     98 O          -6.9480  -23.1085  -48.9632 O.2       17 UNK        -0.5000 
     99 N          -6.3156  -21.8959  -50.7672 N.am      18 UNK        -0.5000 
    100 CA        -6.1305  -20.5946  -50.1379 C.3       18 UNK         0.1400 
    101 CB        -7.3546  -19.7116  -50.4259 C.3       18 UNK        -0.1800 
    102 C         -4.8596  -19.9735  -50.7298 C.2       18 UNK         0.5000 
    103 O         -4.5219  -20.2804  -51.8762 O.2       18 UNK        -0.5000 
    104 N         -4.1911  -19.1045  -49.9605 N.am      19 UNK        -0.5000 
    105 CA        -3.0074  -18.3577  -50.3968 C.3       19 UNK         0.1400 
    106 CB        -2.4367  -17.5710  -49.2065 C.3       19 UNK        -0.1800 
    107 C         -3.3186  -17.4142  -51.5757 C.2       19 UNK         0.5000 
    108 O         -4.4596  -16.9689  -51.7237 O.2       19 UNK        -0.5000 
    109 N         -2.3009  -17.1518  -52.4038 N.am      20 UNK        -0.5000 
    110 CA        -2.3162  -16.3931  -53.6632 C.3       20 UNK         0.1400 
    111 CB        -2.8682  -14.9643  -53.4826 C.3       20 UNK        -0.1800 
    112 C         -3.0305  -17.1259  -54.8155 C.2       20 UNK         0.5000 
    113 O         -2.5101  -17.1356  -55.9314 O.2       20 UNK        -0.5000 
    114 N         -4.1901  -17.7332  -54.5323 N.am      21 UNK        -0.5000 
    115 CA        -4.9426  -18.5849  -55.4506 C.3       21 UNK         0.1400 
    116 CB        -6.3570  -18.8153  -54.8913 C.3       21 UNK        -0.1800 
    117 C         -4.2069  -19.9133  -55.6969 C.2       21 UNK         0.5000 
    118 O         -3.8346  -20.2046  -56.8340 O.2       21 UNK        -0.5000 
    119 N         -3.9860  -20.6653  -54.6110 N.am      22 UNK        -0.5000 
    120 CA        -3.1741  -21.8903  -54.5283 C.3       22 UNK         0.1400 
    121 C         -3.6353  -23.0737  -55.4340 C.2       22 UNK         0.5000 
    122 N         -4.8939  -23.1261  -55.8526 N.am      22 UNK        -0.7600 
    123 O         -2.8581  -23.9745  -55.7379 O.2       22 UNK        -0.5000 
    124 C124       -1.6531  -21.5902  -54.6241 C.3       23 UNK        -0.0398 
    125 S125       -1.1093  -20.4740  -53.2867 S.3       23 UNK        -0.2404 
    126 C126        0.6169  -20.1806  -53.7630 C.3       23 UNK        -0.0205 
    127 H127       -2.5992  -13.0146  -46.8747 H         1 UNK         0.0600 
    128 H128       -3.1185  -13.4303  -48.5104 H         1 UNK         0.0600 
    129 H129       -3.4040  -11.8049  -47.8804 H         1 UNK         0.0600 
    130 H130       -1.4239  -13.4879  -49.9571 H         1 UNK         0.3000 
    131 H131        0.4404  -11.4073  -50.3520 H         1 UNK         0.0600 
    132 H132       -0.2358  -12.7912  -52.2097 H         1 UNK         0.0800 
    133 H133        1.4793  -12.9675  -52.0140 H         1 UNK         0.0800 
    134 H134        2.6774  -15.1738  -51.3747 H         1 UNK         0.0800 
    135 H135        2.0715  -15.3217  -53.0123 H         1 UNK         0.0800 
    136 H136        0.8489  -17.4639  -53.6967 H         1 UNK         0.1150 
    137 H137        1.9039  -20.9953  -51.5112 H         1 UNK         0.1150 
    138 H138        2.9968  -17.1344  -49.9996 H         1 UNK         0.1150 
    139 H139        3.1843  -20.8779  -49.5188 H         1 UNK         0.0800 
    140 H140        4.2247  -19.4840  -49.3632 H         1 UNK         0.0800 
    141 H141        0.4474  -20.0123  -49.1837 H         1 UNK         0.0800 
    142 H142       -0.0354  -19.2965  -47.6771 H         1 UNK         0.0800 
    143 H143        1.3004  -22.0389  -47.8407 H         1 UNK         0.0600 
    144 H144        0.6046  -20.4829  -45.5876 H         1 UNK         0.3000 
    145 H145        0.0629  -23.2031  -43.2856 H         1 UNK         0.0600 
    146 H146        1.7199  -21.8320  -42.0470 H         1 UNK         0.0600 
    147 H147        2.4934  -22.7395  -43.3379 H         1 UNK         0.0600 
    148 H148        2.1960  -21.0198  -43.5357 H         1 UNK         0.0600 
    149 H149       -0.1962  -20.3847  -42.9552 H         1 UNK         0.3000 
    150 H150       -3.6802  -20.1926  -43.8329 H         1 UNK         0.0600 
    151 H151       -3.5753  -20.9476  -41.4547 H         1 UNK         0.0600 
    152 H152       -3.7641  -19.2044  -41.5687 H         1 UNK         0.0600 
    153 H153       -2.1933  -19.8966  -41.1711 H         1 UNK         0.0600 
    154 H154       -1.8906  -18.1756  -42.9637 H         1 UNK         0.3000 
    155 H155       -0.5460  -17.3197  -46.1876 H         1 UNK         0.0600 
    156 H156       -2.4017  -15.8615  -44.2356 H         1 UNK         0.0600 
    157 H157       -1.3380  -15.0951  -45.4126 H         1 UNK         0.0600 
    158 H158       -2.6873  -16.0809  -45.9580 H         1 UNK         0.0600 
    159 H159        0.0374  -16.2456  -43.6383 H         1 UNK         0.3000 
    160 H160        2.6104  -18.5955  -42.7205 H         1 UNK         0.0600 
    161 H161        2.6204  -15.6519  -43.5668 H         1 UNK         0.0600 
    162 H162        3.7074  -16.9156  -44.1275 H         1 UNK         0.0600 
    163 H163        3.7734  -16.3927  -42.4544 H         1 UNK         0.0600 
    164 H164        1.3617  -16.3134  -41.4513 H         1 UNK         0.3000 
    165 H165       -0.9956  -18.1952  -39.5602 H         1 UNK         0.0600 
    166 H166        0.1922  -17.1174  -37.6686 H         1 UNK         0.0600 
    167 H167        1.1398  -18.4594  -38.2896 H         1 UNK         0.0600 
    168 H168        1.5980  -16.8079  -38.6881 H         1 UNK         0.0600 
    169 H169       -0.2619  -15.4271  -39.5754 H         1 UNK         0.3000 
    170 H170       -2.4481  -14.3908  -42.1894 H         1 UNK         0.0600 
    171 H171       -3.9095  -14.6057  -40.1728 H         1 UNK         0.0600 
    172 H172       -2.6102  -13.9996  -39.1526 H         1 UNK         0.0600 
    173 H173       -3.3366  -12.9584  -40.3774 H         1 UNK         0.0600 
    174 H174       -0.8044  -12.8750  -40.4653 H         1 UNK         0.3000 
    175 H175        0.9762  -11.8140  -41.2540 H         1 UNK         0.0600 
    176 H176        2.9652  -14.0860  -41.7878 H         1 UNK         0.0600 
    177 H177        3.3186  -12.5527  -41.0008 H         1 UNK         0.0600 
    178 H178        2.2532  -13.7122  -40.2225 H         1 UNK         0.0600 
    179 H179        2.4903  -12.5939  -43.6609 H         1 UNK         0.3000 
    180 H180        0.8387  -10.1636  -45.7065 H         1 UNK         0.0600 
    181 H181        2.7713   -9.0895  -44.6189 H         1 UNK         0.0600 
    182 H182        3.2217   -9.7025  -46.2025 H         1 UNK         0.0600 
    183 H183        3.7178  -10.5627  -44.7459 H         1 UNK         0.0600 
    184 H184        1.0015  -11.9561  -46.8980 H         1 UNK         0.3000 
    185 H185        3.4232  -14.1226  -47.7416 H         1 UNK         0.0600 
    186 H186        2.8442  -15.7927  -46.0463 H         1 UNK         0.0600 
    187 H187        1.1379  -15.3695  -46.1353 H         1 UNK         0.0600 
    188 H188        1.9351  -16.1544  -47.5004 H         1 UNK         0.0600 
    189 H189        0.5556  -14.1276  -48.2224 H         1 UNK         0.3000 
    190 H190       -1.9377  -20.9209  -46.7480 H         1 UNK         0.3000 
    191 H191       -3.4804  -22.0567  -48.8070 H         1 UNK         0.0600 
    192 H192       -4.1739  -21.5418  -45.8637 H         1 UNK         0.0600 
    193 H193       -5.3465  -21.8706  -47.1228 H         1 UNK         0.0600 
    194 H194       -4.3707  -20.4065  -47.1914 H         1 UNK         0.0600 
    195 H195       -2.4953  -23.4801  -45.6581 H         1 UNK         0.3000 
    196 H196       -3.7544  -26.0002  -46.0102 H         1 UNK         0.0600 
    197 H197       -2.2653  -26.6966  -44.1258 H         1 UNK         0.0600 
    198 H198       -3.0348  -25.1502  -43.8023 H         1 UNK         0.0600 
    199 H199       -1.3437  -25.2066  -44.2924 H         1 UNK         0.0600 
    200 H200       -0.4028  -24.9186  -46.7579 H         1 UNK         0.3000 
    201 H201        0.5833  -27.4194  -47.6521 H         1 UNK         0.0600 
    202 H202        2.0594  -25.5463  -47.0080 H         1 UNK         0.0600 
    203 H203        1.4720  -24.5718  -48.3539 H         1 UNK         0.0600 
    204 H204        2.4076  -26.0305  -48.6603 H         1 UNK         0.0600 
    205 H205       -0.9588  -24.7304  -49.4675 H         1 UNK         0.3000 
    206 H206       -0.8024  -26.0312  -52.0427 H         1 UNK         0.0600 
    207 H207       -0.9594  -23.5544  -51.7689 H         1 UNK         0.0600 
    208 H208       -2.2871  -24.1769  -52.7363 H         1 UNK         0.0600 
    209 H209       -2.5649  -23.7215  -51.0576 H         1 UNK         0.0600 
    210 H210       -2.9330  -26.3420  -49.3462 H         1 UNK         0.3000 
    211 H211       -4.8139  -27.3657  -48.8447 H         1 UNK         0.0600 
    212 H212       -4.5106  -29.0061  -51.4183 H         1 UNK         0.0600 
    213 H213       -5.5337  -29.3965  -50.0435 H         1 UNK         0.0600 
    214 H214       -3.7866  -29.4083  -49.8616 H         1 UNK         0.0600 
    215 H215       -5.0564  -24.9005  -49.7683 H         1 UNK         0.3000 
    216 H216       -7.6756  -24.7006  -50.9901 H         1 UNK         0.0600 
    217 H217       -6.9003  -23.3755  -52.9859 H         1 UNK         0.0600 
    218 H218       -6.3110  -25.0210  -53.0583 H         1 UNK         0.0600 
    219 H219       -5.2191  -23.7334  -52.5755 H         1 UNK         0.0600 
    220 H220       -6.0167  -21.9278  -51.7329 H         1 UNK         0.3000 
    221 H221       -6.0072  -20.7012  -49.0607 H         1 UNK         0.0600 
    222 H222       -7.5036  -19.5668  -51.4968 H         1 UNK         0.0600 
    223 H223       -8.2634  -20.1547  -50.0183 H         1 UNK         0.0600 
    224 H224       -7.2410  -18.7255  -49.9738 H         1 UNK         0.0600 
    225 H225       -4.5576  -18.8659  -49.0516 H         1 UNK         0.3000 
    226 H226       -2.2595  -19.0840  -50.7225 H         1 UNK         0.0600 
    227 H227       -1.5255  -17.0405  -49.4868 H         1 UNK         0.0600 
    228 H228       -3.1468  -16.8321  -48.8331 H         1 UNK         0.0600 
    229 H229       -2.1814  -18.2375  -48.3840 H         1 UNK         0.0600 
    230 H230       -1.4113  -17.5842  -52.1958 H         1 UNK         0.3000 
    231 H231       -1.2692  -16.2977  -53.9539 H         1 UNK         0.0600 
    232 H232       -2.6905  -14.3685  -54.3784 H         1 UNK         0.0600 
    233 H233       -2.3876  -14.4512  -52.6508 H         1 UNK         0.0600 
    234 H234       -3.9431  -14.9583  -53.3015 H         1 UNK         0.0600 
    235 H235       -4.5369  -17.6536  -53.5819 H         1 UNK         0.3000 
    236 H236       -5.0355  -18.0665  -56.4072 H         1 UNK         0.0600 
    237 H237       -6.9031  -17.8753  -54.8104 H         1 UNK         0.0600 
    238 H238       -6.9338  -19.4704  -55.5452 H         1 UNK         0.0600 
    239 H239       -6.3363  -19.2721  -53.9011 H         1 UNK         0.0600 
    240 H240       -4.3053  -20.3268  -53.7063 H         1 UNK         0.3000 
    241 H241       -3.3542  -22.2601  -53.5194 H         1 UNK         0.0600 
    242 H242       -5.1920  -23.8955  -56.4308 H         1 UNK         0.3800 
    243 H243       -5.5413  -22.3903  -55.6219 H         1 UNK         0.3800 
    244 H244       -1.0681  -22.5076  -54.5425 H         1 UNK         0.0800 
    245 H245       -1.4094  -21.1479  -55.5911 H         1 UNK         0.0800 
    246 H246        1.1353  -21.1347  -53.8701 H         1 UNK         0.0800 
    247 H247        0.6493  -19.6945  -54.7394 H         1 UNK         0.0800 
@<TRIPOS>BOND
     1    1    2 1    
     2    1  127 1    
     3    1  128 1    
     4    1  129 1    
     5    2    3 2    
     6    2    4 am   BACKBONE|DICT|INTERRES
     7    4    5 1    
     8    4  130 1    
     9    5    6 1    
    10    5   65 1    
    11    5  131 1    
    12    6    7 1    
    13    6  132 1    
    14    6  133 1    
    15    7    8 1    
    16    8    9 1    
    17    8  134 1    
    18    8  135 1    
    19    9   10 ar   
    20    9   14 ar   
    21   10   11 ar   
    22   10  136 1    
    23   11   12 ar   
    24   11  126 1    
    25   12   13 ar   
    26   12  137 1    
    27   13   14 ar   
    28   13   15 1    
    29   14  138 1    
    30   15   16 1    
    31   15  139 1    
    32   15  140 1    
    33   16   17 1    
    34   17   18 1    
    35   17  141 1    
    36   17  142 1    
    37   18   19 1    
    38   18   67 1    
    39   18  143 1    
    40   19   20 am   BACKBONE|DICT|INTERRES
    41   19  144 1    
    42   20   21 2    
    43   20   22 1    
    44   22   23 1    
    45   22   24 1    
    46   22  145 1    
    47   23  146 1    
    48   23  147 1    
    49   23  148 1    
    50   24   25 am   BACKBONE|DICT|INTERRES
    51   24  149 1    
    52   25   26 2    
    53   25   27 1    
    54   27   28 1    
    55   27   29 1    
    56   27  150 1    
    57   28  151 1    
    58   28  152 1    
    59   28  153 1    
    60   29   30 am   BACKBONE|DICT|INTERRES
    61   29  154 1    
    62   30   31 2    
    63   30   32 1    
    64   32   33 1    
    65   32   34 1    
    66   32  155 1    
    67   33  156 1    
    68   33  157 1    
    69   33  158 1    
    70   34   35 am   BACKBONE|DICT|INTERRES
    71   34  159 1    
    72   35   36 2    
    73   35   37 1    
    74   37   38 1    
    75   37   39 1    
    76   37  160 1    
    77   38  161 1    
    78   38  162 1    
    79   38  163 1    
    80   39   40 am   BACKBONE|DICT|INTERRES
    81   39  164 1    
    82   40   41 2    
    83   40   42 1    
    84   42   43 1    
    85   42   44 1    
    86   42  165 1    
    87   43  166 1    
    88   43  167 1    
    89   43  168 1    
    90   44   45 am   BACKBONE|DICT|INTERRES
    91   44  169 1    
    92   45   46 2    
    93   45   47 1    
    94   47   48 1    
    95   47   49 1    
    96   47  170 1    
    97   48  171 1    
    98   48  172 1    
    99   48  173 1    
   100   49   50 am   BACKBONE|DICT|INTERRES
   101   49  174 1    
   102   50   51 2    
   103   50   52 1    
   104   52   53 1    
   105   52   54 1    
   106   52  175 1    
   107   53  176 1    
   108   53  177 1    
   109   53  178 1    
   110   54   55 am   BACKBONE|DICT|INTERRES
   111   54  179 1    
   112   55   56 2    
   113   55   57 1    
   114   57   58 1    
   115   57   59 1    
   116   57  180 1    
   117   58  181 1    
   118   58  182 1    
   119   58  183 1    
   120   59   60 am   BACKBONE|DICT|INTERRES
   121   59  184 1    
   122   60   61 2    
   123   60   62 1    
   124   62   63 1    
   125   62   64 1    
   126   62  185 1    
   127   63  186 1    
   128   63  187 1    
   129   63  188 1    
   130   64   65 am   BACKBONE|DICT|INTERRES
   131   64  189 1    
   132   65   66 2    
   133   67   68 2    
   134   67   69 am   BACKBONE|DICT|INTERRES
   135   69   70 1    
   136   69  190 1    
   137   70   71 1    
   138   70   72 1    
   139   70  191 1    
   140   71  192 1    
   141   71  193 1    
   142   71  194 1    
   143   72   73 2    
   144   72   74 am   BACKBONE|DICT|INTERRES
   145   74   75 1    
   146   74  195 1    
   147   75   76 1    
   148   75   77 1    
   149   75  196 1    
   150   76  197 1    
   151   76  198 1    
   152   76  199 1    
   153   77   78 2    
   154   77   79 am   BACKBONE|DICT|INTERRES
   155   79   80 1    
   156   79  200 1    
   157   80   81 1    
   158   80   82 1    
   159   80  201 1    
   160   81  202 1    
   161   81  203 1    
   162   81  204 1    
   163   82   83 2    
   164   82   84 am   BACKBONE|DICT|INTERRES
   165   84   85 1    
   166   84  205 1    
   167   85   86 1    
   168   85   87 1    
   169   85  206 1    
   170   86  207 1    
   171   86  208 1    
   172   86  209 1    
   173   87   88 2    
   174   87   89 am   BACKBONE|DICT|INTERRES
   175   89   90 1    
   176   89  210 1    
   177   90   91 1    
   178   90   92 1    
   179   90  211 1    
   180   91  212 1    
   181   91  213 1    
   182   91  214 1    
   183   92   93 2    
   184   92   94 am   BACKBONE|DICT|INTERRES
   185   94   95 1    
   186   94  215 1    
   187   95   96 1    
   188   95   97 1    
   189   95  216 1    
   190   96  217 1    
   191   96  218 1    
   192   96  219 1    
   193   97   98 2    
   194   97   99 am   BACKBONE|DICT|INTERRES
   195   99  100 1    
   196   99  220 1    
   197  100  101 1    
   198  100  102 1    
   199  100  221 1    
   200  101  222 1    
   201  101  223 1    
   202  101  224 1    
   203  102  103 2    
   204  102  104 am   BACKBONE|DICT|INTERRES
   205  104  105 1    
   206  104  225 1    
   207  105  106 1    
   208  105  107 1    
   209  105  226 1    
   210  106  227 1    
   211  106  228 1    
   212  106  229 1    
   213  107  108 2    
   214  107  109 am   BACKBONE|DICT|INTERRES
   215  109  110 1    
   216  109  230 1    
   217  110  111 1    
   218  110  112 1    
   219  110  231 1    
   220  111  232 1    
   221  111  233 1    
   222  111  234 1    
   223  112  113 2    
   224  112  114 am   BACKBONE|DICT|INTERRES
   225  114  115 1    
   226  114  235 1    
   227  115  116 1    
   228  115  117 1    
   229  115  236 1    
   230  116  237 1    
   231  116  238 1    
   232  116  239 1    
   233  117  118 2    
   234  117  119 am   BACKBONE|DICT|INTERRES
   235  119  120 1    
   236  119  240 1    
   237  120  121 1    
   238  120  124 1    
   239  120  241 1    
   240  121  122 am   BACKBONE|DICT|INTERRES
   241  121  123 2    
   242  122  242 1    
   243  122  243 1    
   244  124  125 1    
   245  124  244 1    
   246  124  245 1    
   247  125  126 1    
   248  126  246 1    
   249  126  247 1    
@<TRIPOS>SUBSTRUCTURE
     1 UNK         1 GROUP             0       ****    0 ROOT    
