@<TRIPOS>MOLECULE
3R540
247   249    1
SMALL
USER_CHARGES


@<TRIPOS>ATOM
      1 CA          6.3398  -10.4805  -49.1625 C.3       0 UNK        -0.1800 
      2 C           5.5117  -11.3096  -48.1920 C.2       0 UNK         0.5000 
      3 O           4.8356  -10.7494  -47.3292 O.2       0 UNK        -0.5000 
      4 N           5.5412  -12.6421  -48.3398 N.am      1 UNK        -0.5000 
      5 CA          4.8401  -13.6076  -47.4792 C.3       1 UNK         0.1400 
      6 C6          5.2953  -15.0592  -47.7673 C.3       23 UNK        -0.0398 
      7 S7          5.0261  -16.1569  -46.3349 S.3       23 UNK        -0.2404 
      8 C8          5.0519  -17.8071  -47.1104 C.3       23 UNK        -0.0205 
      9 C9          3.9470  -18.0832  -48.1314 C.ar      23 UNK        -0.0193 
     10 C10         2.7068  -17.4290  -48.1073 C.ar      23 UNK        -0.1150 
     11 C11         1.7301  -17.7178  -49.0672 C.ar      23 UNK        -0.0193 
     12 C12         1.9938  -18.6765  -50.0494 C.ar      23 UNK        -0.1150 
     13 C13         3.2212  -19.3436  -50.0801 C.ar      23 UNK        -0.0193 
     14 C14         4.1873  -19.0433  -49.1181 C.ar      23 UNK        -0.1150 
     15 C15         3.5262  -20.3667  -51.1651 C.3       23 UNK        -0.0205 
     16 S16         3.3063  -22.0779  -50.5813 S.3       23 UNK        -0.2404 
     17 C17         1.4899  -22.2263  -50.6147 C.3       23 UNK        -0.0398 
     18 CA          0.9273  -23.1692  -49.5254 C.3       11 UNK         0.1400 
     19 N           1.3724  -22.8233  -48.1718 N.am      11 UNK        -0.5000 
     20 C           1.1479  -23.5720  -47.0813 C.2       10 UNK         0.5000 
     21 O           0.5693  -24.6587  -47.1041 O.2       10 UNK        -0.5000 
     22 CA          1.5981  -22.9799  -45.7322 C.3       10 UNK         0.1400 
     23 CB          3.0638  -23.3375  -45.4471 C.3       10 UNK        -0.1800 
     24 N           1.4347  -21.5265  -45.6607 N.am      10 UNK        -0.5000 
     25 C           0.2772  -20.8674  -45.7854 C.2       9 UNK         0.5000 
     26 O          -0.8080  -21.4324  -45.9366 O.2       9 UNK        -0.5000 
     27 CA          0.3643  -19.3266  -45.7831 C.3       9 UNK         0.1400 
     28 CB         -0.9752  -18.6668  -46.1418 C.3       9 UNK        -0.1800 
     29 N           0.8630  -18.7611  -44.5259 N.am      9 UNK        -0.5000 
     30 C           2.1382  -18.8005  -44.1137 C.2       8 UNK         0.5000 
     31 O           3.0257  -19.3928  -44.7290 O.2       8 UNK        -0.5000 
     32 CA          2.5101  -18.0497  -42.8211 C.3       8 UNK         0.1400 
     33 CB          3.4646  -16.8895  -43.1380 C.3       8 UNK        -0.1800 
     34 N           1.3670  -17.5205  -42.0712 N.am      8 UNK        -0.5000 
     35 C           0.6697  -18.2336  -41.1759 C.2       7 UNK         0.5000 
     36 O           0.8221  -19.4447  -41.0137 O.2       7 UNK        -0.5000 
     37 CA         -0.3479  -17.4881  -40.2958 C.3       7 UNK         0.1400 
     38 CB          0.3272  -16.9572  -39.0204 C.3       7 UNK        -0.1800 
     39 N          -1.0041  -16.3806  -40.9921 N.am      7 UNK        -0.5000 
     40 C          -2.3139  -16.1031  -40.9029 C.2       6 UNK         0.5000 
     41 O          -3.1005  -16.7390  -40.1995 O.2       6 UNK        -0.5000 
     42 CA         -2.8537  -14.9199  -41.7364 C.3       6 UNK         0.1400 
     43 CB         -3.0015  -13.6684  -40.8575 C.3       6 UNK        -0.1800 
     44 N          -2.0223  -14.5865  -42.8929 N.am      6 UNK        -0.5000 
     45 C          -1.7811  -15.4009  -43.9280 C.2       5 UNK         0.5000 
     46 O          -2.3378  -16.4875  -44.0785 O.2       5 UNK        -0.5000 
     47 CA         -0.7114  -14.9571  -44.9451 C.3       5 UNK         0.1400 
     48 CB         -1.3651  -14.5818  -46.2820 C.3       5 UNK        -0.1800 
     49 N           0.1625  -13.8617  -44.5161 N.am      5 UNK        -0.5000 
     50 C           0.9835  -13.8681  -43.4549 C.2       4 UNK         0.5000 
     51 O           0.9853  -14.7665  -42.6095 O.2       4 UNK        -0.5000 
     52 CA          1.9597  -12.6839  -43.3097 C.3       4 UNK         0.1400 
     53 CB          3.4008  -13.1834  -43.1131 C.3       4 UNK        -0.1800 
     54 N           1.9335  -11.8067  -44.4822 N.am      4 UNK        -0.5000 
     55 C           1.3614  -10.5966  -44.5425 C.2       3 UNK         0.5000 
     56 O           0.7765  -10.0724  -43.5944 O.2       3 UNK        -0.5000 
     57 CA          1.4503   -9.8388  -45.8840 C.3       3 UNK         0.1400 
     58 CB          2.5200   -8.7387  -45.8076 C.3       3 UNK        -0.1800 
     59 N           1.7461  -10.7152  -47.0206 N.am      3 UNK        -0.5000 
     60 C           0.8447  -11.5183  -47.6067 C.2       2 UNK         0.5000 
     61 O          -0.3415  -11.5511  -47.2815 O.2       2 UNK        -0.5000 
     62 CA          1.3493  -12.4786  -48.7058 C.3       2 UNK         0.1400 
     63 CB          1.1111  -11.8809  -50.0999 C.3       2 UNK        -0.1800 
     64 N           2.7611  -12.8432  -48.5744 N.am      2 UNK        -0.5000 
     65 C           3.2995  -13.4644  -47.5148 C.2       1 UNK         0.5000 
     66 O           2.6315  -13.8510  -46.5564 O.2       1 UNK        -0.5000 
     67 C          -0.6093  -23.1984  -49.6195 C.2       11 UNK         0.5000 
     68 O          -1.1621  -24.1283  -50.2039 O.2       11 UNK        -0.5000 
     69 N          -1.2671  -22.1953  -49.0164 N.am      12 UNK        -0.5000 
     70 CA         -2.7243  -22.0877  -48.9632 C.3       12 UNK         0.1400 
     71 CB         -3.1418  -20.7051  -48.4433 C.3       12 UNK        -0.1800 
     72 C          -3.3390  -23.1948  -48.0974 C.2       12 UNK         0.5000 
     73 O          -4.3452  -23.7738  -48.4962 O.2       12 UNK        -0.5000 
     74 N          -2.7021  -23.4997  -46.9575 N.am      13 UNK        -0.5000 
     75 CA         -3.0887  -24.5880  -46.0589 C.3       13 UNK         0.1400 
     76 CB         -2.2155  -24.5514  -44.7959 C.3       13 UNK        -0.1800 
     77 C          -3.0260  -25.9683  -46.7402 C.2       13 UNK         0.5000 
     78 O          -3.9771  -26.7425  -46.6271 O.2       13 UNK        -0.5000 
     79 N          -1.9383  -26.2281  -47.4807 N.am      14 UNK        -0.5000 
     80 CA         -1.7501  -27.4374  -48.2872 C.3       14 UNK         0.1400 
     81 CB         -0.3055  -27.4786  -48.8079 C.3       14 UNK        -0.1800 
     82 C          -2.7520  -27.5468  -49.4545 C.2       14 UNK         0.5000 
     83 O          -3.2214  -28.6439  -49.7574 O.2       14 UNK        -0.5000 
     84 N          -3.0798  -26.4028  -50.0667 N.am      15 UNK        -0.5000 
     85 CA         -4.0423  -26.2601  -51.1601 C.3       15 UNK         0.1400 
     86 CB         -3.6820  -24.9877  -51.9382 C.3       15 UNK        -0.1800 
     87 C          -5.5155  -26.2039  -50.7028 C.2       15 UNK         0.5000 
     88 O          -6.3965  -26.0399  -51.5521 O.2       15 UNK        -0.5000 
     89 N          -5.7571  -26.2775  -49.3834 N.am      16 UNK        -0.5000 
     90 CA         -7.0489  -26.1603  -48.6917 C.3       16 UNK         0.1400 
     91 CB         -7.9303  -27.3877  -49.0008 C.3       16 UNK        -0.1800 
     92 C          -7.7786  -24.8247  -48.9672 C.2       16 UNK         0.5000 
     93 O          -9.0086  -24.7724  -48.9220 O.2       16 UNK        -0.5000 
     94 N          -6.9985  -23.7835  -49.2944 N.am      17 UNK        -0.5000 
     95 CA         -7.3852  -22.4596  -49.7928 C.3       17 UNK         0.1400 
     96 CB         -8.0973  -21.6553  -48.6872 C.3       17 UNK        -0.1800 
     97 C          -8.1900  -22.4888  -51.1141 C.2       17 UNK         0.5000 
     98 O          -8.8024  -21.4805  -51.4703 O.2       17 UNK        -0.5000 
     99 N          -8.1922  -23.6339  -51.8104 N.am      18 UNK        -0.5000 
    100 CA        -9.0081  -23.8952  -52.9910 C.3       18 UNK         0.1400 
    101 CB        -9.7183  -25.2484  -52.8204 C.3       18 UNK        -0.1800 
    102 C         -8.1506  -23.8843  -54.2610 C.2       18 UNK         0.5000 
    103 O         -8.4907  -23.1811  -55.2132 O.2       18 UNK        -0.5000 
    104 N         -7.0550  -24.6576  -54.2591 N.am      19 UNK        -0.5000 
    105 CA        -6.1613  -24.7876  -55.4144 C.3       19 UNK         0.1400 
    106 CB        -5.4108  -26.1272  -55.3343 C.3       19 UNK        -0.1800 
    107 C         -5.1856  -23.6033  -55.5669 C.2       19 UNK         0.5000 
    108 O         -4.6868  -23.3735  -56.6694 O.2       19 UNK        -0.5000 
    109 N         -4.9384  -22.8722  -54.4742 N.am      20 UNK        -0.5000 
    110 CA        -4.0525  -21.7178  -54.3805 C.3       20 UNK         0.1400 
    111 CB        -2.5784  -22.1558  -54.4932 C.3       20 UNK        -0.1800 
    112 C         -4.2955  -21.0284  -53.0316 C.2       20 UNK         0.5000 
    113 O         -4.7361  -21.6836  -52.0835 O.2       20 UNK        -0.5000 
    114 N         -3.9707  -19.7342  -52.9665 N.am      21 UNK        -0.5000 
    115 CA        -3.9837  -18.8900  -51.7757 C.3       21 UNK         0.1400 
    116 CB        -5.4208  -18.6843  -51.2529 C.3       21 UNK        -0.1800 
    117 C         -3.3378  -17.5405  -52.1292 C.2       21 UNK         0.5000 
    118 O         -3.2803  -17.1855  -53.3102 O.2       21 UNK        -0.5000 
    119 N         -2.8929  -16.8023  -51.1044 N.am      22 UNK        -0.5000 
    120 CA        -2.4065  -15.4142  -51.2338 C.3       22 UNK         0.1400 
    121 C         -3.5440  -14.3487  -51.2889 C.2       22 UNK         0.5000 
    122 N         -4.8054  -14.6971  -51.0643 N.am      22 UNK        -0.7600 
    123 O         -3.2773  -13.1801  -51.5546 O.2       22 UNK        -0.5000 
    124 C124       -1.3680  -15.0581  -50.1364 C.3       23 UNK        -0.0398 
    125 S125        0.2584  -15.8279  -50.4359 S.3       23 UNK        -0.2404 
    126 C126        0.3896  -16.9977  -49.0510 C.3       23 UNK        -0.0205 
    127 H127        6.8756  -11.1065  -49.8765 H         1 UNK         0.0600 
    128 H128        7.0710   -9.8849  -48.6160 H         1 UNK         0.0600 
    129 H129        5.6947   -9.8021  -49.7208 H         1 UNK         0.0600 
    130 H130        6.1061  -13.0394  -49.0773 H         1 UNK         0.3000 
    131 H131        5.1423  -13.3616  -46.4585 H         1 UNK         0.0600 
    132 H132        4.8004  -15.4558  -48.6553 H         1 UNK         0.0800 
    133 H133        6.3645  -15.0836  -47.9821 H         1 UNK         0.0800 
    134 H134        4.9850  -18.5575  -46.3226 H         1 UNK         0.0800 
    135 H135        6.0287  -17.9414  -47.5777 H         1 UNK         0.0800 
    136 H136        2.4973  -16.6927  -47.3443 H         1 UNK         0.1150 
    137 H137        1.2447  -18.8882  -50.7994 H         1 UNK         0.1150 
    138 H138        5.1368  -19.5600  -49.1434 H         1 UNK         0.1150 
    139 H139        2.9043  -20.1945  -52.0451 H         1 UNK         0.0800 
    140 H140        4.5578  -20.2414  -51.4973 H         1 UNK         0.0800 
    141 H141        1.2066  -22.5844  -51.6064 H         1 UNK         0.0800 
    142 H142        1.0478  -21.2353  -50.5161 H         1 UNK         0.0800 
    143 H143        1.2870  -24.1787  -49.7368 H         1 UNK         0.0600 
    144 H144        1.8814  -21.9576  -48.0705 H         1 UNK         0.3000 
    145 H145        0.9773  -23.4227  -44.9511 H         1 UNK         0.0600 
    146 H146        3.3693  -22.9895  -44.4601 H         1 UNK         0.0600 
    147 H147        3.2145  -24.4176  -45.4721 H         1 UNK         0.0600 
    148 H148        3.7367  -22.8937  -46.1821 H         1 UNK         0.0600 
    149 H149        2.2687  -20.9715  -45.4864 H         1 UNK         0.3000 
    150 H150        1.0707  -19.0620  -46.5703 H         1 UNK         0.0600 
    151 H151       -1.3256  -19.0109  -47.1123 H         1 UNK         0.0600 
    152 H152       -0.8798  -17.5874  -46.2169 H         1 UNK         0.0600 
    153 H153       -1.7492  -18.8899  -45.4065 H         1 UNK         0.0600 
    154 H154        0.1871  -18.2976  -43.9369 H         1 UNK         0.3000 
    155 H155        3.0511  -18.7549  -42.1864 H         1 UNK         0.0600 
    156 H156        4.3948  -17.2589  -43.5708 H         1 UNK         0.0600 
    157 H157        3.7267  -16.3320  -42.2389 H         1 UNK         0.0600 
    158 H158        3.0251  -16.1934  -43.8532 H         1 UNK         0.0600 
    159 H159        1.2078  -16.5205  -42.1644 H         1 UNK         0.3000 
    160 H160       -1.0916  -18.2314  -40.0006 H         1 UNK         0.0600 
    161 H161        1.0715  -16.1935  -39.2496 H         1 UNK         0.0600 
    162 H162        0.8320  -17.7591  -38.4802 H         1 UNK         0.0600 
    163 H163       -0.4044  -16.5188  -38.3415 H         1 UNK         0.0600 
    164 H164       -0.4224  -15.7967  -41.5827 H         1 UNK         0.3000 
    165 H165       -3.8425  -15.2019  -42.1041 H         1 UNK         0.0600 
    166 H166       -3.4534  -12.8463  -41.4128 H         1 UNK         0.0600 
    167 H167       -3.6417  -13.8681  -39.9971 H         1 UNK         0.0600 
    168 H168       -2.0372  -13.3287  -40.4772 H         1 UNK         0.0600 
    169 H169       -1.5150  -13.7152  -42.8505 H         1 UNK         0.3000 
    170 H170       -0.0592  -15.8156  -45.1104 H         1 UNK         0.0600 
    171 H171       -2.0177  -15.3781  -46.6420 H         1 UNK         0.0600 
    172 H172       -1.9682  -13.6775  -46.1937 H         1 UNK         0.0600 
    173 H173       -0.6115  -14.4094  -47.0482 H         1 UNK         0.0600 
    174 H174        0.2280  -13.0767  -45.1478 H         1 UNK         0.3000 
    175 H175        1.6654  -12.1342  -42.4138 H         1 UNK         0.0600 
    176 H176        3.4851  -13.8010  -42.2184 H         1 UNK         0.0600 
    177 H177        3.7392  -13.7813  -43.9604 H         1 UNK         0.0600 
    178 H178        4.0931  -12.3497  -42.9954 H         1 UNK         0.0600 
    179 H179        2.3457  -12.1964  -45.3223 H         1 UNK         0.3000 
    180 H180        0.4848   -9.3582  -46.0558 H         1 UNK         0.0600 
    181 H181        3.5068   -9.1508  -45.5942 H         1 UNK         0.0600 
    182 H182        2.2875   -8.0228  -45.0182 H         1 UNK         0.0600 
    183 H183        2.5832   -8.1821  -46.7428 H         1 UNK         0.0600 
    184 H184        2.7154  -10.7552  -47.3173 H         1 UNK         0.3000 
    185 H185        0.7690  -13.3980  -48.6258 H         1 UNK         0.0600 
    186 H186        1.3700  -12.5937  -50.8831 H         1 UNK         0.0600 
    187 H187        0.0616  -11.6171  -50.2381 H         1 UNK         0.0600 
    188 H188        1.7010  -10.9770  -50.2564 H         1 UNK         0.0600 
    189 H189        3.3784  -12.5404  -49.3133 H         1 UNK         0.3000 
    190 H190       -0.7421  -21.5110  -48.4937 H         1 UNK         0.3000 
    191 H191       -3.1034  -22.1950  -49.9809 H         1 UNK         0.0600 
    192 H192       -2.9840  -20.6127  -47.3686 H         1 UNK         0.0600 
    193 H193       -4.2027  -20.5315  -48.6286 H         1 UNK         0.0600 
    194 H194       -2.5870  -19.9075  -48.9348 H         1 UNK         0.0600 
    195 H195       -1.9054  -22.9346  -46.6803 H         1 UNK         0.3000 
    196 H196       -4.1241  -24.4130  -45.7593 H         1 UNK         0.0600 
    197 H197       -2.5291  -25.3158  -44.0840 H         1 UNK         0.0600 
    198 H198       -2.2894  -23.5869  -44.2930 H         1 UNK         0.0600 
    199 H199       -1.1650  -24.7288  -45.0246 H         1 UNK         0.0600 
    200 H200       -1.1802  -25.5521  -47.4910 H         1 UNK         0.3000 
    201 H201       -1.9029  -28.3013  -47.6371 H         1 UNK         0.0600 
    202 H202        0.4096  -27.4798  -47.9850 H         1 UNK         0.0600 
    203 H203       -0.0820  -26.6199  -49.4420 H         1 UNK         0.0600 
    204 H204       -0.1267  -28.3790  -49.3968 H         1 UNK         0.0600 
    205 H205       -2.5985  -25.5538  -49.7894 H         1 UNK         0.3000 
    206 H206       -3.9464  -27.1135  -51.8340 H         1 UNK         0.0600 
    207 H207       -2.6863  -25.0585  -52.3758 H         1 UNK         0.0600 
    208 H208       -4.3813  -24.8086  -52.7490 H         1 UNK         0.0600 
    209 H209       -3.7065  -24.1075  -51.2965 H         1 UNK         0.0600 
    210 H210       -4.9529  -26.3516  -48.7740 H         1 UNK         0.3000 
    211 H211       -6.8238  -26.1693  -47.6244 H         1 UNK         0.0600 
    212 H212       -8.2468  -27.4046  -50.0443 H         1 UNK         0.0600 
    213 H213       -8.8306  -27.3900  -48.3855 H         1 UNK         0.0600 
    214 H214       -7.3975  -28.3164  -48.7966 H         1 UNK         0.0600 
    215 H215       -5.9924  -23.9239  -49.2102 H         1 UNK         0.3000 
    216 H216       -6.4507  -21.9464  -50.0210 H         1 UNK         0.0600 
    217 H217       -8.2555  -20.6209  -48.9942 H         1 UNK         0.0600 
    218 H218       -7.5034  -21.6327  -47.7734 H         1 UNK         0.0600 
    219 H219       -9.0725  -22.0781  -48.4446 H         1 UNK         0.0600 
    220 H220       -7.6327  -24.4086  -51.4708 H         1 UNK         0.3000 
    221 H221       -9.7785  -23.1290  -53.1009 H         1 UNK         0.0600 
    222 H222       -9.0106  -26.0676  -52.6866 H         1 UNK         0.0600 
    223 H223      -10.3772  -25.2362  -51.9519 H         1 UNK         0.0600 
    224 H224      -10.3317  -25.4811  -53.6917 H         1 UNK         0.0600 
    225 H225       -6.8380  -25.2105  -53.4369 H         1 UNK         0.3000 
    226 H226       -6.7700  -24.8141  -56.3210 H         1 UNK         0.0600 
    227 H227       -6.1075  -26.9655  -55.3263 H         1 UNK         0.0600 
    228 H228       -4.7574  -26.2592  -56.1976 H         1 UNK         0.0600 
    229 H229       -4.7908  -26.2039  -54.4430 H         1 UNK         0.0600 
    230 H230       -5.4100  -23.0961  -53.6071 H         1 UNK         0.3000 
    231 H231       -4.2960  -21.0197  -55.1839 H         1 UNK         0.0600 
    232 H232       -2.3673  -22.6175  -55.4574 H         1 UNK         0.0600 
    233 H233       -2.3137  -22.8721  -53.7144 H         1 UNK         0.0600 
    234 H234       -1.9070  -21.3021  -54.3942 H         1 UNK         0.0600 
    235 H235       -3.6189  -19.2563  -53.7880 H         1 UNK         0.3000 
    236 H236       -3.3758  -19.3731  -51.0116 H         1 UNK         0.0600 
    237 H237       -5.4343  -18.0250  -50.3846 H         1 UNK         0.0600 
    238 H238       -6.0629  -18.2405  -52.0146 H         1 UNK         0.0600 
    239 H239       -5.8774  -19.6225  -50.9394 H         1 UNK         0.0600 
    240 H240       -2.9815  -17.1562  -50.1638 H         1 UNK         0.3000 
    241 H241       -1.8988  -15.3231  -52.1962 H         1 UNK         0.0600 
    242 H242       -5.5261  -13.9937  -51.1116 H         1 UNK         0.3800 
    243 H243       -5.0511  -15.6493  -50.8519 H         1 UNK         0.3800 
    244 H244       -1.1908  -13.9819  -50.1014 H         1 UNK         0.0800 
    245 H245       -1.7448  -15.3291  -49.1500 H         1 UNK         0.0800 
    246 H246        0.2605  -16.4591  -48.1117 H         1 UNK         0.0800 
    247 H247       -0.4188  -17.7270  -49.1139 H         1 UNK         0.0800 
@<TRIPOS>BOND
     1    1    2 1    
     2    1  127 1    
     3    1  128 1    
     4    1  129 1    
     5    2    3 2    
     6    2    4 am   BACKBONE|DICT|INTERRES
     7    4    5 1    
     8    4  130 1    
     9    5    6 1    
    10    5   65 1    
    11    5  131 1    
    12    6    7 1    
    13    6  132 1    
    14    6  133 1    
    15    7    8 1    
    16    8    9 1    
    17    8  134 1    
    18    8  135 1    
    19    9   10 ar   
    20    9   14 ar   
    21   10   11 ar   
    22   10  136 1    
    23   11   12 ar   
    24   11  126 1    
    25   12   13 ar   
    26   12  137 1    
    27   13   14 ar   
    28   13   15 1    
    29   14  138 1    
    30   15   16 1    
    31   15  139 1    
    32   15  140 1    
    33   16   17 1    
    34   17   18 1    
    35   17  141 1    
    36   17  142 1    
    37   18   19 1    
    38   18   67 1    
    39   18  143 1    
    40   19   20 am   BACKBONE|DICT|INTERRES
    41   19  144 1    
    42   20   21 2    
    43   20   22 1    
    44   22   23 1    
    45   22   24 1    
    46   22  145 1    
    47   23  146 1    
    48   23  147 1    
    49   23  148 1    
    50   24   25 am   BACKBONE|DICT|INTERRES
    51   24  149 1    
    52   25   26 2    
    53   25   27 1    
    54   27   28 1    
    55   27   29 1    
    56   27  150 1    
    57   28  151 1    
    58   28  152 1    
    59   28  153 1    
    60   29   30 am   BACKBONE|DICT|INTERRES
    61   29  154 1    
    62   30   31 2    
    63   30   32 1    
    64   32   33 1    
    65   32   34 1    
    66   32  155 1    
    67   33  156 1    
    68   33  157 1    
    69   33  158 1    
    70   34   35 am   BACKBONE|DICT|INTERRES
    71   34  159 1    
    72   35   36 2    
    73   35   37 1    
    74   37   38 1    
    75   37   39 1    
    76   37  160 1    
    77   38  161 1    
    78   38  162 1    
    79   38  163 1    
    80   39   40 am   BACKBONE|DICT|INTERRES
    81   39  164 1    
    82   40   41 2    
    83   40   42 1    
    84   42   43 1    
    85   42   44 1    
    86   42  165 1    
    87   43  166 1    
    88   43  167 1    
    89   43  168 1    
    90   44   45 am   BACKBONE|DICT|INTERRES
    91   44  169 1    
    92   45   46 2    
    93   45   47 1    
    94   47   48 1    
    95   47   49 1    
    96   47  170 1    
    97   48  171 1    
    98   48  172 1    
    99   48  173 1    
   100   49   50 am   BACKBONE|DICT|INTERRES
   101   49  174 1    
   102   50   51 2    
   103   50   52 1    
   104   52   53 1    
   105   52   54 1    
   106   52  175 1    
   107   53  176 1    
   108   53  177 1    
   109   53  178 1    
   110   54   55 am   BACKBONE|DICT|INTERRES
   111   54  179 1    
   112   55   56 2    
   113   55   57 1    
   114   57   58 1    
   115   57   59 1    
   116   57  180 1    
   117   58  181 1    
   118   58  182 1    
   119   58  183 1    
   120   59   60 am   BACKBONE|DICT|INTERRES
   121   59  184 1    
   122   60   61 2    
   123   60   62 1    
   124   62   63 1    
   125   62   64 1    
   126   62  185 1    
   127   63  186 1    
   128   63  187 1    
   129   63  188 1    
   130   64   65 am   BACKBONE|DICT|INTERRES
   131   64  189 1    
   132   65   66 2    
   133   67   68 2    
   134   67   69 am   BACKBONE|DICT|INTERRES
   135   69   70 1    
   136   69  190 1    
   137   70   71 1    
   138   70   72 1    
   139   70  191 1    
   140   71  192 1    
   141   71  193 1    
   142   71  194 1    
   143   72   73 2    
   144   72   74 am   BACKBONE|DICT|INTERRES
   145   74   75 1    
   146   74  195 1    
   147   75   76 1    
   148   75   77 1    
   149   75  196 1    
   150   76  197 1    
   151   76  198 1    
   152   76  199 1    
   153   77   78 2    
   154   77   79 am   BACKBONE|DICT|INTERRES
   155   79   80 1    
   156   79  200 1    
   157   80   81 1    
   158   80   82 1    
   159   80  201 1    
   160   81  202 1    
   161   81  203 1    
   162   81  204 1    
   163   82   83 2    
   164   82   84 am   BACKBONE|DICT|INTERRES
   165   84   85 1    
   166   84  205 1    
   167   85   86 1    
   168   85   87 1    
   169   85  206 1    
   170   86  207 1    
   171   86  208 1    
   172   86  209 1    
   173   87   88 2    
   174   87   89 am   BACKBONE|DICT|INTERRES
   175   89   90 1    
   176   89  210 1    
   177   90   91 1    
   178   90   92 1    
   179   90  211 1    
   180   91  212 1    
   181   91  213 1    
   182   91  214 1    
   183   92   93 2    
   184   92   94 am   BACKBONE|DICT|INTERRES
   185   94   95 1    
   186   94  215 1    
   187   95   96 1    
   188   95   97 1    
   189   95  216 1    
   190   96  217 1    
   191   96  218 1    
   192   96  219 1    
   193   97   98 2    
   194   97   99 am   BACKBONE|DICT|INTERRES
   195   99  100 1    
   196   99  220 1    
   197  100  101 1    
   198  100  102 1    
   199  100  221 1    
   200  101  222 1    
   201  101  223 1    
   202  101  224 1    
   203  102  103 2    
   204  102  104 am   BACKBONE|DICT|INTERRES
   205  104  105 1    
   206  104  225 1    
   207  105  106 1    
   208  105  107 1    
   209  105  226 1    
   210  106  227 1    
   211  106  228 1    
   212  106  229 1    
   213  107  108 2    
   214  107  109 am   BACKBONE|DICT|INTERRES
   215  109  110 1    
   216  109  230 1    
   217  110  111 1    
   218  110  112 1    
   219  110  231 1    
   220  111  232 1    
   221  111  233 1    
   222  111  234 1    
   223  112  113 2    
   224  112  114 am   BACKBONE|DICT|INTERRES
   225  114  115 1    
   226  114  235 1    
   227  115  116 1    
   228  115  117 1    
   229  115  236 1    
   230  116  237 1    
   231  116  238 1    
   232  116  239 1    
   233  117  118 2    
   234  117  119 am   BACKBONE|DICT|INTERRES
   235  119  120 1    
   236  119  240 1    
   237  120  121 1    
   238  120  124 1    
   239  120  241 1    
   240  121  122 am   BACKBONE|DICT|INTERRES
   241  121  123 2    
   242  122  242 1    
   243  122  243 1    
   244  124  125 1    
   245  124  244 1    
   246  124  245 1    
   247  125  126 1    
   248  126  246 1    
   249  126  247 1    
@<TRIPOS>SUBSTRUCTURE
     1 UNK         1 GROUP             0       ****    0 ROOT    
