@<TRIPOS>MOLECULE
3R540
247   249    1
SMALL
USER_CHARGES


@<TRIPOS>ATOM
      1 CA         -0.8793  -15.3701  -47.9691 C.3       0 UNK        -0.1800 
      2 C           0.3387  -14.4591  -47.9292 C.2       0 UNK         0.5000 
      3 O           0.3645  -13.5031  -47.1544 O.2       0 UNK        -0.5000 
      4 N           1.3425  -14.7407  -48.7676 N.am      1 UNK        -0.5000 
      5 CA          2.5566  -13.9339  -48.9272 C.3       1 UNK         0.1400 
      6 C6          3.1695  -14.0723  -50.3441 C.3       23 UNK        -0.0398 
      7 S7          2.0316  -13.5071  -51.6548 S.3       23 UNK        -0.2404 
      8 C8          1.8314  -15.0143  -52.6556 C.3       23 UNK        -0.0205 
      9 C9          1.0495  -16.0950  -51.9243 C.ar      23 UNK        -0.0193 
     10 C10        -0.3391  -15.9944  -51.8036 C.ar      23 UNK        -0.1150 
     11 C11        -1.0705  -16.9989  -51.1645 C.ar      23 UNK        -0.0193 
     12 C12        -0.4024  -18.1099  -50.6431 C.ar      23 UNK        -0.1150 
     13 C13         0.9869  -18.2206  -50.7523 C.ar      23 UNK        -0.0193 
     14 C14         1.7070  -17.2086  -51.3931 C.ar      23 UNK        -0.1150 
     15 C15         1.7092  -19.4545  -50.2316 C.3       23 UNK        -0.0205 
     16 S16         2.5560  -19.1720  -48.6419 S.3       23 UNK        -0.2404 
     17 C17         1.1856  -19.0153  -47.4478 C.3       23 UNK        -0.0398 
     18 CA          0.4966  -20.3691  -47.1104 C.3       11 UNK         0.1400 
     19 N           0.3469  -20.5996  -45.6700 N.am      11 UNK        -0.5000 
     20 C          -0.1040  -21.7375  -45.1193 C.2       10 UNK         0.5000 
     21 O          -0.3727  -22.7510  -45.7649 O.2       10 UNK        -0.5000 
     22 CA         -0.3554  -21.7261  -43.5998 C.3       10 UNK         0.1400 
     23 CB          0.9437  -21.9804  -42.8215 C.3       10 UNK        -0.1800 
     24 N          -0.9789  -20.4818  -43.1444 N.am      10 UNK        -0.5000 
     25 C          -2.2017  -20.0745  -43.5162 C.2       9 UNK         0.5000 
     26 O          -2.9527  -20.7384  -44.2297 O.2       9 UNK        -0.5000 
     27 CA         -2.6458  -18.6735  -43.0600 C.3       9 UNK         0.1400 
     28 CB         -3.1788  -18.7120  -41.6204 C.3       9 UNK        -0.1800 
     29 N          -1.5796  -17.6776  -43.1681 N.am      9 UNK        -0.5000 
     30 C          -0.9904  -17.3105  -44.3156 C.2       8 UNK         0.5000 
     31 O          -1.3143  -17.7419  -45.4219 O.2       8 UNK        -0.5000 
     32 CA          0.2091  -16.3541  -44.2007 C.3       8 UNK         0.1400 
     33 CB         -0.2496  -14.9054  -43.9816 C.3       8 UNK        -0.1800 
     34 N           1.1232  -16.7468  -43.1290 N.am      8 UNK        -0.5000 
     35 C           1.8107  -17.8970  -43.0982 C.2       7 UNK         0.5000 
     36 O           1.7787  -18.7361  -43.9962 O.2       7 UNK        -0.5000 
     37 CA          2.6315  -18.1806  -41.8301 C.3       7 UNK         0.1400 
     38 CB          3.9929  -17.4740  -41.8835 C.3       7 UNK        -0.1800 
     39 N           1.9138  -17.7835  -40.6198 N.am      7 UNK        -0.5000 
     40 C           0.8239  -18.4090  -40.1533 C.2       6 UNK         0.5000 
     41 O           0.3345  -19.4113  -40.6739 O.2       6 UNK        -0.5000 
     42 CA          0.1455  -17.7804  -38.9231 C.3       6 UNK         0.1400 
     43 CB          0.8492  -18.2200  -37.6307 C.3       6 UNK        -0.1800 
     44 N           0.1153  -16.3181  -38.9880 N.am      6 UNK        -0.5000 
     45 C          -0.5967  -15.6176  -39.8820 C.2       5 UNK         0.5000 
     46 O          -1.3244  -16.1321  -40.7300 O.2       5 UNK        -0.5000 
     47 CA         -0.4336  -14.0873  -39.8518 C.3       5 UNK         0.1400 
     48 CB         -1.3915  -13.4623  -38.8268 C.3       5 UNK        -0.1800 
     49 N           0.9369  -13.6528  -39.5668 N.am      5 UNK        -0.5000 
     50 C           1.9940  -13.9121  -40.3468 C.2       4 UNK         0.5000 
     51 O           1.9419  -14.6013  -41.3679 O.2       4 UNK        -0.5000 
     52 CA          3.3445  -13.3478  -39.8843 C.3       4 UNK         0.1400 
     53 CB          4.1846  -14.4430  -39.2094 C.3       4 UNK        -0.1800 
     54 N           4.0790  -12.8119  -41.0275 N.am      4 UNK        -0.5000 
     55 C           3.9510  -11.5606  -41.4872 C.2       3 UNK         0.5000 
     56 O           3.2408  -10.7053  -40.9564 O.2       3 UNK        -0.5000 
     57 CA          4.7569  -11.1985  -42.7483 C.3       3 UNK         0.1400 
     58 CB          6.1667  -10.7210  -42.3664 C.3       3 UNK        -0.1800 
     59 N           4.8657  -12.3086  -43.6978 N.am      3 UNK        -0.5000 
     60 C           3.8716  -12.7103  -44.4994 C.2       2 UNK         0.5000 
     61 O           2.7505  -12.1957  -44.5168 O.2       2 UNK        -0.5000 
     62 CA          4.1905  -13.8785  -45.4427 C.3       2 UNK         0.1400 
     63 CB          4.0377  -15.2266  -44.7242 C.3       2 UNK        -0.1800 
     64 N           3.2931  -13.8198  -46.5919 N.am      2 UNK        -0.5000 
     65 C           3.5838  -14.2559  -47.8209 C.2       1 UNK         0.5000 
     66 O           4.6118  -14.8794  -48.0930 O.2       1 UNK        -0.5000 
     67 C          -0.8587  -20.4934  -47.8322 C.2       11 UNK         0.5000 
     68 O          -0.9580  -21.2306  -48.8104 O.2       11 UNK        -0.5000 
     69 N          -1.8839  -19.7969  -47.3218 N.am      12 UNK        -0.5000 
     70 CA         -3.2478  -19.8218  -47.8503 C.3       12 UNK         0.1400 
     71 CB         -4.1129  -18.8019  -47.0968 C.3       12 UNK        -0.1800 
     72 C          -3.8829  -21.2242  -47.8189 C.2       12 UNK         0.5000 
     73 O          -4.5262  -21.6127  -48.7919 O.2       12 UNK        -0.5000 
     74 N          -3.6524  -21.9776  -46.7347 N.am      13 UNK        -0.5000 
     75 CA         -4.0702  -23.3729  -46.5931 C.3       13 UNK         0.1400 
     76 CB         -3.8210  -23.8460  -45.1533 C.3       13 UNK        -0.1800 
     77 C          -3.3796  -24.3047  -47.6062 C.2       13 UNK         0.5000 
     78 O          -4.0528  -25.1288  -48.2254 O.2       13 UNK        -0.5000 
     79 N          -2.0616  -24.1364  -47.7870 N.am      14 UNK        -0.5000 
     80 CA         -1.2649  -24.8652  -48.7767 C.3       14 UNK         0.1400 
     81 CB          0.2278  -24.5836  -48.5481 C.3       14 UNK        -0.1800 
     82 C          -1.6720  -24.5350  -50.2250 C.2       14 UNK         0.5000 
     83 O          -1.7399  -25.4384  -51.0579 O.2       14 UNK        -0.5000 
     84 N          -1.9690  -23.2559  -50.4875 N.am      15 UNK        -0.5000 
     85 CA         -2.4863  -22.7556  -51.7584 C.3       15 UNK         0.1400 
     86 CB         -2.4878  -21.2203  -51.7381 C.3       15 UNK        -0.1800 
     87 C          -3.8822  -23.3182  -52.0789 C.2       15 UNK         0.5000 
     88 O          -4.0957  -23.8033  -53.1880 O.2       15 UNK        -0.5000 
     89 N          -4.7907  -23.3025  -51.0923 N.am      16 UNK        -0.5000 
     90 CA         -6.1429  -23.8631  -51.1839 C.3       16 UNK         0.1400 
     91 CB         -6.9386  -23.4885  -49.9255 C.3       16 UNK        -0.1800 
     92 C          -6.1721  -25.3866  -51.4131 C.2       16 UNK         0.5000 
     93 O          -7.0988  -25.8836  -52.0534 O.2       16 UNK        -0.5000 
     94 N          -5.1522  -26.0958  -50.9126 N.am      17 UNK        -0.5000 
     95 CA         -4.9384  -27.5268  -51.1354 C.3       17 UNK         0.1400 
     96 CB         -4.0032  -28.0640  -50.0401 C.3       17 UNK        -0.1800 
     97 C          -4.3863  -27.8595  -52.5396 C.2       17 UNK         0.5000 
     98 O          -4.3628  -29.0357  -52.9063 O.2       17 UNK        -0.5000 
     99 N          -3.9504  -26.8433  -53.2936 N.am      18 UNK        -0.5000 
    100 CA        -3.4212  -26.9445  -54.6496 C.3       18 UNK         0.1400 
    101 CB        -1.9015  -26.6831  -54.6057 C.3       18 UNK        -0.1800 
    102 C         -4.2067  -25.9739  -55.5530 C.2       18 UNK         0.5000 
    103 O         -5.4393  -25.9773  -55.5134 O.2       18 UNK        -0.5000 
    104 N         -3.5006  -25.1598  -56.3443 N.am      19 UNK        -0.5000 
    105 CA        -4.0441  -24.0730  -57.1502 C.3       19 UNK         0.1400 
    106 CB        -4.5883  -24.6222  -58.4812 C.3       19 UNK        -0.1800 
    107 C         -2.9159  -23.0496  -57.3948 C.2       19 UNK         0.5000 
    108 O         -1.7571  -23.4632  -57.4735 O.2       19 UNK        -0.5000 
    109 N         -3.2001  -21.7487  -57.5585 N.am      20 UNK        -0.5000 
    110 CA        -4.4803  -21.0746  -57.3239 C.3       20 UNK         0.1400 
    111 CB        -4.4197  -19.6683  -57.9389 C.3       20 UNK        -0.1800 
    112 C         -4.7901  -20.9856  -55.8178 C.2       20 UNK         0.5000 
    113 O         -3.8663  -20.9156  -55.0085 O.2       20 UNK        -0.5000 
    114 N         -6.0825  -21.0033  -55.4745 N.am      21 UNK        -0.5000 
    115 CA        -6.5705  -21.1319  -54.0981 C.3       21 UNK         0.1400 
    116 CB        -7.9936  -21.7137  -54.1392 C.3       21 UNK        -0.1800 
    117 C         -6.5293  -19.8376  -53.2595 C.2       21 UNK         0.5000 
    118 O         -6.8723  -19.8890  -52.0784 O.2       21 UNK        -0.5000 
    119 N         -6.1481  -18.7090  -53.8738 N.am      22 UNK        -0.5000 
    120 CA        -6.1086  -17.3590  -53.2744 C.3       22 UNK         0.1400 
    121 C         -7.5131  -16.7354  -52.9966 C.2       22 UNK         0.5000 
    122 N         -8.5977  -17.2681  -53.5469 N.am      22 UNK        -0.7600 
    123 O         -7.6255  -15.7299  -52.3003 O.2       22 UNK        -0.5000 
    124 C124       -5.1593  -17.2447  -52.0440 C.3       23 UNK        -0.0398 
    125 S125       -3.4306  -17.6803  -52.4282 S.3       23 UNK        -0.2404 
    126 C126       -2.5798  -16.8800  -51.0341 C.3       23 UNK        -0.0205 
    127 H127       -1.6585  -14.9245  -48.5870 H         1 UNK         0.0600 
    128 H128       -1.2830  -15.5161  -46.9687 H         1 UNK         0.0600 
    129 H129       -0.6361  -16.3480  -48.3788 H         1 UNK         0.0600 
    130 H130        1.2657  -15.5352  -49.3875 H         1 UNK         0.3000 
    131 H131        2.2888  -12.8818  -48.8046 H         1 UNK         0.0600 
    132 H132        4.0752  -13.4684  -50.4235 H         1 UNK         0.0800 
    133 H133        3.4792  -15.1009  -50.5327 H         1 UNK         0.0800 
    134 H134        2.8125  -15.3822  -52.9602 H         1 UNK         0.0800 
    135 H135        1.3071  -14.7556  -53.5766 H         1 UNK         0.0800 
    136 H136       -0.8508  -15.1355  -52.2149 H         1 UNK         0.1150 
    137 H137       -0.9720  -18.8934  -50.1674 H         1 UNK         0.1150 
    138 H138        2.7797  -17.2999  -51.4922 H         1 UNK         0.1150 
    139 H139        1.0274  -20.3000  -50.1506 H         1 UNK         0.0800 
    140 H140        2.4578  -19.7574  -50.9651 H         1 UNK         0.0800 
    141 H141        0.4843  -18.2593  -47.8007 H         1 UNK         0.0800 
    142 H142        1.6262  -18.5811  -46.5513 H         1 UNK         0.0800 
    143 H143        1.1261  -21.1837  -47.4749 H         1 UNK         0.0600 
    144 H144        0.6022  -19.8318  -45.0553 H         1 UNK         0.3000 
    145 H145       -1.0450  -22.5420  -43.3743 H         1 UNK         0.0600 
    146 H146        1.6800  -21.1959  -42.9924 H         1 UNK         0.0600 
    147 H147        0.7560  -22.0348  -41.7490 H         1 UNK         0.0600 
    148 H148        1.3975  -22.9259  -43.1209 H         1 UNK         0.0600 
    149 H149       -0.4386  -19.9041  -42.5093 H         1 UNK         0.3000 
    150 H150       -3.4606  -18.3560  -43.7135 H         1 UNK         0.0600 
    151 H151       -3.9836  -19.4414  -41.5208 H         1 UNK         0.0600 
    152 H152       -3.5797  -17.7428  -41.3234 H         1 UNK         0.0600 
    153 H153       -2.3987  -18.9830  -40.9086 H         1 UNK         0.0600 
    154 H154       -1.2839  -17.2361  -42.3017 H         1 UNK         0.3000 
    155 H155        0.7599  -16.3956  -45.1429 H         1 UNK         0.0600 
    156 H156        0.5994  -14.2210  -43.9769 H         1 UNK         0.0600 
    157 H157       -0.9224  -14.5808  -44.7754 H         1 UNK         0.0600 
    158 H158       -0.7794  -14.7875  -43.0372 H         1 UNK         0.0600 
    159 H159        1.2537  -16.0792  -42.3737 H         1 UNK         0.3000 
    160 H160        2.8119  -19.2565  -41.7824 H         1 UNK         0.0600 
    161 H161        4.5552  -17.7802  -42.7666 H         1 UNK         0.0600 
    162 H162        4.5991  -17.7178  -41.0110 H         1 UNK         0.0600 
    163 H163        3.8827  -16.3910  -41.9248 H         1 UNK         0.0600 
    164 H164        2.2205  -16.9376  -40.1642 H         1 UNK         0.3000 
    165 H165       -0.8849  -18.1411  -38.8907 H         1 UNK         0.0600 
    166 H166        0.3290  -17.8416  -36.7506 H         1 UNK         0.0600 
    167 H167        0.8725  -19.3077  -37.5504 H         1 UNK         0.0600 
    168 H168        1.8799  -17.8655  -37.5902 H         1 UNK         0.0600 
    169 H169        0.6869  -15.8159  -38.3251 H         1 UNK         0.3000 
    170 H170       -0.7016  -13.7085  -40.8400 H         1 UNK         0.0600 
    171 H171       -2.4231  -13.7549  -39.0279 H         1 UNK         0.0600 
    172 H172       -1.1542  -13.7746  -37.8091 H         1 UNK         0.0600 
    173 H173       -1.3519  -12.3735  -38.8625 H         1 UNK         0.0600 
    174 H174        1.0650  -13.0883  -38.7392 H         1 UNK         0.3000 
    175 H175        3.1716  -12.5542  -39.1541 H         1 UNK         0.0600 
    176 H176        4.4150  -15.2598  -39.8928 H         1 UNK         0.0600 
    177 H177        5.1290  -14.0410  -38.8422 H         1 UNK         0.0600 
    178 H178        3.6593  -14.8685  -38.3534 H         1 UNK         0.0600 
    179 H179        4.6342  -13.4672  -41.5563 H         1 UNK         0.3000 
    180 H180        4.2440  -10.3698  -43.2416 H         1 UNK         0.0600 
    181 H181        6.7435  -11.5101  -41.8823 H         1 UNK         0.0600 
    182 H182        6.1193   -9.8783  -41.6754 H         1 UNK         0.0600 
    183 H183        6.7217  -10.3887  -43.2439 H         1 UNK         0.0600 
    184 H184        5.7599  -12.7756  -43.7465 H         1 UNK         0.3000 
    185 H185        5.2211  -13.7666  -45.7865 H         1 UNK         0.0600 
    186 H186        4.1889  -16.0662  -45.4029 H         1 UNK         0.0600 
    187 H187        4.7668  -15.3218  -43.9197 H         1 UNK         0.0600 
    188 H188        3.0466  -15.3216  -44.2855 H         1 UNK         0.0600 
    189 H189        2.4187  -13.3280  -46.4300 H         1 UNK         0.3000 
    190 H190       -1.7150  -19.1848  -46.5262 H         1 UNK         0.3000 
    191 H191       -3.1974  -19.5100  -48.8950 H         1 UNK         0.0600 
    192 H192       -4.1908  -19.0454  -46.0372 H         1 UNK         0.0600 
    193 H193       -5.1244  -18.7728  -47.5037 H         1 UNK         0.0600 
    194 H194       -3.6984  -17.7968  -47.1795 H         1 UNK         0.0600 
    195 H195       -3.1653  -21.5631  -45.9446 H         1 UNK         0.3000 
    196 H196       -5.1448  -23.4182  -46.7815 H         1 UNK         0.0600 
    197 H197       -2.7648  -23.7947  -44.8885 H         1 UNK         0.0600 
    198 H198       -4.1440  -24.8792  -45.0203 H         1 UNK         0.0600 
    199 H199       -4.3740  -23.2371  -44.4380 H         1 UNK         0.0600 
    200 H200       -1.5683  -23.4561  -47.2167 H         1 UNK         0.3000 
    201 H201       -1.4354  -25.9325  -48.6210 H         1 UNK         0.0600 
    202 H202        0.5359  -24.8844  -47.5466 H         1 UNK         0.0600 
    203 H203        0.4624  -23.5254  -48.6648 H         1 UNK         0.0600 
    204 H204        0.8427  -25.1370  -49.2587 H         1 UNK         0.0600 
    205 H205       -1.8098  -22.5635  -49.7588 H         1 UNK         0.3000 
    206 H206       -1.8067  -23.0821  -52.5483 H         1 UNK         0.0600 
    207 H207       -1.4832  -20.8292  -51.5796 H         1 UNK         0.0600 
    208 H208       -2.8439  -20.8142  -52.6829 H         1 UNK         0.0600 
    209 H209       -3.1308  -20.8230  -50.9539 H         1 UNK         0.0600 
    210 H210       -4.5550  -22.8412  -50.2163 H         1 UNK         0.3000 
    211 H211       -6.6373  -23.4042  -52.0400 H         1 UNK         0.0600 
    212 H212       -6.4690  -23.8801  -49.0226 H         1 UNK         0.0600 
    213 H213       -7.9532  -23.8861  -49.9693 H         1 UNK         0.0600 
    214 H214       -7.0186  -22.4062  -49.8203 H         1 UNK         0.0600 
    215 H215       -4.4641  -25.6175  -50.3434 H         1 UNK         0.3000 
    216 H216       -5.8983  -28.0378  -51.0369 H         1 UNK         0.0600 
    217 H217       -3.8621  -29.1410  -50.1381 H         1 UNK         0.0600 
    218 H218       -4.4126  -27.8799  -49.0466 H         1 UNK         0.0600 
    219 H219       -3.0187  -27.5990  -50.0874 H         1 UNK         0.0600 
    220 H220       -4.0551  -25.8965  -52.9459 H         1 UNK         0.3000 
    221 H221       -3.5871  -27.9451  -55.0532 H         1 UNK         0.0600 
    222 H222       -1.6752  -25.6778  -54.2464 H         1 UNK         0.0600 
    223 H223       -1.4065  -27.3873  -53.9366 H         1 UNK         0.0600 
    224 H224       -1.4454  -26.8047  -55.5888 H         1 UNK         0.0600 
    225 H225       -2.4887  -25.1841  -56.3174 H         1 UNK         0.3000 
    226 H226       -4.8589  -23.6171  -56.5893 H         1 UNK         0.0600 
    227 H227       -5.3971  -25.3342  -58.3165 H         1 UNK         0.0600 
    228 H228       -4.9855  -23.8194  -59.1032 H         1 UNK         0.0600 
    229 H229       -3.8095  -25.1271  -59.0540 H         1 UNK         0.0600 
    230 H230       -2.4227  -21.1255  -57.7158 H         1 UNK         0.3000 
    231 H231       -5.2738  -21.6327  -57.8243 H         1 UNK         0.0600 
    232 H232       -5.3680  -19.1439  -57.8140 H         1 UNK         0.0600 
    233 H233       -4.2147  -19.7140  -59.0087 H         1 UNK         0.0600 
    234 H234       -3.6437  -19.0581  -57.4746 H         1 UNK         0.0600 
    235 H235       -6.7861  -21.0259  -56.1992 H         1 UNK         0.3000 
    236 H236       -5.9318  -21.8489  -53.5839 H         1 UNK         0.0600 
    237 H237       -8.3886  -21.8664  -53.1339 H         1 UNK         0.0600 
    238 H238       -8.0076  -22.6829  -54.6385 H         1 UNK         0.0600 
    239 H239       -8.6834  -21.0528  -54.6651 H         1 UNK         0.0600 
    240 H240       -5.8806  -18.7672  -54.8448 H         1 UNK         0.3000 
    241 H241       -5.6893  -16.7198  -54.0520 H         1 UNK         0.0600 
    242 H242       -9.4983  -16.8507  -53.3712 H         1 UNK         0.3800 
    243 H243       -8.5289  -18.0833  -54.1339 H         1 UNK         0.3800 
    244 H244       -5.5054  -17.8671  -51.2184 H         1 UNK         0.0800 
    245 H245       -5.1610  -16.2207  -51.6673 H         1 UNK         0.0800 
    246 H246       -2.9116  -17.3303  -50.0975 H         1 UNK         0.0800 
    247 H247       -2.8632  -15.8273  -50.9874 H         1 UNK         0.0800 
@<TRIPOS>BOND
     1    1    2 1    
     2    1  127 1    
     3    1  128 1    
     4    1  129 1    
     5    2    3 2    
     6    2    4 am   BACKBONE|DICT|INTERRES
     7    4    5 1    
     8    4  130 1    
     9    5    6 1    
    10    5   65 1    
    11    5  131 1    
    12    6    7 1    
    13    6  132 1    
    14    6  133 1    
    15    7    8 1    
    16    8    9 1    
    17    8  134 1    
    18    8  135 1    
    19    9   10 ar   
    20    9   14 ar   
    21   10   11 ar   
    22   10  136 1    
    23   11   12 ar   
    24   11  126 1    
    25   12   13 ar   
    26   12  137 1    
    27   13   14 ar   
    28   13   15 1    
    29   14  138 1    
    30   15   16 1    
    31   15  139 1    
    32   15  140 1    
    33   16   17 1    
    34   17   18 1    
    35   17  141 1    
    36   17  142 1    
    37   18   19 1    
    38   18   67 1    
    39   18  143 1    
    40   19   20 am   BACKBONE|DICT|INTERRES
    41   19  144 1    
    42   20   21 2    
    43   20   22 1    
    44   22   23 1    
    45   22   24 1    
    46   22  145 1    
    47   23  146 1    
    48   23  147 1    
    49   23  148 1    
    50   24   25 am   BACKBONE|DICT|INTERRES
    51   24  149 1    
    52   25   26 2    
    53   25   27 1    
    54   27   28 1    
    55   27   29 1    
    56   27  150 1    
    57   28  151 1    
    58   28  152 1    
    59   28  153 1    
    60   29   30 am   BACKBONE|DICT|INTERRES
    61   29  154 1    
    62   30   31 2    
    63   30   32 1    
    64   32   33 1    
    65   32   34 1    
    66   32  155 1    
    67   33  156 1    
    68   33  157 1    
    69   33  158 1    
    70   34   35 am   BACKBONE|DICT|INTERRES
    71   34  159 1    
    72   35   36 2    
    73   35   37 1    
    74   37   38 1    
    75   37   39 1    
    76   37  160 1    
    77   38  161 1    
    78   38  162 1    
    79   38  163 1    
    80   39   40 am   BACKBONE|DICT|INTERRES
    81   39  164 1    
    82   40   41 2    
    83   40   42 1    
    84   42   43 1    
    85   42   44 1    
    86   42  165 1    
    87   43  166 1    
    88   43  167 1    
    89   43  168 1    
    90   44   45 am   BACKBONE|DICT|INTERRES
    91   44  169 1    
    92   45   46 2    
    93   45   47 1    
    94   47   48 1    
    95   47   49 1    
    96   47  170 1    
    97   48  171 1    
    98   48  172 1    
    99   48  173 1    
   100   49   50 am   BACKBONE|DICT|INTERRES
   101   49  174 1    
   102   50   51 2    
   103   50   52 1    
   104   52   53 1    
   105   52   54 1    
   106   52  175 1    
   107   53  176 1    
   108   53  177 1    
   109   53  178 1    
   110   54   55 am   BACKBONE|DICT|INTERRES
   111   54  179 1    
   112   55   56 2    
   113   55   57 1    
   114   57   58 1    
   115   57   59 1    
   116   57  180 1    
   117   58  181 1    
   118   58  182 1    
   119   58  183 1    
   120   59   60 am   BACKBONE|DICT|INTERRES
   121   59  184 1    
   122   60   61 2    
   123   60   62 1    
   124   62   63 1    
   125   62   64 1    
   126   62  185 1    
   127   63  186 1    
   128   63  187 1    
   129   63  188 1    
   130   64   65 am   BACKBONE|DICT|INTERRES
   131   64  189 1    
   132   65   66 2    
   133   67   68 2    
   134   67   69 am   BACKBONE|DICT|INTERRES
   135   69   70 1    
   136   69  190 1    
   137   70   71 1    
   138   70   72 1    
   139   70  191 1    
   140   71  192 1    
   141   71  193 1    
   142   71  194 1    
   143   72   73 2    
   144   72   74 am   BACKBONE|DICT|INTERRES
   145   74   75 1    
   146   74  195 1    
   147   75   76 1    
   148   75   77 1    
   149   75  196 1    
   150   76  197 1    
   151   76  198 1    
   152   76  199 1    
   153   77   78 2    
   154   77   79 am   BACKBONE|DICT|INTERRES
   155   79   80 1    
   156   79  200 1    
   157   80   81 1    
   158   80   82 1    
   159   80  201 1    
   160   81  202 1    
   161   81  203 1    
   162   81  204 1    
   163   82   83 2    
   164   82   84 am   BACKBONE|DICT|INTERRES
   165   84   85 1    
   166   84  205 1    
   167   85   86 1    
   168   85   87 1    
   169   85  206 1    
   170   86  207 1    
   171   86  208 1    
   172   86  209 1    
   173   87   88 2    
   174   87   89 am   BACKBONE|DICT|INTERRES
   175   89   90 1    
   176   89  210 1    
   177   90   91 1    
   178   90   92 1    
   179   90  211 1    
   180   91  212 1    
   181   91  213 1    
   182   91  214 1    
   183   92   93 2    
   184   92   94 am   BACKBONE|DICT|INTERRES
   185   94   95 1    
   186   94  215 1    
   187   95   96 1    
   188   95   97 1    
   189   95  216 1    
   190   96  217 1    
   191   96  218 1    
   192   96  219 1    
   193   97   98 2    
   194   97   99 am   BACKBONE|DICT|INTERRES
   195   99  100 1    
   196   99  220 1    
   197  100  101 1    
   198  100  102 1    
   199  100  221 1    
   200  101  222 1    
   201  101  223 1    
   202  101  224 1    
   203  102  103 2    
   204  102  104 am   BACKBONE|DICT|INTERRES
   205  104  105 1    
   206  104  225 1    
   207  105  106 1    
   208  105  107 1    
   209  105  226 1    
   210  106  227 1    
   211  106  228 1    
   212  106  229 1    
   213  107  108 2    
   214  107  109 am   BACKBONE|DICT|INTERRES
   215  109  110 1    
   216  109  230 1    
   217  110  111 1    
   218  110  112 1    
   219  110  231 1    
   220  111  232 1    
   221  111  233 1    
   222  111  234 1    
   223  112  113 2    
   224  112  114 am   BACKBONE|DICT|INTERRES
   225  114  115 1    
   226  114  235 1    
   227  115  116 1    
   228  115  117 1    
   229  115  236 1    
   230  116  237 1    
   231  116  238 1    
   232  116  239 1    
   233  117  118 2    
   234  117  119 am   BACKBONE|DICT|INTERRES
   235  119  120 1    
   236  119  240 1    
   237  120  121 1    
   238  120  124 1    
   239  120  241 1    
   240  121  122 am   BACKBONE|DICT|INTERRES
   241  121  123 2    
   242  122  242 1    
   243  122  243 1    
   244  124  125 1    
   245  124  244 1    
   246  124  245 1    
   247  125  126 1    
   248  126  246 1    
   249  126  247 1    
@<TRIPOS>SUBSTRUCTURE
     1 UNK         1 GROUP             0       ****    0 ROOT    
