@<TRIPOS>MOLECULE
3R540
247   249    1
SMALL
USER_CHARGES


@<TRIPOS>ATOM
      1 CA          7.4135  -11.5563  -49.1400 C.3       0 UNK        -0.1800 
      2 C           6.0761  -11.2895  -48.4637 C.2       0 UNK         0.5000 
      3 O           5.5666  -10.1717  -48.5414 O.2       0 UNK        -0.5000 
      4 N           5.5160  -12.3113  -47.8002 N.am      1 UNK        -0.5000 
      5 CA          4.2288  -12.2922  -47.0872 C.3       1 UNK         0.1400 
      6 C6          2.9974  -12.0902  -48.0132 C.3       23 UNK        -0.0398 
      7 S7          2.8576  -13.4051  -49.2679 S.3       23 UNK        -0.2404 
      8 C8          1.5328  -14.4186  -48.5457 C.3       23 UNK        -0.0205 
      9 C9          1.3375  -15.6981  -49.3387 C.ar      23 UNK        -0.0193 
     10 C10         0.4211  -15.7425  -50.3908 C.ar      23 UNK        -0.1150 
     11 C11         0.2348  -16.9128  -51.1317 C.ar      23 UNK        -0.0193 
     12 C12         0.9869  -18.0482  -50.7956 C.ar      23 UNK        -0.1150 
     13 C13         1.8770  -18.0370  -49.7132 C.ar      23 UNK        -0.0193 
     14 C14         2.0607  -16.8456  -49.0079 C.ar      23 UNK        -0.1150 
     15 C15         2.6533  -19.2727  -49.2468 C.3       23 UNK        -0.0205 
     16 S16         2.2982  -20.8455  -50.1079 S.3       23 UNK        -0.2404 
     17 C17         0.5977  -21.2347  -49.5671 C.3       23 UNK        -0.0398 
     18 CA          0.5711  -22.3419  -48.4866 C.3       11 UNK         0.1400 
     19 N           0.9304  -21.8430  -47.1590 N.am      11 UNK        -0.5000 
     20 C           1.4225  -22.6088  -46.1757 C.2       10 UNK         0.5000 
     21 O           1.7265  -23.7935  -46.3167 O.2       10 UNK        -0.5000 
     22 CA          1.5669  -21.9533  -44.7891 C.3       10 UNK         0.1400 
     23 CB          2.9524  -21.3095  -44.6323 C.3       10 UNK        -0.1800 
     24 N           0.5255  -20.9582  -44.5230 N.am      10 UNK        -0.5000 
     25 C          -0.7714  -21.2597  -44.3586 C.2       9 UNK         0.5000 
     26 O          -1.2094  -22.4082  -44.3932 O.2       9 UNK        -0.5000 
     27 CA         -1.7567  -20.0932  -44.1574 C.3       9 UNK         0.1400 
     28 CB         -1.9483  -19.8143  -42.6596 C.3       9 UNK        -0.1800 
     29 N          -1.3726  -18.8581  -44.8425 N.am      9 UNK        -0.5000 
     30 C          -1.1574  -18.7313  -46.1600 C.2       8 UNK         0.5000 
     31 O          -1.2759  -19.6560  -46.9654 O.2       8 UNK        -0.5000 
     32 CA         -0.6564  -17.3589  -46.6468 C.3       8 UNK         0.1400 
     33 CB         -1.8271  -16.4034  -46.9134 C.3       8 UNK        -0.1800 
     34 N           0.2920  -16.7314  -45.7201 N.am      8 UNK        -0.5000 
     35 C           1.4779  -17.2572  -45.3765 C.2       7 UNK         0.5000 
     36 O           1.9141  -18.3122  -45.8332 O.2       7 UNK        -0.5000 
     37 CA          2.2868  -16.5104  -44.3036 C.3       7 UNK         0.1400 
     38 CB          3.0483  -15.3160  -44.9014 C.3       7 UNK        -0.1800 
     39 N           1.4190  -16.0749  -43.2091 N.am      7 UNK        -0.5000 
     40 C           0.9703  -16.8983  -42.2491 C.2       6 UNK         0.5000 
     41 O           1.3529  -18.0611  -42.1193 O.2       6 UNK        -0.5000 
     42 CA         -0.1129  -16.3577  -41.2955 C.3       6 UNK         0.1400 
     43 CB          0.4925  -15.9020  -39.9611 C.3       6 UNK        -0.1800 
     44 N          -0.8926  -15.2659  -41.8810 N.am      6 UNK        -0.5000 
     45 C          -1.8355  -15.4486  -42.8166 C.2       5 UNK         0.5000 
     46 O          -2.1424  -16.5528  -43.2620 O.2       5 UNK        -0.5000 
     47 CA         -2.5190  -14.1936  -43.3899 C.3       5 UNK         0.1400 
     48 CB         -3.7616  -13.8332  -42.5631 C.3       5 UNK        -0.1800 
     49 N          -1.6373  -13.0291  -43.4678 N.am      5 UNK        -0.5000 
     50 C          -0.4998  -12.9665  -44.1723 C.2       4 UNK         0.5000 
     51 O          -0.0644  -13.9044  -44.8433 O.2       4 UNK        -0.5000 
     52 CA          0.3082  -11.6557  -44.0927 C.3       4 UNK         0.1400 
     53 CB         -0.4599  -10.4774  -43.4537 C.3       4 UNK        -0.1800 
     54 N           1.5967  -11.8365  -43.4179 N.am      4 UNK        -0.5000 
     55 C           1.8195  -12.3333  -42.1895 C.2       3 UNK         0.5000 
     56 O           0.9262  -12.7749  -41.4651 O.2       3 UNK        -0.5000 
     57 CA          3.2772  -12.3479  -41.6755 C.3       3 UNK         0.1400 
     58 CB          3.6920  -13.7447  -41.1844 C.3       3 UNK        -0.1800 
     59 N           4.2396  -11.8989  -42.6848 N.am      3 UNK        -0.5000 
     60 C           4.6610  -10.6357  -42.8355 C.2       2 UNK         0.5000 
     61 O           4.3232   -9.7072  -42.1007 O.2       2 UNK        -0.5000 
     62 CA          5.5953  -10.3566  -44.0307 C.3       2 UNK         0.1400 
     63 CB          7.0663  -10.4537  -43.5990 C.3       2 UNK        -0.1800 
     64 N           5.3748  -11.2405  -45.1814 N.am      2 UNK        -0.5000 
     65 C           4.2364  -11.3179  -45.8873 C.2       1 UNK         0.5000 
     66 O           3.2242  -10.6766  -45.6025 O.2       1 UNK        -0.5000 
     67 C          -0.7993  -23.0420  -48.4349 C.2       11 UNK         0.5000 
     68 O          -0.9152  -24.1677  -48.9211 O.2       11 UNK        -0.5000 
     69 N          -1.7982  -22.3933  -47.8174 N.am      12 UNK        -0.5000 
     70 CA         -3.1854  -22.8680  -47.7589 C.3       12 UNK         0.1400 
     71 CB         -4.0844  -21.7607  -47.1917 C.3       12 UNK        -0.1800 
     72 C          -3.3785  -24.1839  -46.9807 C.2       12 UNK         0.5000 
     73 O          -4.3489  -24.8956  -47.2343 O.2       12 UNK        -0.5000 
     74 N          -2.4507  -24.5059  -46.0691 N.am      13 UNK        -0.5000 
     75 CA         -2.3860  -25.7882  -45.3663 C.3       13 UNK         0.1400 
     76 CB         -1.3308  -25.7017  -44.2530 C.3       13 UNK        -0.1800 
     77 C          -2.0842  -26.9809  -46.2969 C.2       13 UNK         0.5000 
     78 O          -2.5195  -28.0951  -46.0034 O.2       13 UNK        -0.5000 
     79 N          -1.3521  -26.7316  -47.3911 N.am      14 UNK        -0.5000 
     80 CA         -1.0278  -27.7207  -48.4162 C.3       14 UNK         0.1400 
     81 CB          0.4249  -27.5179  -48.8777 C.3       14 UNK        -0.1800 
     82 C          -2.0043  -27.6058  -49.5963 C.2       14 UNK         0.5000 
     83 O          -2.6241  -28.5985  -49.9809 O.2       14 UNK        -0.5000 
     84 N          -2.1423  -26.3898  -50.1373 N.am      15 UNK        -0.5000 
     85 CA         -3.0334  -26.0490  -51.2406 C.3       15 UNK         0.1400 
     86 CB         -2.3826  -24.9250  -52.0615 C.3       15 UNK        -0.1800 
     87 C          -4.4178  -25.6761  -50.6811 C.2       15 UNK         0.5000 
     88 O          -4.7823  -24.4979  -50.6367 O.2       15 UNK        -0.5000 
     89 N          -5.1467  -26.7117  -50.2423 N.am      16 UNK        -0.5000 
     90 CA         -6.3989  -26.6765  -49.4756 C.3       16 UNK         0.1400 
     91 CB         -6.8379  -28.1243  -49.2047 C.3       16 UNK        -0.1800 
     92 C          -7.5656  -25.8657  -50.0776 C.2       16 UNK         0.5000 
     93 O          -8.5153  -25.5599  -49.3551 O.2       16 UNK        -0.5000 
     94 N          -7.4839  -25.5179  -51.3687 N.am      17 UNK        -0.5000 
     95 CA         -8.4124  -24.6153  -52.0516 C.3       17 UNK         0.1400 
     96 CB         -8.1310  -24.6598  -53.5600 C.3       17 UNK        -0.1800 
     97 C          -8.3505  -23.1611  -51.5365 C.2       17 UNK         0.5000 
     98 O          -9.3230  -22.4266  -51.7137 O.2       17 UNK        -0.5000 
     99 N          -7.2200  -22.7746  -50.9228 N.am      18 UNK        -0.5000 
    100 CA        -6.8938  -21.5006  -50.2619 C.3       18 UNK         0.1400 
    101 CB        -7.8116  -21.2628  -49.0491 C.3       18 UNK        -0.1800 
    102 C         -6.8490  -20.2550  -51.1742 C.2       18 UNK         0.5000 
    103 O         -5.9893  -19.3962  -50.9752 O.2       18 UNK        -0.5000 
    104 N         -7.7573  -20.1667  -52.1500 N.am      19 UNK        -0.5000 
    105 CA        -7.7864  -19.1334  -53.1792 C.3       19 UNK         0.1400 
    106 CB        -9.2452  -18.8355  -53.5664 C.3       19 UNK        -0.1800 
    107 C         -6.9530  -19.5797  -54.3898 C.2       19 UNK         0.5000 
    108 O         -5.9362  -18.9554  -54.6984 O.2       19 UNK        -0.5000 
    109 N         -7.3915  -20.6646  -55.0451 N.am      20 UNK        -0.5000 
    110 CA        -6.7364  -21.2569  -56.2109 C.3       20 UNK         0.1400 
    111 CB        -7.6443  -22.3383  -56.8152 C.3       20 UNK        -0.1800 
    112 C         -5.3640  -21.8376  -55.8350 C.2       20 UNK         0.5000 
    113 O         -5.2817  -22.6408  -54.9031 O.2       20 UNK        -0.5000 
    114 N         -4.3146  -21.3831  -56.5354 N.am      21 UNK        -0.5000 
    115 CA        -2.9000  -21.7276  -56.3270 C.3       21 UNK         0.1400 
    116 CB        -2.6408  -23.1891  -56.7495 C.3       21 UNK        -0.1800 
    117 C         -2.3886  -21.4276  -54.8979 C.2       21 UNK         0.5000 
    118 O         -1.4579  -22.0866  -54.4319 O.2       21 UNK        -0.5000 
    119 N         -3.0253  -20.4555  -54.2275 N.am      22 UNK        -0.5000 
    120 CA        -2.8620  -20.1307  -52.8004 C.3       22 UNK         0.1400 
    121 C         -3.3621  -21.2479  -51.8331 C.2       22 UNK         0.5000 
    122 N         -4.1710  -22.2059  -52.2698 N.am      22 UNK        -0.7600 
    123 O         -3.0177  -21.2452  -50.6564 O.2       22 UNK        -0.5000 
    124 C124       -1.4304  -19.6591  -52.4228 C.3       23 UNK        -0.0398 
    125 S125       -0.7839  -18.2835  -53.4364 S.3       23 UNK        -0.2404 
    126 C126       -0.8147  -16.8931  -52.2498 C.3       23 UNK        -0.0205 
    127 H127        7.3337  -11.3760  -50.2120 H         1 UNK         0.0600 
    128 H128        7.7456  -12.5842  -48.9924 H         1 UNK         0.0600 
    129 H129        8.1770  -10.8910  -48.7370 H         1 UNK         0.0600 
    130 H130        5.9944  -13.2014  -47.7933 H         1 UNK         0.3000 
    131 H131        4.1311  -13.2815  -46.6404 H         1 UNK         0.0600 
    132 H132        2.0728  -12.0684  -47.4335 H         1 UNK         0.0800 
    133 H133        3.0510  -11.1279  -48.5237 H         1 UNK         0.0800 
    134 H134        1.7743  -14.6592  -47.5105 H         1 UNK         0.0800 
    135 H135        0.6048  -13.8453  -48.5193 H         1 UNK         0.0800 
    136 H136       -0.1497  -14.8573  -50.6353 H         1 UNK         0.1150 
    137 H137        0.8703  -18.9530  -51.3659 H         1 UNK         0.1150 
    138 H138        2.7562  -16.8170  -48.1809 H         1 UNK         0.1150 
    139 H139        3.7186  -19.0658  -49.3554 H         1 UNK         0.0800 
    140 H140        2.4785  -19.4223  -48.1808 H         1 UNK         0.0800 
    141 H141        0.0594  -21.5608  -50.4589 H         1 UNK         0.0800 
    142 H142        0.0870  -20.3344  -49.2224 H         1 UNK         0.0800 
    143 H143        1.2955  -23.1062  -48.7781 H         1 UNK         0.0600 
    144 H144        0.6616  -20.8919  -46.9446 H         1 UNK         0.3000 
    145 H145        1.4743  -22.7410  -44.0382 H         1 UNK         0.0600 
    146 H146        3.0560  -20.8195  -43.6639 H         1 UNK         0.0600 
    147 H147        3.1445  -20.5681  -45.4077 H         1 UNK         0.0600 
    148 H148        3.7383  -22.0624  -44.7030 H         1 UNK         0.0600 
    149 H149        0.8105  -19.9878  -44.5170 H         1 UNK         0.3000 
    150 H150       -2.7195  -20.4019  -44.5639 H         1 UNK         0.0600 
    151 H151       -2.2494  -20.7186  -42.1290 H         1 UNK         0.0600 
    152 H152       -2.7257  -19.0693  -42.4914 H         1 UNK         0.0600 
    153 H153       -1.0291  -19.4546  -42.1977 H         1 UNK         0.0600 
    154 H154       -1.3316  -18.0222  -44.2675 H         1 UNK         0.3000 
    155 H155       -0.1420  -17.5282  -47.5920 H         1 UNK         0.0600 
    156 H156       -2.5103  -16.8238  -47.6524 H         1 UNK         0.0600 
    157 H157       -1.4747  -15.4476  -47.3020 H         1 UNK         0.0600 
    158 H158       -2.4018  -16.2083  -46.0084 H         1 UNK         0.0600 
    159 H159        0.0242  -15.8354  -45.3255 H         1 UNK         0.3000 
    160 H160        3.0307  -17.2075  -43.9112 H         1 UNK         0.0600 
    161 H161        2.3822  -14.5104  -45.2045 H         1 UNK         0.0600 
    162 H162        3.6169  -15.6210  -45.7810 H         1 UNK         0.0600 
    163 H163        3.7619  -14.9064  -44.1886 H         1 UNK         0.0600 
    164 H164        1.0107  -15.1534  -43.2887 H         1 UNK         0.3000 
    165 H165       -0.7916  -17.1856  -41.0795 H         1 UNK         0.0600 
    166 H166       -0.2873  -15.6342  -39.2481 H         1 UNK         0.0600 
    167 H167        1.0886  -16.6955  -39.5086 H         1 UNK         0.0600 
    168 H168        1.1384  -15.0360  -40.0871 H         1 UNK         0.0600 
    169 H169       -0.6433  -14.3236  -41.6022 H         1 UNK         0.3000 
    170 H170       -2.8423  -14.4297  -44.4053 H         1 UNK         0.0600 
    171 H171       -3.4987  -13.5542  -41.5419 H         1 UNK         0.0600 
    172 H172       -4.3058  -13.0009  -43.0100 H         1 UNK         0.0600 
    173 H173       -4.4508  -14.6770  -42.5060 H         1 UNK         0.0600 
    174 H174       -1.9044  -12.2236  -42.9210 H         1 UNK         0.3000 
    175 H175        0.5341  -11.3804  -45.1238 H         1 UNK         0.0600 
    176 H176       -0.6847  -10.6516  -42.4008 H         1 UNK         0.0600 
    177 H177        0.1247   -9.5592  -43.5144 H         1 UNK         0.0600 
    178 H178       -1.4008  -10.2897  -43.9728 H         1 UNK         0.0600 
    179 H179        2.3918  -11.4947  -43.9454 H         1 UNK         0.3000 
    180 H180        3.3162  -11.6752  -40.8163 H         1 UNK         0.0600 
    181 H181        4.7521  -13.7776  -40.9320 H         1 UNK         0.0600 
    182 H182        3.4998  -14.5168  -41.9277 H         1 UNK         0.0600 
    183 H183        3.1460  -14.0132  -40.2810 H         1 UNK         0.0600 
    184 H184        4.5779  -12.5958  -43.3316 H         1 UNK         0.3000 
    185 H185        5.4038   -9.3333  -44.3605 H         1 UNK         0.0600 
    186 H186        7.7357  -10.1676  -44.4106 H         1 UNK         0.0600 
    187 H187        7.2724   -9.7875  -42.7602 H         1 UNK         0.0600 
    188 H188        7.3284  -11.4654  -43.2868 H         1 UNK         0.0600 
    189 H189        6.1647  -11.7917  -45.4849 H         1 UNK         0.3000 
    190 H190       -1.6264  -21.4574  -47.4595 H         1 UNK         0.3000 
    191 H191       -3.5020  -23.0610  -48.7848 H         1 UNK         0.0600 
    192 H192       -3.9798  -20.8368  -47.7615 H         1 UNK         0.0600 
    193 H193       -3.8471  -21.5480  -46.1509 H         1 UNK         0.0600 
    194 H194       -5.1344  -22.0526  -47.2359 H         1 UNK         0.0600 
    195 H195       -1.7399  -23.8217  -45.8358 H         1 UNK         0.3000 
    196 H196       -3.3580  -25.9695  -44.9032 H         1 UNK         0.0600 
    197 H197       -1.6020  -24.9503  -43.5115 H         1 UNK         0.0600 
    198 H198       -0.3483  -25.4423  -44.6501 H         1 UNK         0.0600 
    199 H199       -1.2343  -26.6526  -43.7274 H         1 UNK         0.0600 
    200 H200       -1.0822  -25.7749  -47.5881 H         1 UNK         0.3000 
    201 H201       -1.1088  -28.7307  -48.0089 H         1 UNK         0.0600 
    202 H202        1.1211  -27.6619  -48.0513 H         1 UNK         0.0600 
    203 H203        0.5907  -26.5180  -49.2806 H         1 UNK         0.0600 
    204 H204        0.6906  -28.2346  -49.6557 H         1 UNK         0.0600 
    205 H205       -1.6370  -25.6081  -49.7236 H         1 UNK         0.3000 
    206 H206       -3.1552  -26.9100  -51.9012 H         1 UNK         0.0600 
    207 H207       -2.1985  -24.0372  -51.4558 H         1 UNK         0.0600 
    208 H208       -1.4257  -25.2442  -52.4743 H         1 UNK         0.0600 
    209 H209       -3.0143  -24.6360  -52.9021 H         1 UNK         0.0600 
    210 H210       -4.7184  -27.6252  -50.3186 H         1 UNK         0.3000 
    211 H211       -6.1704  -26.2129  -48.5158 H         1 UNK         0.0600 
    212 H212       -7.0440  -28.6600  -50.1321 H         1 UNK         0.0600 
    213 H213       -7.7445  -28.1553  -48.5986 H         1 UNK         0.0600 
    214 H214       -6.0693  -28.6746  -48.6613 H         1 UNK         0.0600 
    215 H215       -6.6658  -25.8050  -51.8851 H         1 UNK         0.3000 
    216 H216       -9.4272  -24.9806  -51.8812 H         1 UNK         0.0600 
    217 H217       -8.8345  -24.0287  -54.1042 H         1 UNK         0.0600 
    218 H218       -8.2332  -25.6714  -53.9528 H         1 UNK         0.0600 
    219 H219       -7.1246  -24.3088  -53.7910 H         1 UNK         0.0600 
    220 H220       -6.4803  -23.4676  -50.8643 H         1 UNK         0.3000 
    221 H221       -5.8809  -21.6314  -49.8772 H         1 UNK         0.0600 
    222 H222       -8.8504  -21.1189  -49.3475 H         1 UNK         0.0600 
    223 H223       -7.7739  -22.1046  -48.3574 H         1 UNK         0.0600 
    224 H224       -7.5038  -20.3740  -48.4970 H         1 UNK         0.0600 
    225 H225       -8.4461  -20.9126  -52.2082 H         1 UNK         0.3000 
    226 H226       -7.3505  -18.2097  -52.7926 H         1 UNK         0.0600 
    227 H227       -9.7953  -18.4234  -52.7203 H         1 UNK         0.0600 
    228 H228       -9.2934  -18.1022  -54.3724 H         1 UNK         0.0600 
    229 H229       -9.7743  -19.7288  -53.8999 H         1 UNK         0.0600 
    230 H230       -8.2112  -21.1410  -54.7016 H         1 UNK         0.3000 
    231 H231       -6.6025  -20.4702  -56.9564 H         1 UNK         0.0600 
    232 H232       -7.1969  -22.7617  -57.7153 H         1 UNK         0.0600 
    233 H233       -8.6148  -21.9292  -57.0966 H         1 UNK         0.0600 
    234 H234       -7.8138  -23.1595  -56.1191 H         1 UNK         0.0600 
    235 H235       -4.4867  -20.7010  -57.2612 H         1 UNK         0.3000 
    236 H236       -2.3252  -21.0831  -56.9934 H         1 UNK         0.0600 
    237 H237       -3.1314  -23.8956  -56.0791 H         1 UNK         0.0600 
    238 H238       -3.0029  -23.3783  -57.7600 H         1 UNK         0.0600 
    239 H239       -1.5744  -23.4175  -56.7412 H         1 UNK         0.0600 
    240 H240       -3.7890  -19.9794  -54.6893 H         1 UNK         0.3000 
    241 H241       -3.5342  -19.2914  -52.6195 H         1 UNK         0.0600 
    242 H242       -4.4717  -22.2589  -53.2388 H         1 UNK         0.3800 
    243 H243       -4.4173  -22.9506  -51.6273 H         1 UNK         0.3800 
    244 H244       -0.7259  -20.4878  -52.4990 H         1 UNK         0.0800 
    245 H245       -1.4175  -19.3534  -51.3757 H         1 UNK         0.0800 
    246 H246       -0.6906  -15.9745  -52.8252 H         1 UNK         0.0800 
    247 H247       -1.8067  -16.8383  -51.7992 H         1 UNK         0.0800 
@<TRIPOS>BOND
     1    1    2 1    
     2    1  127 1    
     3    1  128 1    
     4    1  129 1    
     5    2    3 2    
     6    2    4 am   BACKBONE|DICT|INTERRES
     7    4    5 1    
     8    4  130 1    
     9    5    6 1    
    10    5   65 1    
    11    5  131 1    
    12    6    7 1    
    13    6  132 1    
    14    6  133 1    
    15    7    8 1    
    16    8    9 1    
    17    8  134 1    
    18    8  135 1    
    19    9   10 ar   
    20    9   14 ar   
    21   10   11 ar   
    22   10  136 1    
    23   11   12 ar   
    24   11  126 1    
    25   12   13 ar   
    26   12  137 1    
    27   13   14 ar   
    28   13   15 1    
    29   14  138 1    
    30   15   16 1    
    31   15  139 1    
    32   15  140 1    
    33   16   17 1    
    34   17   18 1    
    35   17  141 1    
    36   17  142 1    
    37   18   19 1    
    38   18   67 1    
    39   18  143 1    
    40   19   20 am   BACKBONE|DICT|INTERRES
    41   19  144 1    
    42   20   21 2    
    43   20   22 1    
    44   22   23 1    
    45   22   24 1    
    46   22  145 1    
    47   23  146 1    
    48   23  147 1    
    49   23  148 1    
    50   24   25 am   BACKBONE|DICT|INTERRES
    51   24  149 1    
    52   25   26 2    
    53   25   27 1    
    54   27   28 1    
    55   27   29 1    
    56   27  150 1    
    57   28  151 1    
    58   28  152 1    
    59   28  153 1    
    60   29   30 am   BACKBONE|DICT|INTERRES
    61   29  154 1    
    62   30   31 2    
    63   30   32 1    
    64   32   33 1    
    65   32   34 1    
    66   32  155 1    
    67   33  156 1    
    68   33  157 1    
    69   33  158 1    
    70   34   35 am   BACKBONE|DICT|INTERRES
    71   34  159 1    
    72   35   36 2    
    73   35   37 1    
    74   37   38 1    
    75   37   39 1    
    76   37  160 1    
    77   38  161 1    
    78   38  162 1    
    79   38  163 1    
    80   39   40 am   BACKBONE|DICT|INTERRES
    81   39  164 1    
    82   40   41 2    
    83   40   42 1    
    84   42   43 1    
    85   42   44 1    
    86   42  165 1    
    87   43  166 1    
    88   43  167 1    
    89   43  168 1    
    90   44   45 am   BACKBONE|DICT|INTERRES
    91   44  169 1    
    92   45   46 2    
    93   45   47 1    
    94   47   48 1    
    95   47   49 1    
    96   47  170 1    
    97   48  171 1    
    98   48  172 1    
    99   48  173 1    
   100   49   50 am   BACKBONE|DICT|INTERRES
   101   49  174 1    
   102   50   51 2    
   103   50   52 1    
   104   52   53 1    
   105   52   54 1    
   106   52  175 1    
   107   53  176 1    
   108   53  177 1    
   109   53  178 1    
   110   54   55 am   BACKBONE|DICT|INTERRES
   111   54  179 1    
   112   55   56 2    
   113   55   57 1    
   114   57   58 1    
   115   57   59 1    
   116   57  180 1    
   117   58  181 1    
   118   58  182 1    
   119   58  183 1    
   120   59   60 am   BACKBONE|DICT|INTERRES
   121   59  184 1    
   122   60   61 2    
   123   60   62 1    
   124   62   63 1    
   125   62   64 1    
   126   62  185 1    
   127   63  186 1    
   128   63  187 1    
   129   63  188 1    
   130   64   65 am   BACKBONE|DICT|INTERRES
   131   64  189 1    
   132   65   66 2    
   133   67   68 2    
   134   67   69 am   BACKBONE|DICT|INTERRES
   135   69   70 1    
   136   69  190 1    
   137   70   71 1    
   138   70   72 1    
   139   70  191 1    
   140   71  192 1    
   141   71  193 1    
   142   71  194 1    
   143   72   73 2    
   144   72   74 am   BACKBONE|DICT|INTERRES
   145   74   75 1    
   146   74  195 1    
   147   75   76 1    
   148   75   77 1    
   149   75  196 1    
   150   76  197 1    
   151   76  198 1    
   152   76  199 1    
   153   77   78 2    
   154   77   79 am   BACKBONE|DICT|INTERRES
   155   79   80 1    
   156   79  200 1    
   157   80   81 1    
   158   80   82 1    
   159   80  201 1    
   160   81  202 1    
   161   81  203 1    
   162   81  204 1    
   163   82   83 2    
   164   82   84 am   BACKBONE|DICT|INTERRES
   165   84   85 1    
   166   84  205 1    
   167   85   86 1    
   168   85   87 1    
   169   85  206 1    
   170   86  207 1    
   171   86  208 1    
   172   86  209 1    
   173   87   88 2    
   174   87   89 am   BACKBONE|DICT|INTERRES
   175   89   90 1    
   176   89  210 1    
   177   90   91 1    
   178   90   92 1    
   179   90  211 1    
   180   91  212 1    
   181   91  213 1    
   182   91  214 1    
   183   92   93 2    
   184   92   94 am   BACKBONE|DICT|INTERRES
   185   94   95 1    
   186   94  215 1    
   187   95   96 1    
   188   95   97 1    
   189   95  216 1    
   190   96  217 1    
   191   96  218 1    
   192   96  219 1    
   193   97   98 2    
   194   97   99 am   BACKBONE|DICT|INTERRES
   195   99  100 1    
   196   99  220 1    
   197  100  101 1    
   198  100  102 1    
   199  100  221 1    
   200  101  222 1    
   201  101  223 1    
   202  101  224 1    
   203  102  103 2    
   204  102  104 am   BACKBONE|DICT|INTERRES
   205  104  105 1    
   206  104  225 1    
   207  105  106 1    
   208  105  107 1    
   209  105  226 1    
   210  106  227 1    
   211  106  228 1    
   212  106  229 1    
   213  107  108 2    
   214  107  109 am   BACKBONE|DICT|INTERRES
   215  109  110 1    
   216  109  230 1    
   217  110  111 1    
   218  110  112 1    
   219  110  231 1    
   220  111  232 1    
   221  111  233 1    
   222  111  234 1    
   223  112  113 2    
   224  112  114 am   BACKBONE|DICT|INTERRES
   225  114  115 1    
   226  114  235 1    
   227  115  116 1    
   228  115  117 1    
   229  115  236 1    
   230  116  237 1    
   231  116  238 1    
   232  116  239 1    
   233  117  118 2    
   234  117  119 am   BACKBONE|DICT|INTERRES
   235  119  120 1    
   236  119  240 1    
   237  120  121 1    
   238  120  124 1    
   239  120  241 1    
   240  121  122 am   BACKBONE|DICT|INTERRES
   241  121  123 2    
   242  122  242 1    
   243  122  243 1    
   244  124  125 1    
   245  124  244 1    
   246  124  245 1    
   247  125  126 1    
   248  126  246 1    
   249  126  247 1    
@<TRIPOS>SUBSTRUCTURE
     1 UNK         1 GROUP             0       ****    0 ROOT    
