@<TRIPOS>MOLECULE
3R540
247   249    1
SMALL
USER_CHARGES


@<TRIPOS>ATOM
      1 CA         -2.8638  -13.0987  -49.5045 C.3       0 UNK        -0.1800 
      2 C          -2.4771  -13.8320  -48.2293 C.2       0 UNK         0.5000 
      3 O          -2.1699  -13.1952  -47.2200 O.2       0 UNK        -0.5000 
      4 N          -2.5156  -15.1702  -48.2539 N.am      1 UNK        -0.5000 
      5 CA         -2.1489  -16.0361  -47.1261 C.3       1 UNK         0.1400 
      6 C6         -2.0527  -17.5265  -47.5175 C.3       23 UNK        -0.0398 
      7 S7         -0.8319  -17.8266  -48.8344 S.3       23 UNK        -0.2404 
      8 C8         -1.5456  -19.2990  -49.6448 C.3       23 UNK        -0.0205 
      9 C9         -0.5383  -20.2821  -50.2442 C.ar      23 UNK        -0.0193 
     10 C10        -1.0349  -21.4595  -50.8099 C.ar      23 UNK        -0.1150 
     11 C11        -0.1822  -22.3825  -51.4285 C.ar      23 UNK        -0.0193 
     12 C12         1.1907  -22.1265  -51.4475 C.ar      23 UNK        -0.1150 
     13 C13         1.7120  -20.9707  -50.8627 C.ar      23 UNK        -0.0193 
     14 C14         0.8448  -20.0536  -50.2647 C.ar      23 UNK        -0.1150 
     15 C15         3.2078  -20.6925  -50.9175 C.3       23 UNK        -0.0205 
     16 S16         4.1891  -21.9037  -49.9739 S.3       23 UNK        -0.2404 
     17 C17         3.7636  -21.4914  -48.2481 C.3       23 UNK        -0.0398 
     18 CA          3.3022  -22.7317  -47.4414 C.3       11 UNK         0.1400 
     19 N           3.5273  -22.5469  -46.0068 N.am      11 UNK        -0.5000 
     20 C           3.9141  -23.5059  -45.1556 C.2       10 UNK         0.5000 
     21 O           4.1948  -24.6546  -45.4992 O.2       10 UNK        -0.5000 
     22 CA          4.0030  -23.1215  -43.6640 C.3       10 UNK         0.1400 
     23 CB          5.4217  -22.6461  -43.3156 C.3       10 UNK        -0.1800 
     24 N           3.0455  -22.0844  -43.2744 N.am      10 UNK        -0.5000 
     25 C           1.7176  -22.2558  -43.2230 C.2       9 UNK         0.5000 
     26 O           1.1604  -23.3329  -43.4346 O.2       9 UNK        -0.5000 
     27 CA          0.8605  -21.0144  -42.9033 C.3       9 UNK         0.1400 
     28 CB          0.5578  -20.9518  -41.3990 C.3       9 UNK        -0.1800 
     29 N           1.4157  -19.7225  -43.3280 N.am      9 UNK        -0.5000 
     30 C           1.8569  -19.3965  -44.5519 C.2       8 UNK         0.5000 
     31 O           1.9550  -20.2009  -45.4780 O.2       8 UNK        -0.5000 
     32 CA          2.2621  -17.9354  -44.8011 C.3       8 UNK         0.1400 
     33 CB          1.1666  -17.2216  -45.6016 C.3       8 UNK        -0.1800 
     34 N           2.5078  -17.1934  -43.5630 N.am      8 UNK        -0.5000 
     35 C           3.7218  -16.8460  -43.1124 C.2       7 UNK         0.5000 
     36 O           4.7709  -17.1202  -43.6962 O.2       7 UNK        -0.5000 
     37 CA          3.7898  -16.0574  -41.7886 C.3       7 UNK         0.1400 
     38 CB          3.9033  -14.5506  -42.0645 C.3       7 UNK        -0.1800 
     39 N           2.6448  -16.2998  -40.9104 N.am      7 UNK        -0.5000 
     40 C           2.4385  -17.4432  -40.2410 C.2       6 UNK         0.5000 
     41 O           3.2239  -18.3911  -40.2555 O.2       6 UNK        -0.5000 
     42 CA          1.1239  -17.5707  -39.4445 C.3       6 UNK         0.1400 
     43 CB          1.3616  -17.2340  -37.9649 C.3       6 UNK        -0.1800 
     44 N           0.0167  -16.7502  -39.9448 N.am      6 UNK        -0.5000 
     45 C          -0.4901  -16.7759  -41.1852 C.2       5 UNK         0.5000 
     46 O          -0.0363  -17.4795  -42.0894 O.2       5 UNK        -0.5000 
     47 CA         -1.6789  -15.8415  -41.4862 C.3       5 UNK         0.1400 
     48 CB         -2.2514  -15.1134  -40.2495 C.3       5 UNK        -0.1800 
     49 N          -1.3541  -14.8748  -42.5349 N.am      5 UNK        -0.5000 
     50 C          -0.3548  -13.9804  -42.5421 C.2       4 UNK         0.5000 
     51 O           0.4825  -13.8753  -41.6443 O.2       4 UNK        -0.5000 
     52 CA         -0.2868  -13.0306  -43.7544 C.3       4 UNK         0.1400 
     53 CB          0.5615  -13.6431  -44.8753 C.3       4 UNK        -0.1800 
     54 N          -1.6039  -12.6801  -44.2926 N.am      4 UNK        -0.5000 
     55 C          -2.5038  -11.9111  -43.6620 C.2       3 UNK         0.5000 
     56 O          -2.3102  -11.3882  -42.5640 O.2       3 UNK        -0.5000 
     57 CA         -3.8502  -11.6984  -44.3741 C.3       3 UNK         0.1400 
     58 CB         -3.7407  -10.5922  -45.4354 C.3       3 UNK        -0.1800 
     59 N          -4.3220  -12.9326  -45.0008 N.am      3 UNK        -0.5000 
     60 C          -5.0149  -13.8859  -44.3609 C.2       2 UNK         0.5000 
     61 O          -5.3817  -13.7943  -43.1892 O.2       2 UNK        -0.5000 
     62 CA         -5.3480  -15.1651  -45.1558 C.3       2 UNK         0.1400 
     63 CB         -6.7259  -15.0451  -45.8244 C.3       2 UNK        -0.1800 
     64 N          -4.3502  -15.4829  -46.1775 N.am      2 UNK        -0.5000 
     65 C          -3.0916  -15.8648  -45.9187 C.2       1 UNK         0.5000 
     66 O          -2.6552  -16.0421  -44.7832 O.2       1 UNK        -0.5000 
     67 C           1.8196  -23.0632  -47.6967 C.2       11 UNK         0.5000 
     68 O           1.5149  -23.9942  -48.4431 O.2       11 UNK        -0.5000 
     69 N           0.9231  -22.3288  -47.0242 N.am      12 UNK        -0.5000 
     70 CA         -0.5341  -22.4019  -47.1303 C.3       12 UNK         0.1400 
     71 CB         -1.1209  -21.0895  -46.5852 C.3       12 UNK        -0.1800 
     72 C          -1.1609  -23.6395  -46.4525 C.2       12 UNK         0.5000 
     73 O          -2.2394  -23.5376  -45.8660 O.2       12 UNK        -0.5000 
     74 N          -0.5090  -24.8026  -46.5694 N.am      13 UNK        -0.5000 
     75 CA         -0.9738  -26.0899  -46.0458 C.3       13 UNK         0.1400 
     76 CB          0.1562  -27.1207  -46.1843 C.3       13 UNK        -0.1800 
     77 C          -2.2595  -26.5910  -46.7352 C.2       13 UNK         0.5000 
     78 O          -3.0484  -27.3036  -46.1145 O.2       13 UNK        -0.5000 
     79 N          -2.4568  -26.1775  -47.9938 N.am      14 UNK        -0.5000 
     80 CA         -3.6561  -26.4232  -48.7953 C.3       14 UNK         0.1400 
     81 CB         -3.2267  -26.5920  -50.2621 C.3       14 UNK        -0.1800 
     82 C          -4.7114  -25.3033  -48.6541 C.2       14 UNK         0.5000 
     83 O          -5.7191  -25.3464  -49.3607 O.2       14 UNK        -0.5000 
     84 N          -4.4686  -24.3243  -47.7664 N.am      15 UNK        -0.5000 
     85 CA         -5.2497  -23.1060  -47.5400 C.3       15 UNK         0.1400 
     86 CB         -6.6607  -23.4275  -46.9978 C.3       15 UNK        -0.1800 
     87 C          -5.2378  -22.2022  -48.7876 C.2       15 UNK         0.5000 
     88 O          -4.2318  -21.5336  -49.0252 O.2       15 UNK        -0.5000 
     89 N          -6.3444  -22.1817  -49.5448 N.am      16 UNK        -0.5000 
     90 CA         -6.5873  -21.4933  -50.8237 C.3       16 UNK         0.1400 
     91 CB         -5.5972  -21.9735  -51.8999 C.3       16 UNK        -0.1800 
     92 C          -6.6112  -19.9515  -50.7724 C.2       16 UNK         0.5000 
     93 O          -7.2940  -19.3419  -51.5966 O.2       16 UNK        -0.5000 
     94 N          -5.8705  -19.3483  -49.8338 N.am      17 UNK        -0.5000 
     95 CA         -5.6642  -17.9162  -49.5838 C.3       17 UNK         0.1400 
     96 CB         -6.9853  -17.1780  -49.2971 C.3       17 UNK        -0.1800 
     97 C          -4.8453  -17.2092  -50.6801 C.2       17 UNK         0.5000 
     98 O          -3.8650  -16.5353  -50.3627 O.2       17 UNK        -0.5000 
     99 N          -5.2440  -17.3852  -51.9427 N.am      18 UNK        -0.5000 
    100 CA        -4.5554  -16.8818  -53.1231 C.3       18 UNK         0.1400 
    101 CB        -5.5772  -16.7067  -54.2589 C.3       18 UNK        -0.1800 
    102 C         -3.4295  -17.8494  -53.5196 C.2       18 UNK         0.5000 
    103 O         -3.6920  -18.8615  -54.1731 O.2       18 UNK        -0.5000 
    104 N         -2.1907  -17.5202  -53.1315 N.am      19 UNK        -0.5000 
    105 CA        -0.9817  -18.2946  -53.4360 C.3       19 UNK         0.1400 
    106 CB         0.2294  -17.6213  -52.7746 C.3       19 UNK        -0.1800 
    107 C         -0.7302  -18.4788  -54.9463 C.2       19 UNK         0.5000 
    108 O         -0.2535  -19.5353  -55.3612 O.2       19 UNK        -0.5000 
    109 N         -1.0979  -17.4639  -55.7415 N.am      20 UNK        -0.5000 
    110 CA        -1.0115  -17.4688  -57.2029 C.3       20 UNK         0.1400 
    111 CB        -1.2624  -16.0453  -57.7233 C.3       20 UNK        -0.1800 
    112 C         -1.9784  -18.4655  -57.8725 C.2       20 UNK         0.5000 
    113 O         -1.6546  -18.9929  -58.9372 O.2       20 UNK        -0.5000 
    114 N         -3.1358  -18.7119  -57.2421 N.am      21 UNK        -0.5000 
    115 CA        -4.1038  -19.7217  -57.6733 C.3       21 UNK         0.1400 
    116 CB        -5.5028  -19.3438  -57.1620 C.3       21 UNK        -0.1800 
    117 C         -3.7020  -21.1216  -57.1772 C.2       21 UNK         0.5000 
    118 O         -3.8747  -22.0998  -57.9051 O.2       21 UNK        -0.5000 
    119 N         -3.1701  -21.1805  -55.9502 N.am      22 UNK        -0.5000 
    120 CA        -2.6361  -22.3850  -55.3025 C.3       22 UNK         0.1400 
    121 C         -1.4072  -22.9940  -56.0357 C.2       22 UNK         0.5000 
    122 N         -0.4200  -22.1900  -56.4116 N.am      22 UNK        -0.7600 
    123 O         -1.3542  -24.1971  -56.2754 O.2       22 UNK        -0.5000 
    124 C124       -2.3178  -22.0920  -53.8180 C.3       23 UNK        -0.0398 
    125 S125       -2.4062  -23.5644  -52.7440 S.3       23 UNK        -0.2404 
    126 C126       -0.7011  -23.6586  -52.0937 C.3       23 UNK        -0.0205 
    127 H127       -2.0342  -12.4800  -49.8461 H         1 UNK         0.0600 
    128 H128       -3.7208  -12.4514  -49.3192 H         1 UNK         0.0600 
    129 H129       -3.1255  -13.7911  -50.3052 H         1 UNK         0.0600 
    130 H130       -2.8117  -15.6507  -49.1016 H         1 UNK         0.3000 
    131 H131       -1.1575  -15.7220  -46.7982 H         1 UNK         0.0600 
    132 H132       -1.7603  -18.1265  -46.6541 H         1 UNK         0.0800 
    133 H133       -3.0237  -17.9018  -47.8346 H         1 UNK         0.0800 
    134 H134       -2.1626  -19.8413  -48.9297 H         1 UNK         0.0800 
    135 H135       -2.2193  -18.9618  -50.4333 H         1 UNK         0.0800 
    136 H136       -2.0993  -21.6443  -50.7779 H         1 UNK         0.1150 
    137 H137        1.8623  -22.8305  -51.9187 H         1 UNK         0.1150 
    138 H138        1.2608  -19.1559  -49.8333 H         1 UNK         0.1150 
    139 H139        3.5291  -20.7195  -51.9595 H         1 UNK         0.0800 
    140 H140        3.4342  -19.6878  -50.5569 H         1 UNK         0.0800 
    141 H141        3.0256  -20.6878  -48.2090 H         1 UNK         0.0800 
    142 H142        4.6687  -21.0777  -47.8011 H         1 UNK         0.0800 
    143 H143        3.8914  -23.5887  -47.7755 H         1 UNK         0.0600 
    144 H144        3.2474  -21.6480  -45.6288 H         1 UNK         0.3000 
    145 H145        3.7899  -24.0184  -43.0785 H         1 UNK         0.0600 
    146 H146        5.5194  -22.4438  -42.2488 H         1 UNK         0.0600 
    147 H147        6.1618  -23.4060  -43.5703 H         1 UNK         0.0600 
    148 H148        5.6857  -21.7363  -43.8563 H         1 UNK         0.0600 
    149 H149        3.4171  -21.1663  -43.0790 H         1 UNK         0.3000 
    150 H150       -0.0877  -21.1418  -43.4258 H         1 UNK         0.0600 
    151 H151        0.1390  -21.8937  -41.0419 H         1 UNK         0.0600 
    152 H152       -0.1707  -20.1720  -41.1770 H         1 UNK         0.0600 
    153 H153        1.4583  -20.7503  -40.8176 H         1 UNK         0.0600 
    154 H154        1.3019  -18.9651  -42.6663 H         1 UNK         0.3000 
    155 H155        3.1612  -17.9596  -45.4201 H         1 UNK         0.0600 
    156 H156        1.5077  -16.2425  -45.9350 H         1 UNK         0.0600 
    157 H157        0.2552  -17.0903  -45.0163 H         1 UNK         0.0600 
    158 H158        0.9089  -17.7897  -46.4950 H         1 UNK         0.0600 
    159 H159        1.6908  -16.9710  -43.0042 H         1 UNK         0.3000 
    160 H160        4.6948  -16.3728  -41.2648 H         1 UNK         0.0600 
    161 H161        3.0289  -14.1705  -42.5923 H         1 UNK         0.0600 
    162 H162        4.7776  -14.3305  -42.6784 H         1 UNK         0.0600 
    163 H163        4.0068  -13.9859  -41.1378 H         1 UNK         0.0600 
    164 H164        1.9426  -15.5718  -40.8634 H         1 UNK         0.3000 
    165 H165        0.8088  -18.6133  -39.5072 H         1 UNK         0.0600 
    166 H166        0.4682  -17.4200  -37.3684 H         1 UNK         0.0600 
    167 H167        2.1617  -17.8467  -37.5472 H         1 UNK         0.0600 
    168 H168        1.6444  -16.1890  -37.8314 H         1 UNK         0.0600 
    169 H169       -0.3992  -16.1140  -39.2804 H         1 UNK         0.3000 
    170 H170       -2.4675  -16.4778  -41.8901 H         1 UNK         0.0600 
    171 H171       -2.5739  -15.8226  -39.4862 H         1 UNK         0.0600 
    172 H172       -1.5275  -14.4353  -39.7961 H         1 UNK         0.0600 
    173 H173       -3.1253  -14.5214  -40.5228 H         1 UNK         0.0600 
    174 H174       -1.9193  -14.9649  -43.3739 H         1 UNK         0.3000 
    175 H175        0.2009  -12.1113  -43.4235 H         1 UNK         0.0600 
    176 H176        0.0818  -14.5298  -45.2841 H         1 UNK         0.0600 
    177 H177        0.7072  -12.9360  -45.6921 H         1 UNK         0.0600 
    178 H178        1.5480  -13.9355  -44.5145 H         1 UNK         0.0600 
    179 H179       -1.8239  -13.0196  -45.2230 H         1 UNK         0.3000 
    180 H180       -4.5777  -11.3716  -43.6277 H         1 UNK         0.0600 
    181 H181       -4.7022  -10.4115  -45.9159 H         1 UNK         0.0600 
    182 H182       -3.0195  -10.8433  -46.2136 H         1 UNK         0.0600 
    183 H183       -3.4209   -9.6519  -44.9846 H         1 UNK         0.0600 
    184 H184       -4.0123  -13.1027  -45.9482 H         1 UNK         0.3000 
    185 H185       -5.3834  -15.9942  -44.4458 H         1 UNK         0.0600 
    186 H186       -6.7444  -14.2503  -46.5711 H         1 UNK         0.0600 
    187 H187       -7.0078  -15.9762  -46.3163 H         1 UNK         0.0600 
    188 H188       -7.4991  -14.8219  -45.0880 H         1 UNK         0.0600 
    189 H189       -4.6182  -15.3373  -47.1396 H         1 UNK         0.3000 
    190 H190        1.2754  -21.5931  -46.4165 H         1 UNK         0.3000 
    191 H191       -0.7873  -22.4662  -48.1893 H         1 UNK         0.0600 
    192 H192       -2.1847  -21.0095  -46.8120 H         1 UNK         0.0600 
    193 H193       -0.6216  -20.2277  -47.0252 H         1 UNK         0.0600 
    194 H194       -1.0093  -21.0163  -45.5048 H         1 UNK         0.0600 
    195 H195        0.3490  -24.8036  -47.1121 H         1 UNK         0.3000 
    196 H196       -1.1951  -25.9617  -44.9842 H         1 UNK         0.0600 
    197 H197        0.4365  -27.2724  -47.2275 H         1 UNK         0.0600 
    198 H198        1.0466  -26.8038  -45.6405 H         1 UNK         0.0600 
    199 H199       -0.1449  -28.0879  -45.7798 H         1 UNK         0.0600 
    200 H200       -1.7465  -25.5982  -48.4172 H         1 UNK         0.3000 
    201 H201       -4.1281  -27.3533  -48.4725 H         1 UNK         0.0600 
    202 H202       -2.7708  -25.6817  -50.6505 H         1 UNK         0.0600 
    203 H203       -4.0789  -26.8300  -50.8998 H         1 UNK         0.0600 
    204 H204       -2.5056  -27.4021  -50.3722 H         1 UNK         0.0600 
    205 H205       -3.6141  -24.3752  -47.2250 H         1 UNK         0.3000 
    206 H206       -4.7258  -22.5503  -46.7608 H         1 UNK         0.0600 
    207 H207       -6.5965  -23.9802  -46.0605 H         1 UNK         0.0600 
    208 H208       -7.2166  -22.5119  -46.7919 H         1 UNK         0.0600 
    209 H209       -7.2547  -24.0254  -47.6890 H         1 UNK         0.0600 
    210 H210       -7.1073  -22.7679  -49.2360 H         1 UNK         0.3000 
    211 H211       -7.5855  -21.8029  -51.1366 H         1 UNK         0.0600 
    212 H212       -5.8382  -21.5500  -52.8758 H         1 UNK         0.0600 
    213 H213       -5.6154  -23.0588  -52.0002 H         1 UNK         0.0600 
    214 H214       -4.5766  -21.6763  -51.6611 H         1 UNK         0.0600 
    215 H215       -5.2790  -19.9706  -49.2904 H         1 UNK         0.3000 
    216 H216       -5.0776  -17.8657  -48.6682 H         1 UNK         0.0600 
    217 H217       -6.7953  -16.1445  -49.0050 H         1 UNK         0.0600 
    218 H218       -7.6408  -17.1513  -50.1677 H         1 UNK         0.0600 
    219 H219       -7.5311  -17.6511  -48.4809 H         1 UNK         0.0600 
    220 H220       -6.0391  -17.9983  -52.0997 H         1 UNK         0.3000 
    221 H221       -4.1227  -15.9025  -52.9074 H         1 UNK         0.0600 
    222 H222       -6.3161  -15.9463  -54.0058 H         1 UNK         0.0600 
    223 H223       -6.1141  -17.6328  -54.4669 H         1 UNK         0.0600 
    224 H224       -5.0895  -16.3923  -55.1826 H         1 UNK         0.0600 
    225 H225       -2.0647  -16.6954  -52.5619 H         1 UNK         0.3000 
    226 H226       -1.1054  -19.2855  -52.9964 H         1 UNK         0.0600 
    227 H227        0.4147  -16.6284  -53.1858 H         1 UNK         0.0600 
    228 H228        0.0858  -17.5154  -51.7000 H         1 UNK         0.0600 
    229 H229        1.1329  -18.2146  -52.9224 H         1 UNK         0.0600 
    230 H230       -1.4768  -16.6330  -55.3120 H         1 UNK         0.3000 
    231 H231        0.0043  -17.7598  -57.4790 H         1 UNK         0.0600 
    232 H232       -2.2581  -15.6885  -57.4569 H         1 UNK         0.0600 
    233 H233       -1.1800  -16.0069  -58.8104 H         1 UNK         0.0600 
    234 H234       -0.5335  -15.3428  -57.3189 H         1 UNK         0.0600 
    235 H235       -3.3082  -18.2738  -56.3482 H         1 UNK         0.3000 
    236 H236       -4.1392  -19.7438  -58.7647 H         1 UNK         0.0600 
    237 H237       -6.2528  -20.0419  -57.5355 H         1 UNK         0.0600 
    238 H238       -5.5551  -19.3629  -56.0734 H         1 UNK         0.0600 
    239 H239       -5.7908  -18.3468  -57.4955 H         1 UNK         0.0600 
    240 H240       -3.1280  -20.3251  -55.4074 H         1 UNK         0.3000 
    241 H241       -3.4363  -23.1270  -55.3380 H         1 UNK         0.0600 
    242 H242        0.3754  -22.5741  -56.8952 H         1 UNK         0.3800 
    243 H243       -0.4248  -21.2046  -56.1568 H         1 UNK         0.3800 
    244 H244       -3.0395  -21.3818  -53.4146 H         1 UNK         0.0800 
    245 H245       -1.3495  -21.5994  -53.7248 H         1 UNK         0.0800 
    246 H246       -0.0450  -23.9364  -52.9203 H         1 UNK         0.0800 
    247 H247       -0.6464  -24.4714  -51.3689 H         1 UNK         0.0800 
@<TRIPOS>BOND
     1    1    2 1    
     2    1  127 1    
     3    1  128 1    
     4    1  129 1    
     5    2    3 2    
     6    2    4 am   BACKBONE|DICT|INTERRES
     7    4    5 1    
     8    4  130 1    
     9    5    6 1    
    10    5   65 1    
    11    5  131 1    
    12    6    7 1    
    13    6  132 1    
    14    6  133 1    
    15    7    8 1    
    16    8    9 1    
    17    8  134 1    
    18    8  135 1    
    19    9   10 ar   
    20    9   14 ar   
    21   10   11 ar   
    22   10  136 1    
    23   11   12 ar   
    24   11  126 1    
    25   12   13 ar   
    26   12  137 1    
    27   13   14 ar   
    28   13   15 1    
    29   14  138 1    
    30   15   16 1    
    31   15  139 1    
    32   15  140 1    
    33   16   17 1    
    34   17   18 1    
    35   17  141 1    
    36   17  142 1    
    37   18   19 1    
    38   18   67 1    
    39   18  143 1    
    40   19   20 am   BACKBONE|DICT|INTERRES
    41   19  144 1    
    42   20   21 2    
    43   20   22 1    
    44   22   23 1    
    45   22   24 1    
    46   22  145 1    
    47   23  146 1    
    48   23  147 1    
    49   23  148 1    
    50   24   25 am   BACKBONE|DICT|INTERRES
    51   24  149 1    
    52   25   26 2    
    53   25   27 1    
    54   27   28 1    
    55   27   29 1    
    56   27  150 1    
    57   28  151 1    
    58   28  152 1    
    59   28  153 1    
    60   29   30 am   BACKBONE|DICT|INTERRES
    61   29  154 1    
    62   30   31 2    
    63   30   32 1    
    64   32   33 1    
    65   32   34 1    
    66   32  155 1    
    67   33  156 1    
    68   33  157 1    
    69   33  158 1    
    70   34   35 am   BACKBONE|DICT|INTERRES
    71   34  159 1    
    72   35   36 2    
    73   35   37 1    
    74   37   38 1    
    75   37   39 1    
    76   37  160 1    
    77   38  161 1    
    78   38  162 1    
    79   38  163 1    
    80   39   40 am   BACKBONE|DICT|INTERRES
    81   39  164 1    
    82   40   41 2    
    83   40   42 1    
    84   42   43 1    
    85   42   44 1    
    86   42  165 1    
    87   43  166 1    
    88   43  167 1    
    89   43  168 1    
    90   44   45 am   BACKBONE|DICT|INTERRES
    91   44  169 1    
    92   45   46 2    
    93   45   47 1    
    94   47   48 1    
    95   47   49 1    
    96   47  170 1    
    97   48  171 1    
    98   48  172 1    
    99   48  173 1    
   100   49   50 am   BACKBONE|DICT|INTERRES
   101   49  174 1    
   102   50   51 2    
   103   50   52 1    
   104   52   53 1    
   105   52   54 1    
   106   52  175 1    
   107   53  176 1    
   108   53  177 1    
   109   53  178 1    
   110   54   55 am   BACKBONE|DICT|INTERRES
   111   54  179 1    
   112   55   56 2    
   113   55   57 1    
   114   57   58 1    
   115   57   59 1    
   116   57  180 1    
   117   58  181 1    
   118   58  182 1    
   119   58  183 1    
   120   59   60 am   BACKBONE|DICT|INTERRES
   121   59  184 1    
   122   60   61 2    
   123   60   62 1    
   124   62   63 1    
   125   62   64 1    
   126   62  185 1    
   127   63  186 1    
   128   63  187 1    
   129   63  188 1    
   130   64   65 am   BACKBONE|DICT|INTERRES
   131   64  189 1    
   132   65   66 2    
   133   67   68 2    
   134   67   69 am   BACKBONE|DICT|INTERRES
   135   69   70 1    
   136   69  190 1    
   137   70   71 1    
   138   70   72 1    
   139   70  191 1    
   140   71  192 1    
   141   71  193 1    
   142   71  194 1    
   143   72   73 2    
   144   72   74 am   BACKBONE|DICT|INTERRES
   145   74   75 1    
   146   74  195 1    
   147   75   76 1    
   148   75   77 1    
   149   75  196 1    
   150   76  197 1    
   151   76  198 1    
   152   76  199 1    
   153   77   78 2    
   154   77   79 am   BACKBONE|DICT|INTERRES
   155   79   80 1    
   156   79  200 1    
   157   80   81 1    
   158   80   82 1    
   159   80  201 1    
   160   81  202 1    
   161   81  203 1    
   162   81  204 1    
   163   82   83 2    
   164   82   84 am   BACKBONE|DICT|INTERRES
   165   84   85 1    
   166   84  205 1    
   167   85   86 1    
   168   85   87 1    
   169   85  206 1    
   170   86  207 1    
   171   86  208 1    
   172   86  209 1    
   173   87   88 2    
   174   87   89 am   BACKBONE|DICT|INTERRES
   175   89   90 1    
   176   89  210 1    
   177   90   91 1    
   178   90   92 1    
   179   90  211 1    
   180   91  212 1    
   181   91  213 1    
   182   91  214 1    
   183   92   93 2    
   184   92   94 am   BACKBONE|DICT|INTERRES
   185   94   95 1    
   186   94  215 1    
   187   95   96 1    
   188   95   97 1    
   189   95  216 1    
   190   96  217 1    
   191   96  218 1    
   192   96  219 1    
   193   97   98 2    
   194   97   99 am   BACKBONE|DICT|INTERRES
   195   99  100 1    
   196   99  220 1    
   197  100  101 1    
   198  100  102 1    
   199  100  221 1    
   200  101  222 1    
   201  101  223 1    
   202  101  224 1    
   203  102  103 2    
   204  102  104 am   BACKBONE|DICT|INTERRES
   205  104  105 1    
   206  104  225 1    
   207  105  106 1    
   208  105  107 1    
   209  105  226 1    
   210  106  227 1    
   211  106  228 1    
   212  106  229 1    
   213  107  108 2    
   214  107  109 am   BACKBONE|DICT|INTERRES
   215  109  110 1    
   216  109  230 1    
   217  110  111 1    
   218  110  112 1    
   219  110  231 1    
   220  111  232 1    
   221  111  233 1    
   222  111  234 1    
   223  112  113 2    
   224  112  114 am   BACKBONE|DICT|INTERRES
   225  114  115 1    
   226  114  235 1    
   227  115  116 1    
   228  115  117 1    
   229  115  236 1    
   230  116  237 1    
   231  116  238 1    
   232  116  239 1    
   233  117  118 2    
   234  117  119 am   BACKBONE|DICT|INTERRES
   235  119  120 1    
   236  119  240 1    
   237  120  121 1    
   238  120  124 1    
   239  120  241 1    
   240  121  122 am   BACKBONE|DICT|INTERRES
   241  121  123 2    
   242  122  242 1    
   243  122  243 1    
   244  124  125 1    
   245  124  244 1    
   246  124  245 1    
   247  125  126 1    
   248  126  246 1    
   249  126  247 1    
@<TRIPOS>SUBSTRUCTURE
     1 UNK         1 GROUP             0       ****    0 ROOT    
