@<TRIPOS>MOLECULE
3R540
247   249    1
SMALL
USER_CHARGES


@<TRIPOS>ATOM
      1 CA          1.3014  -11.7235  -46.0756 C.3       0 UNK        -0.1800 
      2 C           0.5836  -13.0112  -46.4509 C.2       0 UNK         0.5000 
      3 O           0.1214  -13.7332  -45.5682 O.2       0 UNK        -0.5000 
      4 N           0.4800  -13.2967  -47.7557 N.am      1 UNK        -0.5000 
      5 CA         -0.1531  -14.4994  -48.3079 C.3       1 UNK         0.1400 
      6 C6          0.1497  -14.6510  -49.8184 C.3       23 UNK        -0.0398 
      7 S7         -0.1421  -16.3360  -50.4512 S.3       23 UNK        -0.2404 
      8 C8          1.4781  -17.0980  -50.1513 C.3       23 UNK        -0.0205 
      9 C9          1.5826  -18.4398  -50.8520 C.ar      23 UNK        -0.0193 
     10 C10         2.1885  -18.5253  -52.1070 C.ar      23 UNK        -0.1150 
     11 C11         2.2996  -19.7551  -52.7586 C.ar      23 UNK        -0.0193 
     12 C12         1.8089  -20.9085  -52.1394 C.ar      23 UNK        -0.1150 
     13 C13         1.1865  -20.8330  -50.8895 C.ar      23 UNK        -0.0193 
     14 C14         1.0747  -19.5941  -50.2510 C.ar      23 UNK        -0.1150 
     15 C15         0.6218  -22.0901  -50.2471 C.3       23 UNK        -0.0205 
     16 S16         1.8270  -22.8777  -49.1367 S.3       23 UNK        -0.2404 
     17 C17         1.5086  -22.0221  -47.5551 C.3       23 UNK        -0.0398 
     18 CA          0.6566  -22.8878  -46.5955 C.3       11 UNK         0.1400 
     19 N           1.0383  -22.7215  -45.1902 N.am      11 UNK        -0.5000 
     20 C           0.6327  -23.5441  -44.2116 C.2       10 UNK         0.5000 
     21 O          -0.1671  -24.4635  -44.3874 O.2       10 UNK        -0.5000 
     22 CA          1.1915  -23.2817  -42.8053 C.3       10 UNK         0.1400 
     23 CB          2.6378  -23.7854  -42.6873 C.3       10 UNK        -0.1800 
     24 N           1.1408  -21.8601  -42.4813 N.am      10 UNK        -0.5000 
     25 C           0.0314  -21.2155  -42.0939 C.2       9 UNK         0.5000 
     26 O          -1.0462  -21.7689  -41.8753 O.2       9 UNK        -0.5000 
     27 CA          0.1455  -19.6860  -41.9674 C.3       9 UNK         0.1400 
     28 CB          0.7142  -19.3082  -40.5908 C.3       9 UNK        -0.1800 
     29 N           0.9730  -19.1075  -43.0316 N.am      9 UNK        -0.5000 
     30 C           0.6398  -19.1378  -44.3327 C.2       8 UNK         0.5000 
     31 O          -0.4278  -19.5835  -44.7408 O.2       8 UNK        -0.5000 
     32 CA          1.6656  -18.6530  -45.3722 C.3       8 UNK         0.1400 
     33 CB          1.2422  -17.3161  -45.9953 C.3       8 UNK        -0.1800 
     34 N           3.0236  -18.5667  -44.8412 N.am      8 UNK        -0.5000 
     35 C           3.7665  -19.6402  -44.5309 C.2       7 UNK         0.5000 
     36 O           3.3762  -20.7991  -44.6921 O.2       7 UNK        -0.5000 
     37 CA          5.1447  -19.3836  -43.8889 C.3       7 UNK         0.1400 
     38 CB          6.2460  -19.4115  -44.9587 C.3       7 UNK        -0.1800 
     39 N           5.2260  -18.1205  -43.1480 N.am      7 UNK        -0.5000 
     40 C           4.4887  -17.8146  -42.0713 C.2       6 UNK         0.5000 
     41 O           3.6665  -18.5873  -41.5788 O.2       6 UNK        -0.5000 
     42 CA          4.6545  -16.4083  -41.4547 C.3       6 UNK         0.1400 
     43 CB          5.7222  -15.5323  -42.1489 C.3       6 UNK        -0.1800 
     44 N           3.3744  -15.6920  -41.3863 N.am      6 UNK        -0.5000 
     45 C           2.5542  -15.4238  -42.4123 C.2       5 UNK         0.5000 
     46 O           2.7906  -15.7443  -43.5792 O.2       5 UNK        -0.5000 
     47 CA          1.2843  -14.6238  -42.0780 C.3       5 UNK         0.1400 
     48 CB          1.5488  -13.1184  -42.2324 C.3       5 UNK        -0.1800 
     49 N           0.1887  -14.9916  -42.9703 N.am      5 UNK        -0.5000 
     50 C          -0.7560  -15.8991  -42.6955 C.2       4 UNK         0.5000 
     51 O          -0.8255  -16.5110  -41.6296 O.2       4 UNK        -0.5000 
     52 CA         -1.8217  -16.1132  -43.7917 C.3       4 UNK         0.1400 
     53 CB         -2.9579  -17.0698  -43.3763 C.3       4 UNK        -0.1800 
     54 N          -2.3561  -14.8372  -44.2724 N.am      4 UNK        -0.5000 
     55 C          -2.9902  -13.8932  -43.5585 C.2       3 UNK         0.5000 
     56 O          -3.3366  -14.0284  -42.3846 O.2       3 UNK        -0.5000 
     57 CA         -3.2604  -12.5504  -44.2655 C.3       3 UNK         0.1400 
     58 CB         -2.2622  -11.4873  -43.7793 C.3       3 UNK        -0.1800 
     59 N          -3.1688  -12.6479  -45.7228 N.am      3 UNK        -0.5000 
     60 C          -4.1302  -13.1400  -46.5157 C.2       2 UNK         0.5000 
     61 O          -5.2354  -13.4992  -46.1093 O.2       2 UNK        -0.5000 
     62 CA         -3.7929  -13.2671  -48.0133 C.3       2 UNK         0.1400 
     63 CB         -4.3077  -12.0481  -48.7928 C.3       2 UNK        -0.1800 
     64 N          -2.3579  -13.4264  -48.2659 N.am      2 UNK        -0.5000 
     65 C          -1.6658  -14.5459  -48.0093 C.2       1 UNK         0.5000 
     66 O          -2.1628  -15.5598  -47.5193 O.2       1 UNK        -0.5000 
     67 C          -0.8598  -22.7203  -46.8417 C.2       11 UNK         0.5000 
     68 O          -1.4107  -23.4617  -47.6499 O.2       11 UNK        -0.5000 
     69 N          -1.5228  -21.8080  -46.1156 N.am      12 UNK        -0.5000 
     70 CA         -2.9767  -21.6095  -46.1657 C.3       12 UNK         0.1400 
     71 CB         -3.3227  -20.2148  -45.6203 C.3       12 UNK        -0.1800 
     72 C          -3.7829  -22.6978  -45.4252 C.2       12 UNK         0.5000 
     73 O          -5.0077  -22.7239  -45.5550 O.2       12 UNK        -0.5000 
     74 N          -3.1081  -23.5668  -44.6599 N.am      13 UNK        -0.5000 
     75 CA         -3.6989  -24.7734  -44.0833 C.3       13 UNK         0.1400 
     76 CB         -3.0909  -25.0394  -42.6967 C.3       13 UNK        -0.1800 
     77 C          -3.4889  -25.9740  -45.0228 C.2       13 UNK         0.5000 
     78 O          -4.4109  -26.7694  -45.2069 O.2       13 UNK        -0.5000 
     79 N          -2.2842  -26.0825  -45.6016 N.am      14 UNK        -0.5000 
     80 CA         -1.8883  -27.1518  -46.5192 C.3       14 UNK         0.1400 
     81 CB         -0.3584  -27.1398  -46.6614 C.3       14 UNK        -0.1800 
     82 C          -2.5540  -27.0590  -47.9065 C.2       14 UNK         0.5000 
     83 O          -2.8532  -28.0940  -48.5041 O.2       14 UNK        -0.5000 
     84 N          -2.7575  -25.8334  -48.3971 N.am      15 UNK        -0.5000 
     85 CA         -3.3128  -25.5058  -49.7061 C.3       15 UNK         0.1400 
     86 CB         -2.1485  -25.2624  -50.6860 C.3       15 UNK        -0.1800 
     87 C          -4.2269  -24.2730  -49.5894 C.2       15 UNK         0.5000 
     88 O          -4.4374  -23.7559  -48.4923 O.2       15 UNK        -0.5000 
     89 N          -4.7691  -23.8204  -50.7266 N.am      16 UNK        -0.5000 
     90 CA         -5.6471  -22.6490  -50.8130 C.3       16 UNK         0.1400 
     91 CB         -6.3993  -22.7003  -52.1502 C.3       16 UNK        -0.1800 
     92 C          -4.9110  -21.3014  -50.6618 C.2       16 UNK         0.5000 
     93 O          -5.5531  -20.3033  -50.3318 O.2       16 UNK        -0.5000 
     94 N          -3.5933  -21.2887  -50.9211 N.am      17 UNK        -0.5000 
     95 CA         -2.7081  -20.1194  -50.9002 C.3       17 UNK         0.1400 
     96 CB         -2.4758  -19.6373  -49.4493 C.3       17 UNK        -0.1800 
     97 C          -3.1998  -19.0215  -51.8675 C.2       17 UNK         0.5000 
     98 O          -3.4252  -19.3212  -53.0442 O.2       17 UNK        -0.5000 
     99 N          -3.3743  -17.7895  -51.3720 N.am      18 UNK        -0.5000 
    100 CA        -3.8035  -16.6116  -52.1303 C.3       18 UNK         0.1400 
    101 CB        -3.8217  -15.3933  -51.1943 C.3       18 UNK        -0.1800 
    102 C         -5.1731  -16.7544  -52.8210 C.2       18 UNK         0.5000 
    103 O         -5.3954  -16.1062  -53.8435 O.2       18 UNK        -0.5000 
    104 N         -6.0555  -17.6046  -52.2751 N.am      19 UNK        -0.5000 
    105 CA        -7.4103  -17.8351  -52.7828 C.3       19 UNK         0.1400 
    106 CB        -8.2120  -18.6347  -51.7448 C.3       19 UNK        -0.1800 
    107 C         -7.4593  -18.5296  -54.1586 C.2       19 UNK         0.5000 
    108 O         -8.4683  -18.3987  -54.8530 O.2       19 UNK        -0.5000 
    109 N         -6.3852  -19.2392  -54.5321 N.am      20 UNK        -0.5000 
    110 CA        -6.2491  -19.9206  -55.8230 C.3       20 UNK         0.1400 
    111 CB        -6.3545  -21.4389  -55.6039 C.3       20 UNK        -0.1800 
    112 C         -4.9438  -19.5449  -56.5503 C.2       20 UNK         0.5000 
    113 O         -4.6172  -20.1897  -57.5471 O.2       20 UNK        -0.5000 
    114 N         -4.2294  -18.5218  -56.0510 N.am      21 UNK        -0.5000 
    115 CA        -2.9183  -18.0440  -56.5080 C.3       21 UNK         0.1400 
    116 CB        -3.0207  -17.4110  -57.9114 C.3       21 UNK        -0.1800 
    117 C         -1.8509  -19.1548  -56.4192 C.2       21 UNK         0.5000 
    118 O         -1.4296  -19.6989  -57.4415 O.2       21 UNK        -0.5000 
    119 N         -1.4807  -19.4817  -55.1757 N.am      22 UNK        -0.5000 
    120 CA        -0.6706  -20.6413  -54.7617 C.3       22 UNK         0.1400 
    121 C         -1.5107  -21.9497  -54.6857 C.2       22 UNK         0.5000 
    122 N         -2.7702  -21.8772  -54.2719 N.am      22 UNK        -0.7600 
    123 O         -1.0281  -23.0388  -54.9839 O.2       22 UNK        -0.5000 
    124 C124        0.6835  -20.8201  -55.5118 C.3       23 UNK        -0.0398 
    125 S125        1.7653  -19.3508  -55.4420 S.3       23 UNK        -0.2404 
    126 C126        2.9416  -19.8249  -54.1347 C.3       23 UNK        -0.0205 
    127 H127        1.5531  -11.1291  -46.9540 H         1 UNK         0.0600 
    128 H128        2.2245  -11.9530  -45.5439 H         1 UNK         0.0600 
    129 H129        0.6730  -11.1167  -45.4242 H         1 UNK         0.0600 
    130 H130        0.8802  -12.6582  -48.4285 H         1 UNK         0.3000 
    131 H131        0.3013  -15.3465  -47.7931 H         1 UNK         0.0600 
    132 H132        1.1896  -14.3899  -50.0194 H         1 UNK         0.0800 
    133 H133       -0.4433  -13.9509  -50.4096 H         1 UNK         0.0800 
    134 H134        2.2712  -16.4353  -50.5010 H         1 UNK         0.0800 
    135 H135        1.6295  -17.2246  -49.0792 H         1 UNK         0.0800 
    136 H136        2.5672  -17.6317  -52.5835 H         1 UNK         0.1150 
    137 H137        1.8963  -21.8638  -52.6376 H         1 UNK         0.1150 
    138 H138        0.5893  -19.5193  -49.2896 H         1 UNK         0.1150 
    139 H139       -0.2989  -21.8679  -49.7082 H         1 UNK         0.0800 
    140 H140        0.3472  -22.8066  -51.0227 H         1 UNK         0.0800 
    141 H141        1.0589  -21.0445  -47.7213 H         1 UNK         0.0800 
    142 H142        2.4876  -21.8254  -47.1161 H         1 UNK         0.0800 
    143 H143        0.8808  -23.9337  -46.8178 H         1 UNK         0.0600 
    144 H144        1.7262  -22.0072  -44.9778 H         1 UNK         0.3000 
    145 H145        0.5799  -23.8349  -42.0890 H         1 UNK         0.0600 
    146 H146        3.0198  -23.6490  -41.6755 H         1 UNK         0.0600 
    147 H147        2.6989  -24.8500  -42.9168 H         1 UNK         0.0600 
    148 H148        3.3084  -23.2632  -43.3709 H         1 UNK         0.0600 
    149 H149        1.9759  -21.3209  -42.6614 H         1 UNK         0.3000 
    150 H150       -0.8570  -19.2640  -42.0508 H         1 UNK         0.0600 
    151 H151        0.0224  -19.5921  -39.7971 H         1 UNK         0.0600 
    152 H152        0.8832  -18.2349  -40.5074 H         1 UNK         0.0600 
    153 H153        1.6609  -19.8108  -40.3911 H         1 UNK         0.0600 
    154 H154        1.8797  -18.7491  -42.7554 H         1 UNK         0.3000 
    155 H155        1.6773  -19.3890  -46.1767 H         1 UNK         0.0600 
    156 H156        1.0752  -16.5464  -45.2447 H         1 UNK         0.0600 
    157 H157        0.3100  -17.4311  -46.5502 H         1 UNK         0.0600 
    158 H158        1.9951  -16.9457  -46.6904 H         1 UNK         0.0600 
    159 H159        3.3653  -17.6392  -44.6175 H         1 UNK         0.3000 
    160 H160        5.3307  -20.1966  -43.1842 H         1 UNK         0.0600 
    161 H161        6.1266  -18.6023  -45.6802 H         1 UNK         0.0600 
    162 H162        6.2283  -20.3510  -45.5129 H         1 UNK         0.0600 
    163 H163        7.2352  -19.3196  -44.5098 H         1 UNK         0.0600 
    164 H164        5.8640  -17.4254  -43.5074 H         1 UNK         0.3000 
    165 H165        4.9769  -16.5675  -40.4248 H         1 UNK         0.0600 
    166 H166        5.8221  -14.5716  -41.6436 H         1 UNK         0.0600 
    167 H167        6.7036  -16.0076  -42.1217 H         1 UNK         0.0600 
    168 H168        5.4760  -15.3284  -43.1916 H         1 UNK         0.0600 
    169 H169        3.0904  -15.4083  -40.4592 H         1 UNK         0.3000 
    170 H170        1.0018  -14.8202  -41.0416 H         1 UNK         0.0600 
    171 H171        2.3423  -12.7882  -41.5609 H         1 UNK         0.0600 
    172 H172        1.8526  -12.8673  -43.2491 H         1 UNK         0.0600 
    173 H173        0.6581  -12.5357  -41.9967 H         1 UNK         0.0600 
    174 H174        0.1935  -14.5517  -43.8884 H         1 UNK         0.3000 
    175 H175       -1.3101  -16.5676  -44.6406 H         1 UNK         0.0600 
    176 H176       -2.5658  -18.0605  -43.1481 H         1 UNK         0.0600 
    177 H177       -3.4887  -16.7158  -42.4924 H         1 UNK         0.0600 
    178 H178       -3.6839  -17.1890  -44.1805 H         1 UNK         0.0600 
    179 H179       -2.0937  -14.6000  -45.2198 H         1 UNK         0.3000 
    180 H180       -4.2670  -12.2256  -43.9935 H         1 UNK         0.0600 
    181 H181       -1.2319  -11.7797  -43.9840 H         1 UNK         0.0600 
    182 H182       -2.3488  -11.3355  -42.7026 H         1 UNK         0.0600 
    183 H183       -2.4424  -10.5247  -44.2580 H         1 UNK         0.0600 
    184 H184       -2.2895  -12.3832  -46.1406 H         1 UNK         0.3000 
    185 H185       -4.3097  -14.1529  -48.3875 H         1 UNK         0.0600 
    186 H186       -5.3803  -11.9151  -48.6456 H         1 UNK         0.0600 
    187 H187       -3.8158  -11.1283  -48.4741 H         1 UNK         0.0600 
    188 H188       -4.1406  -12.1664  -49.8636 H         1 UNK         0.0600 
    189 H189       -1.8728  -12.6277  -48.6484 H         1 UNK         0.3000 
    190 H190       -1.0145  -21.1884  -45.4889 H         1 UNK         0.3000 
    191 H191       -3.2910  -21.6427  -47.2104 H         1 UNK         0.0600 
    192 H192       -2.7930  -19.4331  -46.1655 H         1 UNK         0.0600 
    193 H193       -4.3892  -20.0088  -45.7170 H         1 UNK         0.0600 
    194 H194       -3.0659  -20.1245  -44.5644 H         1 UNK         0.0600 
    195 H195       -2.1029  -23.4784  -44.5912 H         1 UNK         0.3000 
    196 H196       -4.7739  -24.6372  -43.9477 H         1 UNK         0.0600 
    197 H197       -3.5679  -25.8986  -42.2239 H         1 UNK         0.0600 
    198 H198       -3.2310  -24.1839  -42.0355 H         1 UNK         0.0600 
    199 H199       -2.0228  -25.2485  -42.7476 H         1 UNK         0.0600 
    200 H200       -1.5605  -25.4188  -45.3447 H         1 UNK         0.3000 
    201 H201       -2.1802  -28.1052  -46.0740 H         1 UNK         0.0600 
    202 H202        0.1299  -27.2598  -45.6940 H         1 UNK         0.0600 
    203 H203       -0.0048  -26.2068  -47.1017 H         1 UNK         0.0600 
    204 H204       -0.0187  -27.9547  -47.3018 H         1 UNK         0.0600 
    205 H205       -2.4834  -25.0209  -47.8489 H         1 UNK         0.3000 
    206 H206       -3.9265  -26.3327  -50.0686 H         1 UNK         0.0600 
    207 H207       -1.4921  -26.1311  -50.7390 H         1 UNK         0.0600 
    208 H208       -2.5046  -25.0699  -51.6982 H         1 UNK         0.0600 
    209 H209       -1.5429  -24.4088  -50.3789 H         1 UNK         0.0600 
    210 H210       -4.5790  -24.3070  -51.5904 H         1 UNK         0.3000 
    211 H211       -6.3832  -22.7053  -50.0081 H         1 UNK         0.0600 
    212 H212       -5.7068  -22.7413  -52.9894 H         1 UNK         0.0600 
    213 H213       -7.0333  -21.8235  -52.2865 H         1 UNK         0.0600 
    214 H214       -7.0442  -23.5775  -52.2058 H         1 UNK         0.0600 
    215 H215       -3.1699  -22.1567  -51.2125 H         1 UNK         0.3000 
    216 H216       -1.7485  -20.4504  -51.2975 H         1 UNK         0.0600 
    217 H217       -1.7740  -18.8037  -49.4108 H         1 UNK         0.0600 
    218 H218       -2.0489  -20.4341  -48.8423 H         1 UNK         0.0600 
    219 H219       -3.3998  -19.3169  -48.9667 H         1 UNK         0.0600 
    220 H220       -3.1747  -17.6388  -50.3938 H         1 UNK         0.3000 
    221 H221       -3.0606  -16.4353  -52.9108 H         1 UNK         0.0600 
    222 H222       -4.5143  -15.5389  -50.3648 H         1 UNK         0.0600 
    223 H223       -2.8358  -15.1958  -50.7780 H         1 UNK         0.0600 
    224 H224       -4.1304  -14.4920  -51.7256 H         1 UNK         0.0600 
    225 H225       -5.7818  -18.1338  -51.4571 H         1 UNK         0.3000 
    226 H226       -7.8894  -16.8605  -52.8975 H         1 UNK         0.0600 
    227 H227       -8.2217  -18.1316  -50.7778 H         1 UNK         0.0600 
    228 H228       -9.2495  -18.7529  -52.0598 H         1 UNK         0.0600 
    229 H229       -7.8003  -19.6329  -51.5998 H         1 UNK         0.0600 
    230 H230       -5.5977  -19.3021  -53.8988 H         1 UNK         0.3000 
    231 H231       -7.0564  -19.6231  -56.4948 H         1 UNK         0.0600 
    232 H232       -7.2519  -21.6995  -55.0426 H         1 UNK         0.0600 
    233 H233       -5.4905  -21.8214  -55.0634 H         1 UNK         0.0600 
    234 H234       -6.4030  -21.9695  -56.5554 H         1 UNK         0.0600 
    235 H235       -4.6092  -18.0399  -55.2487 H         1 UNK         0.3000 
    236 H236       -2.6163  -17.2545  -55.8177 H         1 UNK         0.0600 
    237 H237       -2.0609  -16.9937  -58.2181 H         1 UNK         0.0600 
    238 H238       -3.3168  -18.1359  -58.6700 H         1 UNK         0.0600 
    239 H239       -3.7474  -16.5988  -57.9237 H         1 UNK         0.0600 
    240 H240       -1.9634  -19.0204  -54.4143 H         1 UNK         0.3000 
    241 H241       -0.4189  -20.4366  -53.7220 H         1 UNK         0.0600 
    242 H242       -3.3222  -22.7177  -54.2439 H         1 UNK         0.3800 
    243 H243       -3.1627  -20.9888  -53.9810 H         1 UNK         0.3800 
    244 H244        1.2302  -21.6691  -55.0995 H         1 UNK         0.0800 
    245 H245        0.5152  -21.0736  -56.5585 H         1 UNK         0.0800 
    246 H246        3.3386  -20.8223  -54.3301 H         1 UNK         0.0800 
    247 H247        3.7965  -19.1480  -54.1700 H         1 UNK         0.0800 
@<TRIPOS>BOND
     1    1    2 1    
     2    1  127 1    
     3    1  128 1    
     4    1  129 1    
     5    2    3 2    
     6    2    4 am   BACKBONE|DICT|INTERRES
     7    4    5 1    
     8    4  130 1    
     9    5    6 1    
    10    5   65 1    
    11    5  131 1    
    12    6    7 1    
    13    6  132 1    
    14    6  133 1    
    15    7    8 1    
    16    8    9 1    
    17    8  134 1    
    18    8  135 1    
    19    9   10 ar   
    20    9   14 ar   
    21   10   11 ar   
    22   10  136 1    
    23   11   12 ar   
    24   11  126 1    
    25   12   13 ar   
    26   12  137 1    
    27   13   14 ar   
    28   13   15 1    
    29   14  138 1    
    30   15   16 1    
    31   15  139 1    
    32   15  140 1    
    33   16   17 1    
    34   17   18 1    
    35   17  141 1    
    36   17  142 1    
    37   18   19 1    
    38   18   67 1    
    39   18  143 1    
    40   19   20 am   BACKBONE|DICT|INTERRES
    41   19  144 1    
    42   20   21 2    
    43   20   22 1    
    44   22   23 1    
    45   22   24 1    
    46   22  145 1    
    47   23  146 1    
    48   23  147 1    
    49   23  148 1    
    50   24   25 am   BACKBONE|DICT|INTERRES
    51   24  149 1    
    52   25   26 2    
    53   25   27 1    
    54   27   28 1    
    55   27   29 1    
    56   27  150 1    
    57   28  151 1    
    58   28  152 1    
    59   28  153 1    
    60   29   30 am   BACKBONE|DICT|INTERRES
    61   29  154 1    
    62   30   31 2    
    63   30   32 1    
    64   32   33 1    
    65   32   34 1    
    66   32  155 1    
    67   33  156 1    
    68   33  157 1    
    69   33  158 1    
    70   34   35 am   BACKBONE|DICT|INTERRES
    71   34  159 1    
    72   35   36 2    
    73   35   37 1    
    74   37   38 1    
    75   37   39 1    
    76   37  160 1    
    77   38  161 1    
    78   38  162 1    
    79   38  163 1    
    80   39   40 am   BACKBONE|DICT|INTERRES
    81   39  164 1    
    82   40   41 2    
    83   40   42 1    
    84   42   43 1    
    85   42   44 1    
    86   42  165 1    
    87   43  166 1    
    88   43  167 1    
    89   43  168 1    
    90   44   45 am   BACKBONE|DICT|INTERRES
    91   44  169 1    
    92   45   46 2    
    93   45   47 1    
    94   47   48 1    
    95   47   49 1    
    96   47  170 1    
    97   48  171 1    
    98   48  172 1    
    99   48  173 1    
   100   49   50 am   BACKBONE|DICT|INTERRES
   101   49  174 1    
   102   50   51 2    
   103   50   52 1    
   104   52   53 1    
   105   52   54 1    
   106   52  175 1    
   107   53  176 1    
   108   53  177 1    
   109   53  178 1    
   110   54   55 am   BACKBONE|DICT|INTERRES
   111   54  179 1    
   112   55   56 2    
   113   55   57 1    
   114   57   58 1    
   115   57   59 1    
   116   57  180 1    
   117   58  181 1    
   118   58  182 1    
   119   58  183 1    
   120   59   60 am   BACKBONE|DICT|INTERRES
   121   59  184 1    
   122   60   61 2    
   123   60   62 1    
   124   62   63 1    
   125   62   64 1    
   126   62  185 1    
   127   63  186 1    
   128   63  187 1    
   129   63  188 1    
   130   64   65 am   BACKBONE|DICT|INTERRES
   131   64  189 1    
   132   65   66 2    
   133   67   68 2    
   134   67   69 am   BACKBONE|DICT|INTERRES
   135   69   70 1    
   136   69  190 1    
   137   70   71 1    
   138   70   72 1    
   139   70  191 1    
   140   71  192 1    
   141   71  193 1    
   142   71  194 1    
   143   72   73 2    
   144   72   74 am   BACKBONE|DICT|INTERRES
   145   74   75 1    
   146   74  195 1    
   147   75   76 1    
   148   75   77 1    
   149   75  196 1    
   150   76  197 1    
   151   76  198 1    
   152   76  199 1    
   153   77   78 2    
   154   77   79 am   BACKBONE|DICT|INTERRES
   155   79   80 1    
   156   79  200 1    
   157   80   81 1    
   158   80   82 1    
   159   80  201 1    
   160   81  202 1    
   161   81  203 1    
   162   81  204 1    
   163   82   83 2    
   164   82   84 am   BACKBONE|DICT|INTERRES
   165   84   85 1    
   166   84  205 1    
   167   85   86 1    
   168   85   87 1    
   169   85  206 1    
   170   86  207 1    
   171   86  208 1    
   172   86  209 1    
   173   87   88 2    
   174   87   89 am   BACKBONE|DICT|INTERRES
   175   89   90 1    
   176   89  210 1    
   177   90   91 1    
   178   90   92 1    
   179   90  211 1    
   180   91  212 1    
   181   91  213 1    
   182   91  214 1    
   183   92   93 2    
   184   92   94 am   BACKBONE|DICT|INTERRES
   185   94   95 1    
   186   94  215 1    
   187   95   96 1    
   188   95   97 1    
   189   95  216 1    
   190   96  217 1    
   191   96  218 1    
   192   96  219 1    
   193   97   98 2    
   194   97   99 am   BACKBONE|DICT|INTERRES
   195   99  100 1    
   196   99  220 1    
   197  100  101 1    
   198  100  102 1    
   199  100  221 1    
   200  101  222 1    
   201  101  223 1    
   202  101  224 1    
   203  102  103 2    
   204  102  104 am   BACKBONE|DICT|INTERRES
   205  104  105 1    
   206  104  225 1    
   207  105  106 1    
   208  105  107 1    
   209  105  226 1    
   210  106  227 1    
   211  106  228 1    
   212  106  229 1    
   213  107  108 2    
   214  107  109 am   BACKBONE|DICT|INTERRES
   215  109  110 1    
   216  109  230 1    
   217  110  111 1    
   218  110  112 1    
   219  110  231 1    
   220  111  232 1    
   221  111  233 1    
   222  111  234 1    
   223  112  113 2    
   224  112  114 am   BACKBONE|DICT|INTERRES
   225  114  115 1    
   226  114  235 1    
   227  115  116 1    
   228  115  117 1    
   229  115  236 1    
   230  116  237 1    
   231  116  238 1    
   232  116  239 1    
   233  117  118 2    
   234  117  119 am   BACKBONE|DICT|INTERRES
   235  119  120 1    
   236  119  240 1    
   237  120  121 1    
   238  120  124 1    
   239  120  241 1    
   240  121  122 am   BACKBONE|DICT|INTERRES
   241  121  123 2    
   242  122  242 1    
   243  122  243 1    
   244  124  125 1    
   245  124  244 1    
   246  124  245 1    
   247  125  126 1    
   248  126  246 1    
   249  126  247 1    
@<TRIPOS>SUBSTRUCTURE
     1 UNK         1 GROUP             0       ****    0 ROOT    
