@<TRIPOS>MOLECULE
3R540
247   249    1
SMALL
USER_CHARGES


@<TRIPOS>ATOM
      1 CA          1.5574   -9.2945  -46.8523 C.3       0 UNK        -0.1800 
      2 C           2.4815   -9.9377  -47.8772 C.2       0 UNK         0.5000 
      3 O           3.2943   -9.2463  -48.4919 O.2       0 UNK        -0.5000 
      4 N           2.3536  -11.2555  -48.0668 N.am      1 UNK        -0.5000 
      5 CA          3.2090  -12.0719  -48.9321 C.3       1 UNK         0.1400 
      6 C6          2.5449  -13.4313  -49.2791 C.3       23 UNK        -0.0398 
      7 S7          2.0041  -14.4034  -47.8234 S.3       23 UNK        -0.2404 
      8 C8          0.2038  -14.1148  -47.8378 C.3       23 UNK        -0.0205 
      9 C9         -0.5760  -15.2674  -48.4565 C.ar      23 UNK        -0.0193 
     10 C10        -0.4451  -15.5636  -49.8158 C.ar      23 UNK        -0.1150 
     11 C11        -1.1948  -16.5836  -50.4087 C.ar      23 UNK        -0.0193 
     12 C12        -2.0987  -17.3049  -49.6150 C.ar      23 UNK        -0.1150 
     13 C13        -2.2482  -17.0172  -48.2547 C.ar      23 UNK        -0.0193 
     14 C14        -1.4744  -16.0061  -47.6807 C.ar      23 UNK        -0.1150 
     15 C15        -3.3045  -17.7396  -47.4268 C.3       23 UNK        -0.0205 
     16 S16        -3.1007  -19.5485  -47.4234 S.3       23 UNK        -0.2404 
     17 C17        -2.0013  -19.8004  -45.9885 C.3       23 UNK        -0.0398 
     18 CA         -1.1446  -21.0844  -46.1030 C.3       11 UNK         0.1400 
     19 N          -0.1043  -21.1456  -45.0726 N.am      11 UNK        -0.5000 
     20 C           0.9545  -21.9689  -45.1299 C.2       10 UNK         0.5000 
     21 O           1.1751  -22.7301  -46.0718 O.2       10 UNK        -0.5000 
     22 CA          1.8978  -21.9869  -43.9111 C.3       10 UNK         0.1400 
     23 CB          2.9527  -20.8771  -44.0277 C.3       10 UNK        -0.1800 
     24 N           1.1924  -21.8528  -42.6353 N.am      10 UNK        -0.5000 
     25 C           0.2667  -22.7091  -42.1803 C.2       9 UNK         0.5000 
     26 O          -0.0386  -23.7472  -42.7634 O.2       9 UNK        -0.5000 
     27 CA         -0.4789  -22.3342  -40.8852 C.3       9 UNK         0.1400 
     28 CB          0.0961  -23.1141  -39.6937 C.3       9 UNK        -0.1800 
     29 N          -0.4731  -20.9029  -40.5682 N.am      9 UNK        -0.5000 
     30 C          -0.9789  -19.9280  -41.3353 C.2       8 UNK         0.5000 
     31 O          -1.4675  -20.1155  -42.4542 O.2       8 UNK        -0.5000 
     32 CA         -0.8586  -18.5102  -40.7584 C.3       8 UNK         0.1400 
     33 CB          0.5851  -18.0009  -40.8935 C.3       8 UNK        -0.1800 
     34 N          -1.7438  -17.5923  -41.4680 N.am      8 UNK        -0.5000 
     35 C          -2.8312  -17.0113  -40.9459 C.2       7 UNK         0.5000 
     36 O          -3.2211  -17.2113  -39.7936 O.2       7 UNK        -0.5000 
     37 CA         -3.6159  -16.0452  -41.8634 C.3       7 UNK         0.1400 
     38 CB         -4.4125  -14.9842  -41.0748 C.3       7 UNK        -0.1800 
     39 N          -2.7881  -15.4093  -42.8956 N.am      7 UNK        -0.5000 
     40 C          -1.7231  -14.6138  -42.7142 C.2       6 UNK         0.5000 
     41 O          -1.2983  -14.2531  -41.6149 O.2       6 UNK        -0.5000 
     42 CA         -0.9890  -14.1825  -43.9988 C.3       6 UNK         0.1400 
     43 CB         -0.5827  -12.6995  -43.9474 C.3       6 UNK        -0.1800 
     44 N           0.2051  -14.9855  -44.2745 N.am      6 UNK        -0.5000 
     45 C           0.2910  -16.3216  -44.3618 C.2       5 UNK         0.5000 
     46 O          -0.6643  -17.0814  -44.2006 O.2       5 UNK        -0.5000 
     47 CA          1.6686  -16.9206  -44.7110 C.3       5 UNK         0.1400 
     48 CB          1.6015  -17.7552  -46.0006 C.3       5 UNK        -0.1800 
     49 N           2.7197  -15.9162  -44.8671 N.am      5 UNK        -0.5000 
     50 C           3.4553  -15.4021  -43.8727 C.2       4 UNK         0.5000 
     51 O           3.2665  -15.6608  -42.6834 O.2       4 UNK        -0.5000 
     52 CA          4.5899  -14.4442  -44.2987 C.3       4 UNK         0.1400 
     53 CB          5.6685  -14.2601  -43.2114 C.3       4 UNK        -0.1800 
     54 N           5.1975  -14.8202  -45.5819 N.am      4 UNK        -0.5000 
     55 C           5.8238  -15.9726  -45.8794 C.2       3 UNK         0.5000 
     56 O           6.0263  -16.8736  -45.0649 O.2       3 UNK        -0.5000 
     57 CA          6.2768  -16.1797  -47.3400 C.3       3 UNK         0.1400 
     58 CB          5.3278  -17.1588  -48.0509 C.3       3 UNK        -0.1800 
     59 N           6.3318  -14.9418  -48.1169 N.am      3 UNK        -0.5000 
     60 C           7.2472  -13.9743  -47.9688 C.2       2 UNK         0.5000 
     61 O           8.2185  -14.0613  -47.2172 O.2       2 UNK        -0.5000 
     62 CA          7.0215  -12.6788  -48.7766 C.3       2 UNK         0.1400 
     63 CB          7.8970  -12.6741  -50.0392 C.3       2 UNK        -0.1800 
     64 N           5.6230  -12.4505  -49.1647 N.am      2 UNK        -0.5000 
     65 C           4.6079  -12.2634  -48.3089 C.2       1 UNK         0.5000 
     66 O           4.7392  -12.2909  -47.0821 O.2       1 UNK        -0.5000 
     67 C          -2.0070  -22.3645  -46.0866 C.2       11 UNK         0.5000 
     68 O          -2.3103  -22.9039  -47.1505 O.2       11 UNK        -0.5000 
     69 N          -2.3464  -22.8550  -44.8853 N.am      12 UNK        -0.5000 
     70 CA         -3.1071  -24.0906  -44.6858 C.3       12 UNK         0.1400 
     71 CB         -3.5295  -24.2046  -43.2131 C.3       12 UNK        -0.1800 
     72 C          -2.3342  -25.3442  -45.1379 C.2       12 UNK         0.5000 
     73 O          -2.9291  -26.2367  -45.7418 O.2       12 UNK        -0.5000 
     74 N          -1.0226  -25.3717  -44.8635 N.am      13 UNK        -0.5000 
     75 CA         -0.0961  -26.4213  -45.2861 C.3       13 UNK         0.1400 
     76 CB          1.2498  -26.2344  -44.5690 C.3       13 UNK        -0.1800 
     77 C           0.1006  -26.4597  -46.8120 C.2       13 UNK         0.5000 
     78 O           0.1284  -27.5472  -47.3898 O.2       13 UNK        -0.5000 
     79 N           0.2169  -25.2792  -47.4380 N.am      14 UNK        -0.5000 
     80 CA          0.2971  -25.1253  -48.8916 C.3       14 UNK         0.1400 
     81 CB          0.7378  -23.6923  -49.2300 C.3       14 UNK        -0.1800 
     82 C          -1.0325  -25.4564  -49.5944 C.2       14 UNK         0.5000 
     83 O          -1.0168  -26.0393  -50.6786 O.2       14 UNK        -0.5000 
     84 N          -2.1480  -25.0591  -48.9631 N.am      15 UNK        -0.5000 
     85 CA         -3.5402  -25.1866  -49.4082 C.3       15 UNK         0.1400 
     86 CB         -3.9485  -26.6671  -49.5448 C.3       15 UNK        -0.1800 
     87 C          -3.8596  -24.3634  -50.6739 C.2       15 UNK         0.5000 
     88 O          -4.8636  -24.6213  -51.3374 O.2       15 UNK        -0.5000 
     89 N          -3.0186  -23.3679  -50.9831 N.am      16 UNK        -0.5000 
     90 CA         -3.0885  -22.5602  -52.2001 C.3       16 UNK         0.1400 
     91 CB         -1.7897  -21.7577  -52.3350 C.3       16 UNK        -0.1800 
     92 C          -4.3235  -21.6432  -52.2645 C.2       16 UNK         0.5000 
     93 O          -4.8220  -21.3777  -53.3585 O.2       16 UNK        -0.5000 
     94 N          -4.8202  -21.2011  -51.1017 N.am      17 UNK        -0.5000 
     95 CA         -6.0680  -20.4447  -50.9848 C.3       17 UNK         0.1400 
     96 CB         -6.0910  -19.6999  -49.6436 C.3       17 UNK        -0.1800 
     97 C          -7.3114  -21.3388  -51.1424 C.2       17 UNK         0.5000 
     98 O          -8.3035  -20.8941  -51.7185 O.2       17 UNK        -0.5000 
     99 N          -7.2294  -22.5905  -50.6670 N.am      18 UNK        -0.5000 
    100 CA        -8.2824  -23.6008  -50.8098 C.3       18 UNK         0.1400 
    101 CB        -8.0311  -24.7532  -49.8250 C.3       18 UNK        -0.1800 
    102 C         -8.3868  -24.1201  -52.2556 C.2       18 UNK         0.5000 
    103 O         -9.4932  -24.3341  -52.7514 O.2       18 UNK        -0.5000 
    104 N         -7.2309  -24.2619  -52.9186 N.am      19 UNK        -0.5000 
    105 CA        -7.0994  -24.5825  -54.3414 C.3       19 UNK         0.1400 
    106 CB        -5.6494  -25.0152  -54.6107 C.3       19 UNK        -0.1800 
    107 C         -7.4876  -23.4149  -55.2740 C.2       19 UNK         0.5000 
    108 O         -7.6415  -23.6345  -56.4758 O.2       19 UNK        -0.5000 
    109 N         -7.6193  -22.2043  -54.7101 N.am      20 UNK        -0.5000 
    110 CA        -7.9244  -20.9301  -55.3685 C.3       20 UNK         0.1400 
    111 CB        -9.3264  -20.9569  -56.0122 C.3       20 UNK        -0.1800 
    112 C         -6.8180  -20.4639  -56.3384 C.2       20 UNK         0.5000 
    113 O         -7.1008  -19.7507  -57.3031 O.2       20 UNK        -0.5000 
    114 N         -5.5697  -20.8554  -56.0506 N.am      21 UNK        -0.5000 
    115 CA        -4.3669  -20.3465  -56.7058 C.3       21 UNK         0.1400 
    116 CB        -3.2135  -21.3408  -56.4995 C.3       21 UNK        -0.1800 
    117 C         -4.0065  -18.9561  -56.1541 C.2       21 UNK         0.5000 
    118 O         -3.6487  -18.0654  -56.9259 O.2       21 UNK        -0.5000 
    119 N         -4.1526  -18.7928  -54.8338 N.am      22 UNK        -0.5000 
    120 CA        -4.1084  -17.5007  -54.1395 C.3       22 UNK         0.1400 
    121 C         -5.5119  -16.8399  -54.1530 C.2       22 UNK         0.5000 
    122 N         -5.5912  -15.5365  -54.3815 N.am      22 UNK        -0.7600 
    123 O         -6.5269  -17.4931  -53.9192 O.2       22 UNK        -0.5000 
    124 C124       -3.5977  -17.6481  -52.6862 C.3       23 UNK        -0.0398 
    125 S125       -1.8821  -18.2639  -52.6162 S.3       23 UNK        -0.2404 
    126 C126       -0.9938  -16.8363  -51.9061 C.3       23 UNK        -0.0205 
    127 H127        0.9471   -8.5261  -47.3269 H         1 UNK         0.0600 
    128 H128        2.1433   -8.8263  -46.0613 H         1 UNK         0.0600 
    129 H129        0.8895  -10.0242  -46.3936 H         1 UNK         0.0600 
    130 H130        1.7044  -11.7765  -47.4969 H         1 UNK         0.3000 
    131 H131        3.3439  -11.5262  -49.8687 H         1 UNK         0.0600 
    132 H132        3.2199  -14.0511  -49.8714 H         1 UNK         0.0800 
    133 H133        1.6902  -13.2479  -49.9301 H         1 UNK         0.0800 
    134 H134       -0.0351  -13.1925  -48.3686 H         1 UNK         0.0800 
    135 H135       -0.1210  -13.9517  -46.8120 H         1 UNK         0.0800 
    136 H136        0.2415  -14.9911  -50.4220 H         1 UNK         0.1150 
    137 H137       -2.7068  -18.0878  -50.0418 H         1 UNK         0.1150 
    138 H138       -1.5981  -15.7744  -46.6341 H         1 UNK         0.1150 
    139 H139       -4.2841  -17.5030  -47.8433 H         1 UNK         0.0800 
    140 H140       -3.3183  -17.3748  -46.3984 H         1 UNK         0.0800 
    141 H141       -1.3468  -18.9329  -45.9193 H         1 UNK         0.0800 
    142 H142       -2.5976  -19.8036  -45.0744 H         1 UNK         0.0800 
    143 H143       -0.6375  -21.0504  -47.0702 H         1 UNK         0.0600 
    144 H144       -0.2634  -20.5991  -44.2346 H         1 UNK         0.3000 
    145 H145        2.4131  -22.9496  -43.9075 H         1 UNK         0.0600 
    146 H146        3.4937  -20.9479  -44.9724 H         1 UNK         0.0600 
    147 H147        3.6889  -20.9465  -43.2267 H         1 UNK         0.0600 
    148 H148        2.5003  -19.8872  -43.9821 H         1 UNK         0.0600 
    149 H149        1.3895  -21.0289  -42.0880 H         1 UNK         0.3000 
    150 H150       -1.5202  -22.6338  -41.0177 H         1 UNK         0.0600 
    151 H151        1.1301  -22.8328  -39.4902 H         1 UNK         0.0600 
    152 H152        0.0795  -24.1882  -39.8842 H         1 UNK         0.0600 
    153 H153       -0.4854  -22.9385  -38.7884 H         1 UNK         0.0600 
    154 H154       -0.0745  -20.6539  -39.6741 H         1 UNK         0.3000 
    155 H155       -1.1138  -18.5487  -39.6975 H         1 UNK         0.0600 
    156 H156        0.6705  -16.9621  -40.5731 H         1 UNK         0.0600 
    157 H157        0.9363  -18.0619  -41.9217 H         1 UNK         0.0600 
    158 H158        1.2701  -18.5864  -40.2794 H         1 UNK         0.0600 
    159 H159       -1.5174  -17.4285  -42.4451 H         1 UNK         0.3000 
    160 H160       -4.3375  -16.6656  -42.3967 H         1 UNK         0.0600 
    161 H161       -3.7613  -14.3657  -40.4566 H         1 UNK         0.0600 
    162 H162       -5.1421  -15.4527  -40.4133 H         1 UNK         0.0600 
    163 H163       -4.9633  -14.3252  -41.7459 H         1 UNK         0.0600 
    164 H164       -3.0062  -15.6865  -43.8421 H         1 UNK         0.3000 
    165 H165       -1.6747  -14.3044  -44.8384 H         1 UNK         0.0600 
    166 H166       -0.1611  -12.3685  -44.8965 H         1 UNK         0.0600 
    167 H167       -1.4456  -12.0659  -43.7385 H         1 UNK         0.0600 
    168 H168        0.1582  -12.5112  -43.1693 H         1 UNK         0.0600 
    169 H169        1.0620  -14.4692  -44.3997 H         1 UNK         0.3000 
    170 H170        1.9496  -17.5890  -43.8975 H         1 UNK         0.0600 
    171 H171        2.5814  -18.1526  -46.2663 H         1 UNK         0.0600 
    172 H172        1.2359  -17.1709  -46.8452 H         1 UNK         0.0600 
    173 H173        0.9358  -18.6080  -45.8802 H         1 UNK         0.0600 
    174 H174        2.9217  -15.6251  -45.8139 H         1 UNK         0.3000 
    175 H175        4.1196  -13.4734  -44.4612 H         1 UNK         0.0600 
    176 H176        5.2381  -13.8418  -42.3009 H         1 UNK         0.0600 
    177 H177        6.1418  -15.2052  -42.9440 H         1 UNK         0.0600 
    178 H178        6.4492  -13.5760  -43.5441 H         1 UNK         0.0600 
    179 H179        5.1013  -14.1222  -46.3123 H         1 UNK         0.3000 
    180 H180        7.2757  -16.6202  -47.3174 H         1 UNK         0.0600 
    181 H181        5.6662  -17.3709  -49.0652 H         1 UNK         0.0600 
    182 H182        4.3123  -16.7647  -48.1103 H         1 UNK         0.0600 
    183 H183        5.2782  -18.1111  -47.5212 H         1 UNK         0.0600 
    184 H184        5.5800  -14.7870  -48.7713 H         1 UNK         0.3000 
    185 H185        7.3304  -11.8450  -48.1428 H         1 UNK         0.0600 
    186 H186        8.9491  -12.8124  -49.7862 H         1 UNK         0.0600 
    187 H187        7.6169  -13.4737  -50.7261 H         1 UNK         0.0600 
    188 H188        7.8156  -11.7271  -50.5731 H         1 UNK         0.0600 
    189 H189        5.4400  -12.4183  -50.1576 H         1 UNK         0.3000 
    190 H190       -2.0348  -22.3701  -44.0563 H         1 UNK         0.3000 
    191 H191       -4.0131  -24.0245  -45.2921 H         1 UNK         0.0600 
    192 H192       -4.1073  -23.3353  -42.8986 H         1 UNK         0.0600 
    193 H193       -4.1550  -25.0843  -43.0567 H         1 UNK         0.0600 
    194 H194       -2.6697  -24.2952  -42.5496 H         1 UNK         0.0600 
    195 H195       -0.6337  -24.6323  -44.2834 H         1 UNK         0.3000 
    196 H196       -0.5147  -27.3819  -44.9789 H         1 UNK         0.0600 
    197 H197        1.9558  -27.0161  -44.8520 H         1 UNK         0.0600 
    198 H198        1.1290  -26.2811  -43.4866 H         1 UNK         0.0600 
    199 H199        1.7057  -25.2744  -44.8129 H         1 UNK         0.0600 
    200 H200        0.2482  -24.4290  -46.8862 H         1 UNK         0.3000 
    201 H201        1.0565  -25.8135  -49.2689 H         1 UNK         0.0600 
    202 H202        0.8101  -23.5483  -50.3088 H         1 UNK         0.0600 
    203 H203        1.7180  -23.4727  -48.8065 H         1 UNK         0.0600 
    204 H204        0.0358  -22.9518  -48.8446 H         1 UNK         0.0600 
    205 H205       -2.0352  -24.5147  -48.1117 H         1 UNK         0.3000 
    206 H206       -4.1455  -24.7535  -48.6108 H         1 UNK         0.0600 
    207 H207       -3.7144  -27.2236  -48.6370 H         1 UNK         0.0600 
    208 H208       -5.0211  -26.7639  -49.7159 H         1 UNK         0.0600 
    209 H209       -3.4415  -27.1534  -50.3784 H         1 UNK         0.0600 
    210 H210       -2.2335  -23.2055  -50.3705 H         1 UNK         0.3000 
    211 H211       -3.1490  -23.2434  -53.0495 H         1 UNK         0.0600 
    212 H212       -1.6540  -21.0696  -51.4997 H         1 UNK         0.0600 
    213 H213       -1.7876  -21.1719  -53.2546 H         1 UNK         0.0600 
    214 H214       -0.9213  -22.4157  -52.3712 H         1 UNK         0.0600 
    215 H215       -4.3438  -21.4451  -50.2457 H         1 UNK         0.3000 
    216 H216       -6.1057  -19.6997  -51.7824 H         1 UNK         0.0600 
    217 H217       -7.0183  -19.1384  -49.5228 H         1 UNK         0.0600 
    218 H218       -6.0062  -20.3836  -48.7980 H         1 UNK         0.0600 
    219 H219       -5.2707  -18.9853  -49.5834 H         1 UNK         0.0600 
    220 H220       -6.3638  -22.8958  -50.2489 H         1 UNK         0.3000 
    221 H221       -9.2380  -23.1393  -50.5513 H         1 UNK         0.0600 
    222 H222       -7.0942  -25.2698  -50.0324 H         1 UNK         0.0600 
    223 H223       -7.9956  -24.3930  -48.7968 H         1 UNK         0.0600 
    224 H224       -8.8304  -25.4931  -49.8823 H         1 UNK         0.0600 
    225 H225       -6.3632  -24.1598  -52.3984 H         1 UNK         0.3000 
    226 H226       -7.7595  -25.4219  -54.5688 H         1 UNK         0.0600 
    227 H227       -5.5178  -25.3236  -55.6485 H         1 UNK         0.0600 
    228 H228       -4.9480  -24.2028  -54.4185 H         1 UNK         0.0600 
    229 H229       -5.3650  -25.8592  -53.9819 H         1 UNK         0.0600 
    230 H230       -7.4586  -22.1430  -53.7147 H         1 UNK         0.3000 
    231 H231       -7.9477  -20.1850  -54.5717 H         1 UNK         0.0600 
    232 H232       -9.3653  -21.6217  -56.8753 H         1 UNK         0.0600 
    233 H233       -9.6182  -19.9630  -56.3534 H         1 UNK         0.0600 
    234 H234      -10.0808  -21.2874  -55.2982 H         1 UNK         0.0600 
    235 H235       -5.4237  -21.3791  -55.1931 H         1 UNK         0.3000 
    236 H236       -4.5532  -20.2546  -57.7779 H         1 UNK         0.0600 
    237 H237       -2.9791  -21.4775  -55.4436 H         1 UNK         0.0600 
    238 H238       -3.4581  -22.3180  -56.9161 H         1 UNK         0.0600 
    239 H239       -2.3064  -20.9924  -56.9946 H         1 UNK         0.0600 
    240 H240       -4.4738  -19.5823  -54.2861 H         1 UNK         0.3000 
    241 H241       -3.4162  -16.8412  -54.6672 H         1 UNK         0.0600 
    242 H242       -4.7725  -14.9790  -54.5717 H         1 UNK         0.3800 
    243 H243       -6.4978  -15.0951  -54.3786 H         1 UNK         0.3800 
    244 H244       -4.2280  -18.3359  -52.1230 H         1 UNK         0.0800 
    245 H245       -3.6547  -16.6914  -52.1639 H         1 UNK         0.0800 
    246 H246        0.0709  -16.9930  -52.0849 H         1 UNK         0.0800 
    247 H247       -1.2676  -15.9378  -52.4611 H         1 UNK         0.0800 
@<TRIPOS>BOND
     1    1    2 1    
     2    1  127 1    
     3    1  128 1    
     4    1  129 1    
     5    2    3 2    
     6    2    4 am   BACKBONE|DICT|INTERRES
     7    4    5 1    
     8    4  130 1    
     9    5    6 1    
    10    5   65 1    
    11    5  131 1    
    12    6    7 1    
    13    6  132 1    
    14    6  133 1    
    15    7    8 1    
    16    8    9 1    
    17    8  134 1    
    18    8  135 1    
    19    9   10 ar   
    20    9   14 ar   
    21   10   11 ar   
    22   10  136 1    
    23   11   12 ar   
    24   11  126 1    
    25   12   13 ar   
    26   12  137 1    
    27   13   14 ar   
    28   13   15 1    
    29   14  138 1    
    30   15   16 1    
    31   15  139 1    
    32   15  140 1    
    33   16   17 1    
    34   17   18 1    
    35   17  141 1    
    36   17  142 1    
    37   18   19 1    
    38   18   67 1    
    39   18  143 1    
    40   19   20 am   BACKBONE|DICT|INTERRES
    41   19  144 1    
    42   20   21 2    
    43   20   22 1    
    44   22   23 1    
    45   22   24 1    
    46   22  145 1    
    47   23  146 1    
    48   23  147 1    
    49   23  148 1    
    50   24   25 am   BACKBONE|DICT|INTERRES
    51   24  149 1    
    52   25   26 2    
    53   25   27 1    
    54   27   28 1    
    55   27   29 1    
    56   27  150 1    
    57   28  151 1    
    58   28  152 1    
    59   28  153 1    
    60   29   30 am   BACKBONE|DICT|INTERRES
    61   29  154 1    
    62   30   31 2    
    63   30   32 1    
    64   32   33 1    
    65   32   34 1    
    66   32  155 1    
    67   33  156 1    
    68   33  157 1    
    69   33  158 1    
    70   34   35 am   BACKBONE|DICT|INTERRES
    71   34  159 1    
    72   35   36 2    
    73   35   37 1    
    74   37   38 1    
    75   37   39 1    
    76   37  160 1    
    77   38  161 1    
    78   38  162 1    
    79   38  163 1    
    80   39   40 am   BACKBONE|DICT|INTERRES
    81   39  164 1    
    82   40   41 2    
    83   40   42 1    
    84   42   43 1    
    85   42   44 1    
    86   42  165 1    
    87   43  166 1    
    88   43  167 1    
    89   43  168 1    
    90   44   45 am   BACKBONE|DICT|INTERRES
    91   44  169 1    
    92   45   46 2    
    93   45   47 1    
    94   47   48 1    
    95   47   49 1    
    96   47  170 1    
    97   48  171 1    
    98   48  172 1    
    99   48  173 1    
   100   49   50 am   BACKBONE|DICT|INTERRES
   101   49  174 1    
   102   50   51 2    
   103   50   52 1    
   104   52   53 1    
   105   52   54 1    
   106   52  175 1    
   107   53  176 1    
   108   53  177 1    
   109   53  178 1    
   110   54   55 am   BACKBONE|DICT|INTERRES
   111   54  179 1    
   112   55   56 2    
   113   55   57 1    
   114   57   58 1    
   115   57   59 1    
   116   57  180 1    
   117   58  181 1    
   118   58  182 1    
   119   58  183 1    
   120   59   60 am   BACKBONE|DICT|INTERRES
   121   59  184 1    
   122   60   61 2    
   123   60   62 1    
   124   62   63 1    
   125   62   64 1    
   126   62  185 1    
   127   63  186 1    
   128   63  187 1    
   129   63  188 1    
   130   64   65 am   BACKBONE|DICT|INTERRES
   131   64  189 1    
   132   65   66 2    
   133   67   68 2    
   134   67   69 am   BACKBONE|DICT|INTERRES
   135   69   70 1    
   136   69  190 1    
   137   70   71 1    
   138   70   72 1    
   139   70  191 1    
   140   71  192 1    
   141   71  193 1    
   142   71  194 1    
   143   72   73 2    
   144   72   74 am   BACKBONE|DICT|INTERRES
   145   74   75 1    
   146   74  195 1    
   147   75   76 1    
   148   75   77 1    
   149   75  196 1    
   150   76  197 1    
   151   76  198 1    
   152   76  199 1    
   153   77   78 2    
   154   77   79 am   BACKBONE|DICT|INTERRES
   155   79   80 1    
   156   79  200 1    
   157   80   81 1    
   158   80   82 1    
   159   80  201 1    
   160   81  202 1    
   161   81  203 1    
   162   81  204 1    
   163   82   83 2    
   164   82   84 am   BACKBONE|DICT|INTERRES
   165   84   85 1    
   166   84  205 1    
   167   85   86 1    
   168   85   87 1    
   169   85  206 1    
   170   86  207 1    
   171   86  208 1    
   172   86  209 1    
   173   87   88 2    
   174   87   89 am   BACKBONE|DICT|INTERRES
   175   89   90 1    
   176   89  210 1    
   177   90   91 1    
   178   90   92 1    
   179   90  211 1    
   180   91  212 1    
   181   91  213 1    
   182   91  214 1    
   183   92   93 2    
   184   92   94 am   BACKBONE|DICT|INTERRES
   185   94   95 1    
   186   94  215 1    
   187   95   96 1    
   188   95   97 1    
   189   95  216 1    
   190   96  217 1    
   191   96  218 1    
   192   96  219 1    
   193   97   98 2    
   194   97   99 am   BACKBONE|DICT|INTERRES
   195   99  100 1    
   196   99  220 1    
   197  100  101 1    
   198  100  102 1    
   199  100  221 1    
   200  101  222 1    
   201  101  223 1    
   202  101  224 1    
   203  102  103 2    
   204  102  104 am   BACKBONE|DICT|INTERRES
   205  104  105 1    
   206  104  225 1    
   207  105  106 1    
   208  105  107 1    
   209  105  226 1    
   210  106  227 1    
   211  106  228 1    
   212  106  229 1    
   213  107  108 2    
   214  107  109 am   BACKBONE|DICT|INTERRES
   215  109  110 1    
   216  109  230 1    
   217  110  111 1    
   218  110  112 1    
   219  110  231 1    
   220  111  232 1    
   221  111  233 1    
   222  111  234 1    
   223  112  113 2    
   224  112  114 am   BACKBONE|DICT|INTERRES
   225  114  115 1    
   226  114  235 1    
   227  115  116 1    
   228  115  117 1    
   229  115  236 1    
   230  116  237 1    
   231  116  238 1    
   232  116  239 1    
   233  117  118 2    
   234  117  119 am   BACKBONE|DICT|INTERRES
   235  119  120 1    
   236  119  240 1    
   237  120  121 1    
   238  120  124 1    
   239  120  241 1    
   240  121  122 am   BACKBONE|DICT|INTERRES
   241  121  123 2    
   242  122  242 1    
   243  122  243 1    
   244  124  125 1    
   245  124  244 1    
   246  124  245 1    
   247  125  126 1    
   248  126  246 1    
   249  126  247 1    
@<TRIPOS>SUBSTRUCTURE
     1 UNK         1 GROUP             0       ****    0 ROOT    
