@<TRIPOS>MOLECULE
3R540
247   249    1
SMALL
USER_CHARGES


@<TRIPOS>ATOM
      1 CA          3.7692  -18.0295  -47.3637 C.3       0 UNK        -0.1800 
      2 C           3.0485  -16.7043  -47.1680 C.2       0 UNK         0.5000 
      3 O           3.4094  -15.9352  -46.2764 O.2       0 UNK        -0.5000 
      4 N           2.0378  -16.4223  -48.0022 N.am      1 UNK        -0.5000 
      5 CA          1.2127  -15.2052  -47.9479 C.3       1 UNK         0.1400 
      6 C6          0.0017  -15.2682  -48.9102 C.3       23 UNK        -0.0398 
      7 S7         -1.1421  -16.6473  -48.5491 S.3       23 UNK        -0.2404 
      8 C8         -2.3961  -15.7929  -47.5452 C.3       23 UNK        -0.0205 
      9 C9         -3.6516  -16.6273  -47.3446 C.ar      23 UNK        -0.0193 
     10 C10        -4.6014  -16.7059  -48.3668 C.ar      23 UNK        -0.1150 
     11 C11        -5.7987  -17.3981  -48.1712 C.ar      23 UNK        -0.0193 
     12 C12        -6.0356  -18.0281  -46.9469 C.ar      23 UNK        -0.1150 
     13 C13        -5.1013  -17.9533  -45.9099 C.ar      23 UNK        -0.0193 
     14 C14        -3.9058  -17.2523  -46.1185 C.ar      23 UNK        -0.1150 
     15 C15        -5.4587  -18.5469  -44.5489 C.3       23 UNK        -0.0205 
     16 S16        -4.0751  -19.3509  -43.6807 S.3       23 UNK        -0.2404 
     17 C17        -3.8750  -20.9061  -44.6171 C.3       23 UNK        -0.0398 
     18 CA         -2.7746  -20.8438  -45.7069 C.3       11 UNK         0.1400 
     19 N          -1.5560  -20.1773  -45.2456 N.am      11 UNK        -0.5000 
     20 C          -0.5250  -19.8331  -46.0252 C.2       10 UNK         0.5000 
     21 O          -0.4802  -20.0303  -47.2382 O.2       10 UNK        -0.5000 
     22 CA          0.6833  -19.2164  -45.3093 C.3       10 UNK         0.1400 
     23 CB          0.4517  -17.7236  -45.0569 C.3       10 UNK        -0.1800 
     24 N           0.9756  -19.8957  -44.0471 N.am      10 UNK        -0.5000 
     25 C           1.4642  -21.1430  -43.9699 C.2       9 UNK         0.5000 
     26 O           1.7629  -21.8160  -44.9547 O.2       9 UNK        -0.5000 
     27 CA          1.6074  -21.7667  -42.5689 C.3       9 UNK         0.1400 
     28 CB          2.9894  -21.4485  -41.9797 C.3       9 UNK        -0.1800 
     29 N           0.5754  -21.3268  -41.6322 N.am      9 UNK        -0.5000 
     30 C          -0.7431  -21.5222  -41.7786 C.2       8 UNK         0.5000 
     31 O          -1.2401  -22.1695  -42.7007 O.2       8 UNK        -0.5000 
     32 CA         -1.6578  -20.8310  -40.7467 C.3       8 UNK         0.1400 
     33 CB         -2.0401  -21.8095  -39.6269 C.3       8 UNK        -0.1800 
     34 N          -1.0613  -19.6258  -40.1551 N.am      8 UNK        -0.5000 
     35 C          -0.7326  -18.5266  -40.8478 C.2       7 UNK         0.5000 
     36 O          -0.9043  -18.4145  -42.0621 O.2       7 UNK        -0.5000 
     37 CA         -0.0088  -17.4141  -40.0733 C.3       7 UNK         0.1400 
     38 CB          1.5132  -17.5772  -40.2157 C.3       7 UNK        -0.1800 
     39 N          -0.3957  -16.0946  -40.5678 N.am      7 UNK        -0.5000 
     40 C          -1.5174  -15.4577  -40.2021 C.2       6 UNK         0.5000 
     41 O          -2.3172  -15.9137  -39.3831 O.2       6 UNK        -0.5000 
     42 CA         -1.7948  -14.0706  -40.8186 C.3       6 UNK         0.1400 
     43 CB         -1.4348  -12.9599  -39.8193 C.3       6 UNK        -0.1800 
     44 N          -1.0745  -13.8259  -42.0672 N.am      6 UNK        -0.5000 
     45 C          -1.3771  -14.3864  -43.2449 C.2       5 UNK         0.5000 
     46 O          -2.3464  -15.1243  -43.4198 O.2       5 UNK        -0.5000 
     47 CA         -0.4484  -14.0691  -44.4357 C.3       5 UNK         0.1400 
     48 CB         -1.0991  -13.0078  -45.3376 C.3       5 UNK        -0.1800 
     49 N           0.9136  -13.6356  -44.0910 N.am      5 UNK        -0.5000 
     50 C           1.7837  -14.3254  -43.3406 C.2       4 UNK         0.5000 
     51 O           1.5231  -15.4121  -42.8250 O.2       4 UNK        -0.5000 
     52 CA          3.1582  -13.6815  -43.1171 C.3       4 UNK         0.1400 
     53 CB          3.8822  -14.2722  -41.8876 C.3       4 UNK        -0.1800 
     54 N           3.9837  -13.8378  -44.3132 N.am      4 UNK        -0.5000 
     55 C           5.0744  -13.1037  -44.5722 C.2       3 UNK         0.5000 
     56 O           5.4343  -12.1486  -43.8822 O.2       3 UNK        -0.5000 
     57 CA          5.9138  -13.4991  -45.7962 C.3       3 UNK         0.1400 
     58 CB          6.6387  -14.8346  -45.5584 C.3       3 UNK        -0.1800 
     59 N           5.0911  -13.5985  -46.9983 N.am      3 UNK        -0.5000 
     60 C           4.9578  -12.6262  -47.9118 C.2       2 UNK         0.5000 
     61 O           5.5082  -11.5277  -47.8241 O.2       2 UNK        -0.5000 
     62 CA          4.0828  -12.9253  -49.1472 C.3       2 UNK         0.1400 
     63 CB          4.9652  -13.2770  -50.3551 C.3       2 UNK        -0.1800 
     64 N           3.1287  -14.0128  -48.9307 N.am      2 UNK        -0.5000 
     65 C           2.0230  -13.9113  -48.1814 C.2       1 UNK         0.5000 
     66 O           1.6542  -12.8611  -47.6565 O.2       1 UNK        -0.5000 
     67 C          -2.4549  -22.2557  -46.2395 C.2       11 UNK         0.5000 
     68 O          -2.9375  -22.6356  -47.3066 O.2       11 UNK        -0.5000 
     69 N          -1.6030  -22.9855  -45.5028 N.am      12 UNK        -0.5000 
     70 CA         -1.0735  -24.2932  -45.8845 C.3       12 UNK         0.1400 
     71 CB         -0.2854  -24.8924  -44.7107 C.3       12 UNK        -0.1800 
     72 C          -0.2072  -24.2328  -47.1551 C.2       12 UNK         0.5000 
     73 O          -0.3676  -25.0820  -48.0307 O.2       12 UNK        -0.5000 
     74 N           0.6621  -23.2163  -47.2573 N.am      13 UNK        -0.5000 
     75 CA          1.4860  -22.9500  -48.4375 C.3       13 UNK         0.1400 
     76 CB          2.4890  -21.8246  -48.1426 C.3       13 UNK        -0.1800 
     77 C           0.6448  -22.6230  -49.6828 C.2       13 UNK         0.5000 
     78 O           0.9217  -23.1645  -50.7512 O.2       13 UNK        -0.5000 
     79 N          -0.3910  -21.7880  -49.5187 N.am      14 UNK        -0.5000 
     80 CA         -1.3599  -21.4501  -50.5628 C.3       14 UNK         0.1400 
     81 CB         -2.2996  -20.3467  -50.0538 C.3       14 UNK        -0.1800 
     82 C          -2.1569  -22.6737  -51.0533 C.2       14 UNK         0.5000 
     83 O          -2.3498  -22.8301  -52.2603 O.2       14 UNK        -0.5000 
     84 N          -2.5679  -23.5414  -50.1181 N.am      15 UNK        -0.5000 
     85 CA         -3.2267  -24.8143  -50.4088 C.3       15 UNK         0.1400 
     86 CB         -3.7632  -25.4332  -49.1094 C.3       15 UNK        -0.1800 
     87 C          -2.3042  -25.7964  -51.1549 C.2       15 UNK         0.5000 
     88 O          -2.7273  -26.3788  -52.1535 O.2       15 UNK        -0.5000 
     89 N          -1.0529  -25.9290  -50.6911 N.am      16 UNK        -0.5000 
     90 CA         -0.0158  -26.7670  -51.3009 C.3       16 UNK         0.1400 
     91 CB          1.2082  -26.8238  -50.3746 C.3       16 UNK        -0.1800 
     92 C           0.3915  -26.3002  -52.7116 C.2       16 UNK         0.5000 
     93 O           0.6215  -27.1358  -53.5863 O.2       16 UNK        -0.5000 
     94 N           0.4372  -24.9771  -52.9167 N.am      17 UNK        -0.5000 
     95 CA          0.6814  -24.3288  -54.2071 C.3       17 UNK         0.1400 
     96 CB          1.0607  -22.8598  -53.9591 C.3       17 UNK        -0.1800 
     97 C          -0.5147  -24.4110  -55.1778 C.2       17 UNK         0.5000 
     98 O          -0.3485  -24.0850  -56.3540 O.2       17 UNK        -0.5000 
     99 N          -1.6874  -24.8255  -54.6739 N.am      18 UNK        -0.5000 
    100 CA        -2.9765  -24.9106  -55.3630 C.3       18 UNK         0.1400 
    101 CB        -2.9402  -25.9720  -56.4823 C.3       18 UNK        -0.1800 
    102 C         -3.4699  -23.5296  -55.8393 C.2       18 UNK         0.5000 
    103 O         -3.9162  -23.3829  -56.9785 O.2       18 UNK        -0.5000 
    104 N         -3.3822  -22.5352  -54.9437 N.am      19 UNK        -0.5000 
    105 CA        -3.7870  -21.1468  -55.1834 C.3       19 UNK         0.1400 
    106 CB        -3.1392  -20.2525  -54.1162 C.3       19 UNK        -0.1800 
    107 C         -5.3161  -20.9332  -55.2329 C.2       19 UNK         0.5000 
    108 O         -5.7521  -19.8362  -55.5859 O.2       19 UNK        -0.5000 
    109 N         -6.0947  -21.9721  -54.8906 N.am      20 UNK        -0.5000 
    110 CA        -7.5539  -22.0820  -54.9802 C.3       20 UNK         0.1400 
    111 CB        -7.9996  -22.1310  -56.4585 C.3       20 UNK        -0.1800 
    112 C         -8.2813  -21.0030  -54.1562 C.2       20 UNK         0.5000 
    113 O         -8.4760  -21.1919  -52.9554 O.2       20 UNK        -0.5000 
    114 N         -8.6580  -19.8958  -54.8095 N.am      21 UNK        -0.5000 
    115 CA        -9.2821  -18.7235  -54.1953 C.3       21 UNK         0.1400 
    116 CB        -9.8400  -17.8202  -55.3059 C.3       21 UNK        -0.1800 
    117 C         -8.3299  -17.9276  -53.2800 C.2       21 UNK         0.5000 
    118 O         -8.8171  -17.1859  -52.4269 O.2       21 UNK        -0.5000 
    119 N         -7.0128  -18.0877  -53.4854 N.am      22 UNK        -0.5000 
    120 CA        -5.8595  -17.5679  -52.7190 C.3       22 UNK         0.1400 
    121 C         -5.7727  -16.0387  -52.4199 C.2       22 UNK         0.5000 
    122 N         -6.8113  -15.2448  -52.6285 N.am      22 UNK        -0.7600 
    123 O         -4.7166  -15.5543  -52.0240 O.2       22 UNK        -0.5000 
    124 C124       -5.4705  -18.4486  -51.4914 C.3       23 UNK        -0.0398 
    125 S125       -6.8000  -18.8712  -50.3116 S.3       23 UNK        -0.2404 
    126 C126       -6.8747  -17.4009  -49.2457 C.3       23 UNK        -0.0205 
    127 H127        4.7850  -17.8529  -47.7168 H         1 UNK         0.0600 
    128 H128        3.2592  -18.6641  -48.0886 H         1 UNK         0.0600 
    129 H129        3.8270  -18.5691  -46.4186 H         1 UNK         0.0600 
    130 H130        1.7718  -17.0951  -48.7075 H         1 UNK         0.3000 
    131 H131        0.8261  -15.1314  -46.9322 H         1 UNK         0.0600 
    132 H132       -0.5582  -14.3314  -48.8866 H         1 UNK         0.0800 
    133 H133        0.3454  -15.3805  -49.9399 H         1 UNK         0.0800 
    134 H134       -2.6727  -14.8508  -48.0206 H         1 UNK         0.0800 
    135 H135       -1.9609  -15.5373  -46.5807 H         1 UNK         0.0800 
    136 H136       -4.4195  -16.1992  -49.3045 H         1 UNK         0.1150 
    137 H137       -6.9729  -18.5434  -46.7895 H         1 UNK         0.1150 
    138 H138       -3.1884  -17.1620  -45.3143 H         1 UNK         0.1150 
    139 H139       -5.8279  -17.7370  -43.9188 H         1 UNK         0.0800 
    140 H140       -6.2795  -19.2601  -44.6387 H         1 UNK         0.0800 
    141 H141       -4.8299  -21.1894  -45.0628 H         1 UNK         0.0800 
    142 H142       -3.6472  -21.6814  -43.8835 H         1 UNK         0.0800 
    143 H143       -3.1633  -20.2568  -46.5420 H         1 UNK         0.0600 
    144 H144       -1.5103  -19.9682  -44.2580 H         1 UNK         0.3000 
    145 H145        1.5479  -19.3220  -45.9658 H         1 UNK         0.0600 
    146 H146        1.3410  -17.2578  -44.6355 H         1 UNK         0.0600 
    147 H147        0.2213  -17.2105  -45.9876 H         1 UNK         0.0600 
    148 H148       -0.3832  -17.5410  -44.3818 H         1 UNK         0.0600 
    149 H149        0.6872  -19.4191  -43.2017 H         1 UNK         0.3000 
    150 H150        1.5203  -22.8495  -42.6761 H         1 UNK         0.0600 
    151 H151        3.7845  -21.7839  -42.6470 H         1 UNK         0.0600 
    152 H152        3.1364  -21.9507  -41.0233 H         1 UNK         0.0600 
    153 H153        3.1233  -20.3774  -41.8217 H         1 UNK         0.0600 
    154 H154        0.8870  -20.7881  -40.8385 H         1 UNK         0.3000 
    155 H155       -2.5700  -20.5329  -41.2670 H         1 UNK         0.0600 
    156 H156       -1.1681  -22.1267  -39.0535 H         1 UNK         0.0600 
    157 H157       -2.5084  -22.7061  -40.0356 H         1 UNK         0.0600 
    158 H158       -2.7527  -21.3594  -38.9356 H         1 UNK         0.0600 
    159 H159       -0.8808  -19.6545  -39.1618 H         1 UNK         0.3000 
    160 H160       -0.2645  -17.4883  -39.0141 H         1 UNK         0.0600 
    161 H161        2.0464  -16.7753  -39.7048 H         1 UNK         0.0600 
    162 H162        1.8244  -17.5710  -41.2612 H         1 UNK         0.0600 
    163 H163        1.8486  -18.5193  -39.7809 H         1 UNK         0.0600 
    164 H164        0.1789  -15.7098  -41.3104 H         1 UNK         0.3000 
    165 H165       -2.8663  -14.0114  -41.0216 H         1 UNK         0.0600 
    166 H166       -1.6924  -11.9761  -40.2121 H         1 UNK         0.0600 
    167 H167       -1.9782  -13.0858  -38.8818 H         1 UNK         0.0600 
    168 H168       -0.3698  -12.9606  -39.5837 H         1 UNK         0.0600 
    169 H169       -0.2650  -13.2261  -42.0158 H         1 UNK         0.3000 
    170 H170       -0.3553  -14.9954  -44.9999 H         1 UNK         0.0600 
    171 H171       -2.1265  -13.2755  -45.5883 H         1 UNK         0.0600 
    172 H172       -1.1277  -12.0324  -44.8506 H         1 UNK         0.0600 
    173 H173       -0.5606  -12.8980  -46.2772 H         1 UNK         0.0600 
    174 H174        1.2134  -12.7567  -44.4890 H         1 UNK         0.3000 
    175 H175        2.9889  -12.6181  -42.9348 H         1 UNK         0.0600 
    176 H176        3.2525  -14.2174  -40.9986 H         1 UNK         0.0600 
    177 H177        4.8004  -13.7296  -41.6638 H         1 UNK         0.0600 
    178 H178        4.1428  -15.3202  -42.0415 H         1 UNK         0.0600 
    179 H179        3.7325  -14.6018  -44.9378 H         1 UNK         0.3000 
    180 H180        6.6818  -12.7347  -45.9334 H         1 UNK         0.0600 
    181 H181        5.9419  -15.6605  -45.4132 H         1 UNK         0.0600 
    182 H182        7.2711  -14.7810  -44.6714 H         1 UNK         0.0600 
    183 H183        7.2824  -15.0866  -46.4012 H         1 UNK         0.0600 
    184 H184        4.5487  -14.4480  -47.0979 H         1 UNK         0.3000 
    185 H185        3.5262  -12.0161  -49.3848 H         1 UNK         0.0600 
    186 H186        5.6720  -12.4743  -50.5700 H         1 UNK         0.0600 
    187 H187        5.5435  -14.1852  -50.1805 H         1 UNK         0.0600 
    188 H188        4.3646  -13.4274  -51.2524 H         1 UNK         0.0600 
    189 H189        3.3643  -14.9120  -49.3248 H         1 UNK         0.3000 
    190 H190       -1.2928  -22.6116  -44.6105 H         1 UNK         0.3000 
    191 H191       -1.9233  -24.9468  -46.0917 H         1 UNK         0.0600 
    192 H192        0.5822  -24.2844  -44.4553 H         1 UNK         0.0600 
    193 H193        0.0751  -25.8926  -44.9541 H         1 UNK         0.0600 
    194 H194       -0.9079  -24.9776  -43.8197 H         1 UNK         0.0600 
    195 H195        0.7858  -22.5889  -46.4688 H         1 UNK         0.3000 
    196 H196        2.0547  -23.8567  -48.6531 H         1 UNK         0.0600 
    197 H197        3.1137  -21.6200  -49.0129 H         1 UNK         0.0600 
    198 H198        3.1543  -22.0946  -47.3226 H         1 UNK         0.0600 
    199 H199        1.9867  -20.8959  -47.8741 H         1 UNK         0.0600 
    200 H200       -0.5190  -21.3365  -48.6161 H         1 UNK         0.3000 
    201 H201       -0.8046  -21.0551  -51.4157 H         1 UNK         0.0600 
    202 H202       -1.7421  -19.4528  -49.7746 H         1 UNK         0.0600 
    203 H203       -2.8691  -20.6677  -49.1815 H         1 UNK         0.0600 
    204 H204       -3.0136  -20.0558  -50.8223 H         1 UNK         0.0600 
    205 H205       -2.4173  -23.3151  -49.1400 H         1 UNK         0.3000 
    206 H206       -4.0802  -24.6049  -51.0571 H         1 UNK         0.0600 
    207 H207       -4.4696  -24.7639  -48.6179 H         1 UNK         0.0600 
    208 H208       -4.2862  -26.3689  -49.3101 H         1 UNK         0.0600 
    209 H209       -2.9631  -25.6498  -48.4020 H         1 UNK         0.0600 
    210 H210       -0.7957  -25.4440  -49.8345 H         1 UNK         0.3000 
    211 H211       -0.4188  -27.7777  -51.3921 H         1 UNK         0.0600 
    212 H212        1.6400  -25.8349  -50.2186 H         1 UNK         0.0600 
    213 H213        1.9875  -27.4611  -50.7941 H         1 UNK         0.0600 
    214 H214        0.9449  -27.2312  -49.3984 H         1 UNK         0.0600 
    215 H215        0.3175  -24.3573  -52.1194 H         1 UNK         0.3000 
    216 H216        1.5273  -24.8246  -54.6873 H         1 UNK         0.0600 
    217 H217        1.2836  -22.3464  -54.8952 H         1 UNK         0.0600 
    218 H218        1.9468  -22.7821  -53.3290 H         1 UNK         0.0600 
    219 H219        0.2520  -22.3154  -53.4700 H         1 UNK         0.0600 
    220 H220       -1.7126  -25.0616  -53.6900 H         1 UNK         0.3000 
    221 H221       -3.6965  -25.2491  -54.6167 H         1 UNK         0.0600 
    222 H222       -3.9338  -26.1262  -56.9044 H         1 UNK         0.0600 
    223 H223       -2.5975  -26.9338  -56.1005 H         1 UNK         0.0600 
    224 H224       -2.2806  -25.6814  -57.3004 H         1 UNK         0.0600 
    225 H225       -2.9900  -22.7340  -54.0250 H         1 UNK         0.3000 
    226 H226       -3.3938  -20.8447  -56.1561 H         1 UNK         0.0600 
    227 H227       -3.3547  -19.1996  -54.2988 H         1 UNK         0.0600 
    228 H228       -3.5023  -20.5007  -53.1205 H         1 UNK         0.0600 
    229 H229       -2.0548  -20.3649  -54.1128 H         1 UNK         0.0600 
    230 H230       -5.6207  -22.8021  -54.5666 H         1 UNK         0.3000 
    231 H231       -7.8193  -23.0401  -54.5308 H         1 UNK         0.0600 
    232 H232       -7.5730  -22.9988  -56.9616 H         1 UNK         0.0600 
    233 H233       -7.6918  -21.2470  -57.0175 H         1 UNK         0.0600 
    234 H234       -9.0843  -22.2136  -56.5388 H         1 UNK         0.0600 
    235 H235       -8.4176  -19.8183  -55.7874 H         1 UNK         0.3000 
    236 H236      -10.1166  -19.0661  -53.5800 H         1 UNK         0.0600 
    237 H237      -10.5701  -18.3509  -55.9173 H         1 UNK         0.0600 
    238 H238      -10.3431  -16.9485  -54.8853 H         1 UNK         0.0600 
    239 H239       -9.0495  -17.4573  -55.9640 H         1 UNK         0.0600 
    240 H240       -6.7510  -18.6922  -54.2576 H         1 UNK         0.3000 
    241 H241       -5.0423  -17.6981  -53.4287 H         1 UNK         0.0600 
    242 H242       -6.7380  -14.2563  -52.4484 H         1 UNK         0.3800 
    243 H243       -7.7135  -15.6692  -52.8139 H         1 UNK         0.3800 
    244 H244       -4.6228  -18.0276  -50.9492 H         1 UNK         0.0800 
    245 H245       -5.1133  -19.4055  -51.8688 H         1 UNK         0.0800 
    246 H246       -7.8566  -17.3760  -48.7710 H         1 UNK         0.0800 
    247 H247       -6.8202  -16.4934  -49.8460 H         1 UNK         0.0800 
@<TRIPOS>BOND
     1    1    2 1    
     2    1  127 1    
     3    1  128 1    
     4    1  129 1    
     5    2    3 2    
     6    2    4 am   BACKBONE|DICT|INTERRES
     7    4    5 1    
     8    4  130 1    
     9    5    6 1    
    10    5   65 1    
    11    5  131 1    
    12    6    7 1    
    13    6  132 1    
    14    6  133 1    
    15    7    8 1    
    16    8    9 1    
    17    8  134 1    
    18    8  135 1    
    19    9   10 ar   
    20    9   14 ar   
    21   10   11 ar   
    22   10  136 1    
    23   11   12 ar   
    24   11  126 1    
    25   12   13 ar   
    26   12  137 1    
    27   13   14 ar   
    28   13   15 1    
    29   14  138 1    
    30   15   16 1    
    31   15  139 1    
    32   15  140 1    
    33   16   17 1    
    34   17   18 1    
    35   17  141 1    
    36   17  142 1    
    37   18   19 1    
    38   18   67 1    
    39   18  143 1    
    40   19   20 am   BACKBONE|DICT|INTERRES
    41   19  144 1    
    42   20   21 2    
    43   20   22 1    
    44   22   23 1    
    45   22   24 1    
    46   22  145 1    
    47   23  146 1    
    48   23  147 1    
    49   23  148 1    
    50   24   25 am   BACKBONE|DICT|INTERRES
    51   24  149 1    
    52   25   26 2    
    53   25   27 1    
    54   27   28 1    
    55   27   29 1    
    56   27  150 1    
    57   28  151 1    
    58   28  152 1    
    59   28  153 1    
    60   29   30 am   BACKBONE|DICT|INTERRES
    61   29  154 1    
    62   30   31 2    
    63   30   32 1    
    64   32   33 1    
    65   32   34 1    
    66   32  155 1    
    67   33  156 1    
    68   33  157 1    
    69   33  158 1    
    70   34   35 am   BACKBONE|DICT|INTERRES
    71   34  159 1    
    72   35   36 2    
    73   35   37 1    
    74   37   38 1    
    75   37   39 1    
    76   37  160 1    
    77   38  161 1    
    78   38  162 1    
    79   38  163 1    
    80   39   40 am   BACKBONE|DICT|INTERRES
    81   39  164 1    
    82   40   41 2    
    83   40   42 1    
    84   42   43 1    
    85   42   44 1    
    86   42  165 1    
    87   43  166 1    
    88   43  167 1    
    89   43  168 1    
    90   44   45 am   BACKBONE|DICT|INTERRES
    91   44  169 1    
    92   45   46 2    
    93   45   47 1    
    94   47   48 1    
    95   47   49 1    
    96   47  170 1    
    97   48  171 1    
    98   48  172 1    
    99   48  173 1    
   100   49   50 am   BACKBONE|DICT|INTERRES
   101   49  174 1    
   102   50   51 2    
   103   50   52 1    
   104   52   53 1    
   105   52   54 1    
   106   52  175 1    
   107   53  176 1    
   108   53  177 1    
   109   53  178 1    
   110   54   55 am   BACKBONE|DICT|INTERRES
   111   54  179 1    
   112   55   56 2    
   113   55   57 1    
   114   57   58 1    
   115   57   59 1    
   116   57  180 1    
   117   58  181 1    
   118   58  182 1    
   119   58  183 1    
   120   59   60 am   BACKBONE|DICT|INTERRES
   121   59  184 1    
   122   60   61 2    
   123   60   62 1    
   124   62   63 1    
   125   62   64 1    
   126   62  185 1    
   127   63  186 1    
   128   63  187 1    
   129   63  188 1    
   130   64   65 am   BACKBONE|DICT|INTERRES
   131   64  189 1    
   132   65   66 2    
   133   67   68 2    
   134   67   69 am   BACKBONE|DICT|INTERRES
   135   69   70 1    
   136   69  190 1    
   137   70   71 1    
   138   70   72 1    
   139   70  191 1    
   140   71  192 1    
   141   71  193 1    
   142   71  194 1    
   143   72   73 2    
   144   72   74 am   BACKBONE|DICT|INTERRES
   145   74   75 1    
   146   74  195 1    
   147   75   76 1    
   148   75   77 1    
   149   75  196 1    
   150   76  197 1    
   151   76  198 1    
   152   76  199 1    
   153   77   78 2    
   154   77   79 am   BACKBONE|DICT|INTERRES
   155   79   80 1    
   156   79  200 1    
   157   80   81 1    
   158   80   82 1    
   159   80  201 1    
   160   81  202 1    
   161   81  203 1    
   162   81  204 1    
   163   82   83 2    
   164   82   84 am   BACKBONE|DICT|INTERRES
   165   84   85 1    
   166   84  205 1    
   167   85   86 1    
   168   85   87 1    
   169   85  206 1    
   170   86  207 1    
   171   86  208 1    
   172   86  209 1    
   173   87   88 2    
   174   87   89 am   BACKBONE|DICT|INTERRES
   175   89   90 1    
   176   89  210 1    
   177   90   91 1    
   178   90   92 1    
   179   90  211 1    
   180   91  212 1    
   181   91  213 1    
   182   91  214 1    
   183   92   93 2    
   184   92   94 am   BACKBONE|DICT|INTERRES
   185   94   95 1    
   186   94  215 1    
   187   95   96 1    
   188   95   97 1    
   189   95  216 1    
   190   96  217 1    
   191   96  218 1    
   192   96  219 1    
   193   97   98 2    
   194   97   99 am   BACKBONE|DICT|INTERRES
   195   99  100 1    
   196   99  220 1    
   197  100  101 1    
   198  100  102 1    
   199  100  221 1    
   200  101  222 1    
   201  101  223 1    
   202  101  224 1    
   203  102  103 2    
   204  102  104 am   BACKBONE|DICT|INTERRES
   205  104  105 1    
   206  104  225 1    
   207  105  106 1    
   208  105  107 1    
   209  105  226 1    
   210  106  227 1    
   211  106  228 1    
   212  106  229 1    
   213  107  108 2    
   214  107  109 am   BACKBONE|DICT|INTERRES
   215  109  110 1    
   216  109  230 1    
   217  110  111 1    
   218  110  112 1    
   219  110  231 1    
   220  111  232 1    
   221  111  233 1    
   222  111  234 1    
   223  112  113 2    
   224  112  114 am   BACKBONE|DICT|INTERRES
   225  114  115 1    
   226  114  235 1    
   227  115  116 1    
   228  115  117 1    
   229  115  236 1    
   230  116  237 1    
   231  116  238 1    
   232  116  239 1    
   233  117  118 2    
   234  117  119 am   BACKBONE|DICT|INTERRES
   235  119  120 1    
   236  119  240 1    
   237  120  121 1    
   238  120  124 1    
   239  120  241 1    
   240  121  122 am   BACKBONE|DICT|INTERRES
   241  121  123 2    
   242  122  242 1    
   243  122  243 1    
   244  124  125 1    
   245  124  244 1    
   246  124  245 1    
   247  125  126 1    
   248  126  246 1    
   249  126  247 1    
@<TRIPOS>SUBSTRUCTURE
     1 UNK         1 GROUP             0       ****    0 ROOT    
