@<TRIPOS>MOLECULE
3R540
247   249    1
SMALL
USER_CHARGES


@<TRIPOS>ATOM
      1 CA          7.2700  -12.0434  -50.3927 C.3       0 UNK        -0.1800 
      2 C           5.9207  -12.4065  -49.7885 C.2       0 UNK         0.5000 
      3 O           4.9708  -12.6613  -50.5294 O.2       0 UNK        -0.5000 
      4 N           5.8439  -12.4421  -48.4509 N.am      1 UNK        -0.5000 
      5 CA          4.6460  -12.7348  -47.6495 C.3       1 UNK         0.1400 
      6 C6          4.1059  -14.1860  -47.8401 C.3       23 UNK        -0.0398 
      7 S7          5.3431  -15.4812  -47.4850 S.3       23 UNK        -0.2404 
      8 C8          5.7387  -16.1172  -49.1449 C.3       23 UNK        -0.0205 
      9 C9          4.7397  -17.1560  -49.6372 C.ar      23 UNK        -0.0193 
     10 C10         3.6006  -16.7640  -50.3472 C.ar      23 UNK        -0.1150 
     11 C11         2.7121  -17.7102  -50.8661 C.ar      23 UNK        -0.0193 
     12 C12         2.9980  -19.0699  -50.6847 C.ar      23 UNK        -0.1150 
     13 C13         4.1221  -19.4798  -49.9662 C.ar      23 UNK        -0.0193 
     14 C14         4.9854  -18.5176  -49.4349 C.ar      23 UNK        -0.1150 
     15 C15         4.4190  -20.9641  -49.8054 C.3       23 UNK        -0.0205 
     16 S16         3.6012  -21.6801  -48.3461 S.3       23 UNK        -0.2404 
     17 C17         1.8473  -21.7171  -48.8566 C.3       23 UNK        -0.0398 
     18 CA          1.0231  -22.7109  -48.0054 C.3       11 UNK         0.1400 
     19 N           0.9640  -22.3266  -46.5922 N.am      11 UNK        -0.5000 
     20 C           0.5237  -23.1244  -45.6100 C.2       10 UNK         0.5000 
     21 O           0.1780  -24.2930  -45.7847 O.2       10 UNK        -0.5000 
     22 CA          0.3848  -22.4932  -44.2131 C.3       10 UNK         0.1400 
     23 CB          1.7336  -22.4685  -43.4792 C.3       10 UNK        -0.1800 
     24 N          -0.1810  -21.1439  -44.2737 N.am      10 UNK        -0.5000 
     25 C          -1.4280  -20.8734  -44.6852 C.2       9 UNK         0.5000 
     26 O          -2.2470  -21.7460  -44.9717 O.2       9 UNK        -0.5000 
     27 CA         -1.8166  -19.3915  -44.8493 C.3       9 UNK         0.1400 
     28 CB         -2.2776  -18.7964  -43.5114 C.3       9 UNK        -0.1800 
     29 N          -0.7369  -18.5751  -45.4057 N.am      9 UNK        -0.5000 
     30 C          -0.2289  -18.7185  -46.6383 C.2       8 UNK         0.5000 
     31 O          -0.6499  -19.5274  -47.4617 O.2       8 UNK        -0.5000 
     32 CA          0.9911  -17.8543  -46.9985 C.3       8 UNK         0.1400 
     33 CB          0.5518  -16.4689  -47.4883 C.3       8 UNK        -0.1800 
     34 N           1.9250  -17.7219  -45.8797 N.am      8 UNK        -0.5000 
     35 C           2.6202  -18.7472  -45.3664 C.2       7 UNK         0.5000 
     36 O           2.5468  -19.8998  -45.7884 O.2       7 UNK        -0.5000 
     37 CA          3.4889  -18.4468  -44.1327 C.3       7 UNK         0.1400 
     38 CB          4.7713  -17.7009  -44.5274 C.3       7 UNK        -0.1800 
     39 N           2.7660  -17.6731  -43.1238 N.am      7 UNK        -0.5000 
     40 C           1.7056  -18.1241  -42.4387 C.2       6 UNK         0.5000 
     41 O           1.2542  -19.2629  -42.5477 O.2       6 UNK        -0.5000 
     42 CA          1.0056  -17.1177  -41.5069 C.3       6 UNK         0.1400 
     43 CB          1.6548  -17.1289  -40.1150 C.3       6 UNK        -0.1800 
     44 N           1.0015  -15.7489  -42.0309 N.am      6 UNK        -0.5000 
     45 C           0.4034  -15.3715  -43.1684 C.2       5 UNK         0.5000 
     46 O          -0.1857  -16.1468  -43.9247 O.2       5 UNK        -0.5000 
     47 CA          0.5479  -13.8908  -43.5547 C.3       5 UNK         0.1400 
     48 CB          1.7669  -13.7097  -44.4716 C.3       5 UNK        -0.1800 
     49 N          -0.6536  -13.3845  -44.2225 N.am      5 UNK        -0.5000 
     50 C          -1.8162  -13.1559  -43.5904 C.2       4 UNK         0.5000 
     51 O          -1.9646  -13.3305  -42.3794 O.2       4 UNK        -0.5000 
     52 CA         -3.0076  -12.6188  -44.4120 C.3       4 UNK         0.1400 
     53 CB         -3.5719  -11.3329  -43.7825 C.3       4 UNK        -0.1800 
     54 N          -2.6517  -12.3265  -45.8002 N.am      4 UNK        -0.5000 
     55 C          -2.9941  -13.0651  -46.8629 C.2       3 UNK         0.5000 
     56 O          -3.6824  -14.0839  -46.8015 O.2       3 UNK        -0.5000 
     57 CA         -2.4681  -12.5915  -48.2347 C.3       3 UNK         0.1400 
     58 CB         -3.5643  -11.8408  -49.0056 C.3       3 UNK        -0.1800 
     59 N          -1.2620  -11.7553  -48.1722 N.am      3 UNK        -0.5000 
     60 C          -0.0828  -12.1827  -47.7068 C.2       2 UNK         0.5000 
     61 O           0.0854  -13.3068  -47.2274 O.2       2 UNK        -0.5000 
     62 CA          1.0923  -11.1968  -47.7362 C.3       2 UNK         0.1400 
     63 CB          0.9685  -10.1591  -46.6049 C.3       2 UNK        -0.1800 
     64 N           2.2987  -11.9962  -47.5693 N.am      2 UNK        -0.5000 
     65 C           3.5584  -11.6418  -47.8338 C.2       1 UNK         0.5000 
     66 O           3.8763  -10.5024  -48.1859 O.2       1 UNK        -0.5000 
     67 C          -0.3858  -22.9477  -48.5972 C.2       11 UNK         0.5000 
     68 O          -0.5558  -23.8909  -49.3679 O.2       11 UNK        -0.5000 
     69 N          -1.3794  -22.1410  -48.1913 N.am      12 UNK        -0.5000 
     70 CA         -2.7938  -22.3159  -48.5355 C.3       12 UNK         0.1400 
     71 CB         -3.6288  -21.1366  -48.0081 C.3       12 UNK        -0.1800 
     72 C          -3.3651  -23.6339  -47.9895 C.2       12 UNK         0.5000 
     73 O          -4.0539  -24.3450  -48.7206 O.2       12 UNK        -0.5000 
     74 N          -3.0534  -23.9435  -46.7227 N.am      13 UNK        -0.5000 
     75 CA         -3.4291  -25.1842  -46.0454 C.3       13 UNK         0.1400 
     76 CB         -3.0718  -25.0935  -44.5549 C.3       13 UNK        -0.1800 
     77 C          -2.7903  -26.4227  -46.6973 C.2       13 UNK         0.5000 
     78 O          -3.4882  -27.4116  -46.9238 O.2       13 UNK        -0.5000 
     79 N          -1.4995  -26.3242  -47.0489 N.am      14 UNK        -0.5000 
     80 CA         -0.7529  -27.3430  -47.7945 C.3       14 UNK         0.1400 
     81 CB          0.7295  -26.9471  -47.8582 C.3       14 UNK        -0.1800 
     82 C          -1.3123  -27.5927  -49.2104 C.2       14 UNK         0.5000 
     83 O          -1.2530  -28.7217  -49.6972 O.2       14 UNK        -0.5000 
     84 N          -1.8977  -26.5524  -49.8177 N.am      15 UNK        -0.5000 
     85 CA         -2.6302  -26.5905  -51.0846 C.3       15 UNK         0.1400 
     86 CB         -2.5037  -25.2174  -51.7672 C.3       15 UNK        -0.1800 
     87 C          -4.1061  -27.0301  -50.9256 C.2       15 UNK         0.5000 
     88 O          -4.9079  -26.7846  -51.8277 O.2       15 UNK        -0.5000 
     89 N          -4.4367  -27.6834  -49.8007 N.am      16 UNK        -0.5000 
     90 CA         -5.7391  -28.2464  -49.4317 C.3       16 UNK         0.1400 
     91 CB         -6.1882  -29.3322  -50.4332 C.3       16 UNK        -0.1800 
     92 C          -6.8065  -27.1656  -49.1720 C.2       16 UNK         0.5000 
     93 O          -7.9439  -27.2938  -49.6289 O.2       16 UNK        -0.5000 
     94 N          -6.4078  -26.1301  -48.4193 N.am      17 UNK        -0.5000 
     95 CA         -7.1980  -24.9637  -48.0105 C.3       17 UNK         0.1400 
     96 CB         -8.3701  -25.3752  -47.0949 C.3       17 UNK        -0.1800 
     97 C          -7.6285  -24.1131  -49.2207 C.2       17 UNK         0.5000 
     98 O          -8.8165  -23.8428  -49.4110 O.2       17 UNK        -0.5000 
     99 N          -6.6351  -23.7314  -50.0319 N.am      18 UNK        -0.5000 
    100 CA        -6.7929  -22.9001  -51.2239 C.3       18 UNK         0.1400 
    101 CB        -5.4577  -22.8698  -51.9801 C.3       18 UNK        -0.1800 
    102 C         -7.2616  -21.4674  -50.8990 C.2       18 UNK         0.5000 
    103 O         -6.9337  -20.9323  -49.8376 O.2       18 UNK        -0.5000 
    104 N         -8.0038  -20.8717  -51.8377 N.am      19 UNK        -0.5000 
    105 CA        -8.4417  -19.4768  -51.8007 C.3       19 UNK         0.1400 
    106 CB        -9.8343  -19.3899  -52.4477 C.3       19 UNK        -0.1800 
    107 C         -7.4417  -18.5747  -52.5481 C.2       19 UNK         0.5000 
    108 O         -6.6209  -19.0798  -53.3177 O.2       19 UNK        -0.5000 
    109 N         -7.5705  -17.2557  -52.3342 N.am      20 UNK        -0.5000 
    110 CA        -6.7626  -16.1721  -52.9090 C.3       20 UNK         0.1400 
    111 CB        -6.9127  -16.1130  -54.4441 C.3       20 UNK        -0.1800 
    112 C         -5.2943  -16.2621  -52.4525 C.2       20 UNK         0.5000 
    113 O         -4.4376  -16.7522  -53.1920 O.2       20 UNK        -0.5000 
    114 N         -5.0482  -15.8194  -51.2103 N.am      21 UNK        -0.5000 
    115 CA        -3.7791  -15.9190  -50.4818 C.3       21 UNK         0.1400 
    116 CB        -2.6853  -15.0450  -51.1419 C.3       21 UNK        -0.1800 
    117 C         -3.3906  -17.3995  -50.2994 C.2       21 UNK         0.5000 
    118 O         -4.1353  -18.1293  -49.6456 O.2       21 UNK        -0.5000 
    119 N         -2.2711  -17.8188  -50.8972 N.am      22 UNK        -0.5000 
    120 CA        -1.8387  -19.2205  -50.9731 C.3       22 UNK         0.1400 
    121 C         -2.5479  -20.0695  -52.0703 C.2       22 UNK         0.5000 
    122 N         -3.4154  -19.5084  -52.9037 N.am      22 UNK        -0.7600 
    123 O         -2.3128  -21.2705  -52.1589 O.2       22 UNK        -0.5000 
    124 C124       -0.2989  -19.3390  -51.0362 C.3       23 UNK        -0.0398 
    125 S125        0.4603  -18.4695  -52.4554 S.3       23 UNK        -0.2404 
    126 C126        1.4740  -17.2033  -51.6128 C.3       23 UNK        -0.0205 
    127 H127        8.0208  -11.8532  -49.6253 H         1 UNK         0.0600 
    128 H128        7.1769  -11.1476  -51.0067 H         1 UNK         0.0600 
    129 H129        7.6284  -12.8560  -51.0246 H         1 UNK         0.0600 
    130 H130        6.6643  -12.2025  -47.9128 H         1 UNK         0.3000 
    131 H131        4.9631  -12.6451  -46.6095 H         1 UNK         0.0600 
    132 H132        3.7029  -14.3129  -48.8429 H         1 UNK         0.0800 
    133 H133        3.2797  -14.3828  -47.1581 H         1 UNK         0.0800 
    134 H134        5.8033  -15.2952  -49.8573 H         1 UNK         0.0800 
    135 H135        6.7360  -16.5583  -49.1128 H         1 UNK         0.0800 
    136 H136        3.4107  -15.7146  -50.5189 H         1 UNK         0.1150 
    137 H137        2.3579  -19.8303  -51.1018 H         1 UNK         0.1150 
    138 H138        5.8646  -18.8296  -48.8890 H         1 UNK         0.1150 
    139 H139        4.1202  -21.5110  -50.7009 H         1 UNK         0.0800 
    140 H140        5.4952  -21.1143  -49.7080 H         1 UNK         0.0800 
    141 H141        1.8036  -21.9956  -49.9110 H         1 UNK         0.0800 
    142 H142        1.4373  -20.7100  -48.7779 H         1 UNK         0.0800 
    143 H143        1.5365  -23.6738  -48.0492 H         1 UNK         0.0600 
    144 H144        1.2947  -21.3953  -46.3586 H         1 UNK         0.3000 
    145 H145       -0.2999  -23.1171  -43.6348 H         1 UNK         0.0600 
    146 H146        2.1542  -23.4719  -43.4042 H         1 UNK         0.0600 
    147 H147        2.4645  -21.8444  -43.9928 H         1 UNK         0.0600 
    148 H148        1.6221  -22.0856  -42.4647 H         1 UNK         0.0600 
    149 H149        0.4240  -20.3803  -43.9891 H         1 UNK         0.3000 
    150 H150       -2.6560  -19.3454  -45.5460 H         1 UNK         0.0600 
    151 H151       -2.5964  -17.7604  -43.6287 H         1 UNK         0.0600 
    152 H152       -1.4830  -18.8202  -42.7663 H         1 UNK         0.0600 
    153 H153       -3.1230  -19.3547  -43.1075 H         1 UNK         0.0600 
    154 H154       -0.3710  -17.8359  -44.8114 H         1 UNK         0.3000 
    155 H155        1.5196  -18.3476  -47.8175 H         1 UNK         0.0600 
    156 H156       -0.1305  -16.5521  -48.3352 H         1 UNK         0.0600 
    157 H157        1.4048  -15.8766  -47.8180 H         1 UNK         0.0600 
    158 H158        0.0343  -15.9138  -46.7053 H         1 UNK         0.0600 
    159 H159        1.9890  -16.8171  -45.4405 H         1 UNK         0.3000 
    160 H160        3.7748  -19.4029  -43.6890 H         1 UNK         0.0600 
    161 H161        5.3009  -18.2238  -45.3252 H         1 UNK         0.0600 
    162 H162        5.4547  -17.6195  -43.6821 H         1 UNK         0.0600 
    163 H163        4.5562  -16.6924  -44.8807 H         1 UNK         0.0600 
    164 H164        3.0720  -16.7249  -42.9663 H         1 UNK         0.3000 
    165 H165       -0.0334  -17.4346  -41.3992 H         1 UNK         0.0600 
    166 H166        1.1130  -16.4855  -39.4215 H         1 UNK         0.0600 
    167 H167        1.6526  -18.1345  -39.6919 H         1 UNK         0.0600 
    168 H168        2.6908  -16.7897  -40.1497 H         1 UNK         0.0600 
    169 H169        1.4739  -15.0536  -41.4710 H         1 UNK         0.3000 
    170 H170        0.7092  -13.3019  -42.6492 H         1 UNK         0.0600 
    171 H171        1.8941  -12.6669  -44.7594 H         1 UNK         0.0600 
    172 H172        2.6846  -14.0194  -43.9702 H         1 UNK         0.0600 
    173 H173        1.6742  -14.3063  -45.3784 H         1 UNK         0.0600 
    174 H174       -0.6124  -13.3074  -45.2315 H         1 UNK         0.3000 
    175 H175       -3.7870  -13.3823  -44.3733 H         1 UNK         0.0600 
    176 H176       -2.8246  -10.5392  -43.7503 H         1 UNK         0.0600 
    177 H177       -4.4295  -10.9634  -44.3450 H         1 UNK         0.0600 
    178 H178       -3.9100  -11.5083  -42.7604 H         1 UNK         0.0600 
    179 H179       -2.0825  -11.5072  -45.9538 H         1 UNK         0.3000 
    180 H180       -2.2108  -13.4901  -48.7963 H         1 UNK         0.0600 
    181 H181       -3.2350  -11.5861  -50.0131 H         1 UNK         0.0600 
    182 H182       -3.8499  -10.9174  -48.5004 H         1 UNK         0.0600 
    183 H183       -4.4618  -12.4529  -49.1048 H         1 UNK         0.0600 
    184 H184       -1.3413  -10.8170  -48.5378 H         1 UNK         0.3000 
    185 H185        1.1173  -10.6995  -48.7078 H         1 UNK         0.0600 
    186 H186        0.9108  -10.6338  -45.6250 H         1 UNK         0.0600 
    187 H187        1.8186   -9.4770  -46.5950 H         1 UNK         0.0600 
    188 H188        0.0718   -9.5509  -46.7277 H         1 UNK         0.0600 
    189 H189        2.0805  -12.9481  -47.3012 H         1 UNK         0.3000 
    190 H190       -1.1469  -21.3320  -47.6215 H         1 UNK         0.3000 
    191 H191       -2.8649  -22.3321  -49.6243 H         1 UNK         0.0600 
    192 H192       -3.8360  -21.2190  -46.9419 H         1 UNK         0.0600 
    193 H193       -4.5919  -21.0958  -48.5167 H         1 UNK         0.0600 
    194 H194       -3.1410  -20.1774  -48.1631 H         1 UNK         0.0600 
    195 H195       -2.5338  -23.2645  -46.1734 H         1 UNK         0.3000 
    196 H196       -4.5128  -25.2892  -46.1232 H         1 UNK         0.0600 
    197 H197       -3.3833  -25.9939  -44.0241 H         1 UNK         0.0600 
    198 H198       -3.5704  -24.2473  -44.0818 H         1 UNK         0.0600 
    199 H199       -1.9994  -24.9765  -44.4004 H         1 UNK         0.0600 
    200 H200       -0.9845  -25.4907  -46.7777 H         1 UNK         0.3000 
    201 H201       -0.8310  -28.2804  -47.2401 H         1 UNK         0.0600 
    202 H202        1.1468  -26.8150  -46.8597 H         1 UNK         0.0600 
    203 H203        0.8735  -26.0168  -48.4072 H         1 UNK         0.0600 
    204 H204        1.3180  -27.7172  -48.3582 H         1 UNK         0.0600 
    205 H205       -1.8569  -25.6488  -49.3609 H         1 UNK         0.3000 
    206 H206       -2.1571  -27.3256  -51.7384 H         1 UNK         0.0600 
    207 H207       -2.9796  -25.2140  -52.7483 H         1 UNK         0.0600 
    208 H208       -2.9651  -24.4288  -51.1736 H         1 UNK         0.0600 
    209 H209       -1.4582  -24.9477  -51.9168 H         1 UNK         0.0600 
    210 H210       -3.7183  -27.7865  -49.0952 H         1 UNK         0.3000 
    211 H211       -5.5838  -28.7432  -48.4728 H         1 UNK         0.0600 
    212 H212       -6.4330  -28.9126  -51.4091 H         1 UNK         0.0600 
    213 H213       -7.0768  -29.8506  -50.0713 H         1 UNK         0.0600 
    214 H214       -5.4112  -30.0832  -50.5753 H         1 UNK         0.0600 
    215 H215       -5.4245  -26.0844  -48.1855 H         1 UNK         0.3000 
    216 H216       -6.5338  -24.3337  -47.4173 H         1 UNK         0.0600 
    217 H217       -8.8835  -24.4959  -46.7043 H         1 UNK         0.0600 
    218 H218       -8.0176  -25.9515  -46.2395 H         1 UNK         0.0600 
    219 H219       -9.1113  -25.9761  -47.6221 H         1 UNK         0.0600 
    220 H220       -5.6875  -23.9897  -49.7756 H         1 UNK         0.3000 
    221 H221       -7.5419  -23.3736  -51.8620 H         1 UNK         0.0600 
    222 H222       -4.6576  -22.4688  -51.3576 H         1 UNK         0.0600 
    223 H223       -5.1664  -23.8694  -52.3023 H         1 UNK         0.0600 
    224 H224       -5.5216  -22.2461  -52.8726 H         1 UNK         0.0600 
    225 H225       -8.1708  -21.3581  -52.7066 H         1 UNK         0.3000 
    226 H226       -8.5144  -19.1345  -50.7661 H         1 UNK         0.0600 
    227 H227      -10.5492  -20.0299  -51.9301 H         1 UNK         0.0600 
    228 H228      -10.2258  -18.3727  -52.4088 H         1 UNK         0.0600 
    229 H229       -9.8116  -19.6922  -53.4956 H         1 UNK         0.0600 
    230 H230       -8.2813  -16.9547  -51.6820 H         1 UNK         0.3000 
    231 H231       -7.1667  -15.2387  -52.5137 H         1 UNK         0.0600 
    232 H232       -6.5153  -17.0020  -54.9342 H         1 UNK         0.0600 
    233 H233       -7.9586  -16.0115  -54.7334 H         1 UNK         0.0600 
    234 H234       -6.3775  -15.2544  -54.8508 H         1 UNK         0.0600 
    235 H235       -5.8286  -15.4805  -50.6657 H         1 UNK         0.3000 
    236 H236       -3.9583  -15.5231  -49.4808 H         1 UNK         0.0600 
    237 H237       -2.4513  -15.3609  -52.1587 H         1 UNK         0.0600 
    238 H238       -3.0002  -14.0028  -51.1911 H         1 UNK         0.0600 
    239 H239       -1.7586  -15.0746  -50.5674 H         1 UNK         0.0600 
    240 H240       -1.7459  -17.1682  -51.4624 H         1 UNK         0.3000 
    241 H241       -2.1247  -19.6973  -50.0382 H         1 UNK         0.0600 
    242 H242       -3.8817  -20.0809  -53.5877 H         1 UNK         0.3800 
    243 H243       -3.6461  -18.5211  -52.8559 H         1 UNK         0.3800 
    244 H244        0.1201  -18.9491  -50.1079 H         1 UNK         0.0800 
    245 H245        0.0002  -20.3878  -51.0708 H         1 UNK         0.0800 
    246 H246        0.8422  -16.6511  -50.9155 H         1 UNK         0.0800 
    247 H247        1.7968  -16.4852  -52.3680 H         1 UNK         0.0800 
@<TRIPOS>BOND
     1    1    2 1    
     2    1  127 1    
     3    1  128 1    
     4    1  129 1    
     5    2    3 2    
     6    2    4 am   BACKBONE|DICT|INTERRES
     7    4    5 1    
     8    4  130 1    
     9    5    6 1    
    10    5   65 1    
    11    5  131 1    
    12    6    7 1    
    13    6  132 1    
    14    6  133 1    
    15    7    8 1    
    16    8    9 1    
    17    8  134 1    
    18    8  135 1    
    19    9   10 ar   
    20    9   14 ar   
    21   10   11 ar   
    22   10  136 1    
    23   11   12 ar   
    24   11  126 1    
    25   12   13 ar   
    26   12  137 1    
    27   13   14 ar   
    28   13   15 1    
    29   14  138 1    
    30   15   16 1    
    31   15  139 1    
    32   15  140 1    
    33   16   17 1    
    34   17   18 1    
    35   17  141 1    
    36   17  142 1    
    37   18   19 1    
    38   18   67 1    
    39   18  143 1    
    40   19   20 am   BACKBONE|DICT|INTERRES
    41   19  144 1    
    42   20   21 2    
    43   20   22 1    
    44   22   23 1    
    45   22   24 1    
    46   22  145 1    
    47   23  146 1    
    48   23  147 1    
    49   23  148 1    
    50   24   25 am   BACKBONE|DICT|INTERRES
    51   24  149 1    
    52   25   26 2    
    53   25   27 1    
    54   27   28 1    
    55   27   29 1    
    56   27  150 1    
    57   28  151 1    
    58   28  152 1    
    59   28  153 1    
    60   29   30 am   BACKBONE|DICT|INTERRES
    61   29  154 1    
    62   30   31 2    
    63   30   32 1    
    64   32   33 1    
    65   32   34 1    
    66   32  155 1    
    67   33  156 1    
    68   33  157 1    
    69   33  158 1    
    70   34   35 am   BACKBONE|DICT|INTERRES
    71   34  159 1    
    72   35   36 2    
    73   35   37 1    
    74   37   38 1    
    75   37   39 1    
    76   37  160 1    
    77   38  161 1    
    78   38  162 1    
    79   38  163 1    
    80   39   40 am   BACKBONE|DICT|INTERRES
    81   39  164 1    
    82   40   41 2    
    83   40   42 1    
    84   42   43 1    
    85   42   44 1    
    86   42  165 1    
    87   43  166 1    
    88   43  167 1    
    89   43  168 1    
    90   44   45 am   BACKBONE|DICT|INTERRES
    91   44  169 1    
    92   45   46 2    
    93   45   47 1    
    94   47   48 1    
    95   47   49 1    
    96   47  170 1    
    97   48  171 1    
    98   48  172 1    
    99   48  173 1    
   100   49   50 am   BACKBONE|DICT|INTERRES
   101   49  174 1    
   102   50   51 2    
   103   50   52 1    
   104   52   53 1    
   105   52   54 1    
   106   52  175 1    
   107   53  176 1    
   108   53  177 1    
   109   53  178 1    
   110   54   55 am   BACKBONE|DICT|INTERRES
   111   54  179 1    
   112   55   56 2    
   113   55   57 1    
   114   57   58 1    
   115   57   59 1    
   116   57  180 1    
   117   58  181 1    
   118   58  182 1    
   119   58  183 1    
   120   59   60 am   BACKBONE|DICT|INTERRES
   121   59  184 1    
   122   60   61 2    
   123   60   62 1    
   124   62   63 1    
   125   62   64 1    
   126   62  185 1    
   127   63  186 1    
   128   63  187 1    
   129   63  188 1    
   130   64   65 am   BACKBONE|DICT|INTERRES
   131   64  189 1    
   132   65   66 2    
   133   67   68 2    
   134   67   69 am   BACKBONE|DICT|INTERRES
   135   69   70 1    
   136   69  190 1    
   137   70   71 1    
   138   70   72 1    
   139   70  191 1    
   140   71  192 1    
   141   71  193 1    
   142   71  194 1    
   143   72   73 2    
   144   72   74 am   BACKBONE|DICT|INTERRES
   145   74   75 1    
   146   74  195 1    
   147   75   76 1    
   148   75   77 1    
   149   75  196 1    
   150   76  197 1    
   151   76  198 1    
   152   76  199 1    
   153   77   78 2    
   154   77   79 am   BACKBONE|DICT|INTERRES
   155   79   80 1    
   156   79  200 1    
   157   80   81 1    
   158   80   82 1    
   159   80  201 1    
   160   81  202 1    
   161   81  203 1    
   162   81  204 1    
   163   82   83 2    
   164   82   84 am   BACKBONE|DICT|INTERRES
   165   84   85 1    
   166   84  205 1    
   167   85   86 1    
   168   85   87 1    
   169   85  206 1    
   170   86  207 1    
   171   86  208 1    
   172   86  209 1    
   173   87   88 2    
   174   87   89 am   BACKBONE|DICT|INTERRES
   175   89   90 1    
   176   89  210 1    
   177   90   91 1    
   178   90   92 1    
   179   90  211 1    
   180   91  212 1    
   181   91  213 1    
   182   91  214 1    
   183   92   93 2    
   184   92   94 am   BACKBONE|DICT|INTERRES
   185   94   95 1    
   186   94  215 1    
   187   95   96 1    
   188   95   97 1    
   189   95  216 1    
   190   96  217 1    
   191   96  218 1    
   192   96  219 1    
   193   97   98 2    
   194   97   99 am   BACKBONE|DICT|INTERRES
   195   99  100 1    
   196   99  220 1    
   197  100  101 1    
   198  100  102 1    
   199  100  221 1    
   200  101  222 1    
   201  101  223 1    
   202  101  224 1    
   203  102  103 2    
   204  102  104 am   BACKBONE|DICT|INTERRES
   205  104  105 1    
   206  104  225 1    
   207  105  106 1    
   208  105  107 1    
   209  105  226 1    
   210  106  227 1    
   211  106  228 1    
   212  106  229 1    
   213  107  108 2    
   214  107  109 am   BACKBONE|DICT|INTERRES
   215  109  110 1    
   216  109  230 1    
   217  110  111 1    
   218  110  112 1    
   219  110  231 1    
   220  111  232 1    
   221  111  233 1    
   222  111  234 1    
   223  112  113 2    
   224  112  114 am   BACKBONE|DICT|INTERRES
   225  114  115 1    
   226  114  235 1    
   227  115  116 1    
   228  115  117 1    
   229  115  236 1    
   230  116  237 1    
   231  116  238 1    
   232  116  239 1    
   233  117  118 2    
   234  117  119 am   BACKBONE|DICT|INTERRES
   235  119  120 1    
   236  119  240 1    
   237  120  121 1    
   238  120  124 1    
   239  120  241 1    
   240  121  122 am   BACKBONE|DICT|INTERRES
   241  121  123 2    
   242  122  242 1    
   243  122  243 1    
   244  124  125 1    
   245  124  244 1    
   246  124  245 1    
   247  125  126 1    
   248  126  246 1    
   249  126  247 1    
@<TRIPOS>SUBSTRUCTURE
     1 UNK         1 GROUP             0       ****    0 ROOT    
