@<TRIPOS>MOLECULE
3R540
247   249    1
SMALL
USER_CHARGES


@<TRIPOS>ATOM
      1 CA          5.8830  -18.2221  -45.1155 C.3       0 UNK        -0.1800 
      2 C           5.8416  -16.7006  -45.0859 C.2       0 UNK         0.5000 
      3 O           6.0533  -16.1018  -44.0318 O.2       0 UNK        -0.5000 
      4 N           5.5535  -16.0787  -46.2350 N.am      1 UNK        -0.5000 
      5 CA          5.4901  -14.6250  -46.4170 C.3       1 UNK         0.1400 
      6 C6          4.8097  -14.2579  -47.7600 C.3       23 UNK        -0.0398 
      7 S7          3.0020  -14.4925  -47.6908 S.3       23 UNK        -0.2404 
      8 C8          2.6218  -14.7867  -49.4538 C.3       23 UNK        -0.0205 
      9 C9          2.6087  -16.2549  -49.8816 C.ar      23 UNK        -0.0193 
     10 C10         1.8167  -16.6299  -50.9732 C.ar      23 UNK        -0.1150 
     11 C11         1.7736  -17.9589  -51.4049 C.ar      23 UNK        -0.0193 
     12 C12         2.5534  -18.9152  -50.7524 C.ar      23 UNK        -0.1150 
     13 C13         3.3364  -18.5647  -49.6494 C.ar      23 UNK        -0.0193 
     14 C14         3.3646  -17.2351  -49.2251 C.ar      23 UNK        -0.1150 
     15 C15         4.1334  -19.6272  -48.9033 C.3       23 UNK        -0.0205 
     16 S16         3.2000  -20.3137  -47.4939 S.3       23 UNK        -0.2404 
     17 C17         1.7407  -20.9656  -48.3661 C.3       23 UNK        -0.0398 
     18 CA          0.9187  -22.0019  -47.5712 C.3       11 UNK         0.1400 
     19 N           0.2550  -21.4363  -46.3911 N.am      11 UNK        -0.5000 
     20 C          -0.4636  -22.1520  -45.5121 C.2       10 UNK         0.5000 
     21 O          -0.5663  -23.3794  -45.5517 O.2       10 UNK        -0.5000 
     22 CA         -1.2491  -21.3678  -44.4452 C.3       10 UNK         0.1400 
     23 CB         -0.3402  -20.9649  -43.2747 C.3       10 UNK        -0.1800 
     24 N          -1.9235  -20.1882  -44.9931 N.am      10 UNK        -0.5000 
     25 C          -2.9169  -20.2374  -45.8933 C.2       9 UNK         0.5000 
     26 O          -3.3969  -21.2877  -46.3156 O.2       9 UNK        -0.5000 
     27 CA         -3.4457  -18.9013  -46.4471 C.3       9 UNK         0.1400 
     28 CB         -4.4955  -18.2947  -45.5055 C.3       9 UNK        -0.1800 
     29 N          -2.3857  -17.9268  -46.6919 N.am      9 UNK        -0.5000 
     30 C          -1.3936  -18.0838  -47.5796 C.2       8 UNK         0.5000 
     31 O          -1.2853  -19.0622  -48.3186 O.2       8 UNK        -0.5000 
     32 CA         -0.3020  -16.9962  -47.5797 C.3       8 UNK         0.1400 
     33 CB         -0.7754  -15.7218  -48.2989 C.3       8 UNK        -0.1800 
     34 N           0.1166  -16.6503  -46.2208 N.am      8 UNK        -0.5000 
     35 C           0.6928  -17.5030  -45.3627 C.2       7 UNK         0.5000 
     36 O           0.9622  -18.6719  -45.6324 O.2       7 UNK        -0.5000 
     37 CA          0.9523  -16.9768  -43.9427 C.3       7 UNK         0.1400 
     38 CB          2.2490  -16.1636  -43.8878 C.3       7 UNK        -0.1800 
     39 N          -0.1585  -16.1663  -43.4452 N.am      7 UNK        -0.5000 
     40 C          -1.3579  -16.6687  -43.1171 C.2       6 UNK         0.5000 
     41 O          -1.6303  -17.8676  -43.1641 O.2       6 UNK        -0.5000 
     42 CA         -2.4517  -15.6630  -42.7123 C.3       6 UNK         0.1400 
     43 CB         -2.3406  -15.3151  -41.2205 C.3       6 UNK        -0.1800 
     44 N          -2.4100  -14.4302  -43.4979 N.am      6 UNK        -0.5000 
     45 C          -2.5640  -14.3589  -44.8279 C.2       5 UNK         0.5000 
     46 O          -2.8326  -15.3298  -45.5335 O.2       5 UNK        -0.5000 
     47 CA         -2.3456  -12.9831  -45.4874 C.3       5 UNK         0.1400 
     48 CB         -3.6941  -12.3173  -45.7986 C.3       5 UNK        -0.1800 
     49 N          -1.5321  -12.0671  -44.6808 N.am      5 UNK        -0.5000 
     50 C          -0.2407  -12.2546  -44.3746 C.2       4 UNK         0.5000 
     51 O           0.4124  -13.2214  -44.7755 O.2       4 UNK        -0.5000 
     52 CA          0.4016  -11.1753  -43.4752 C.3       4 UNK         0.1400 
     53 CB         -0.4093  -10.9412  -42.1809 C.3       4 UNK        -0.1800 
     54 N           1.8130  -11.4337  -43.1633 N.am      4 UNK        -0.5000 
     55 C           2.3302  -12.4390  -42.4382 C.2       3 UNK         0.5000 
     56 O           1.6584  -13.3021  -41.8705 O.2       3 UNK        -0.5000 
     57 CA          3.8684  -12.4797  -42.3779 C.3       3 UNK         0.1400 
     58 CB          4.4350  -13.7636  -41.7359 C.3       3 UNK        -0.1800 
     59 N           4.3991  -12.2914  -43.7277 N.am      3 UNK        -0.5000 
     60 C           5.6539  -11.9505  -44.0362 C.2       2 UNK         0.5000 
     61 O           6.5475  -11.7655  -43.2077 O.2       2 UNK        -0.5000 
     62 CA          5.9577  -11.7755  -45.5333 C.3       2 UNK         0.1400 
     63 CB          6.3982  -10.3345  -45.8357 C.3       2 UNK        -0.1800 
     64 N           7.0178  -12.6933  -45.9531 N.am      2 UNK        -0.5000 
     65 C           6.8967  -13.9786  -46.3196 C.2       1 UNK         0.5000 
     66 O           7.8877  -14.6443  -46.6259 O.2       1 UNK        -0.5000 
     67 C          -0.0979  -22.6630  -48.5217 C.2       11 UNK         0.5000 
     68 O           0.1219  -23.7952  -48.9506 O.2       11 UNK        -0.5000 
     69 N          -1.1986  -21.9562  -48.8144 N.am      12 UNK        -0.5000 
     70 CA         -2.2812  -22.4398  -49.6670 C.3       12 UNK         0.1400 
     71 CB         -3.2890  -21.3145  -49.9088 C.3       12 UNK        -0.1800 
     72 C          -2.9793  -23.6851  -49.0976 C.2       12 UNK         0.5000 
     73 O          -3.2486  -24.6159  -49.8527 O.2       12 UNK        -0.5000 
     74 N          -3.2206  -23.7097  -47.7805 N.am      13 UNK        -0.5000 
     75 CA         -3.7710  -24.8587  -47.0615 C.3       13 UNK         0.1400 
     76 CB         -4.0664  -24.4706  -45.6056 C.3       13 UNK        -0.1800 
     77 C          -2.8593  -26.0967  -47.1315 C.2       13 UNK         0.5000 
     78 O          -3.3552  -27.1956  -47.3812 O.2       13 UNK        -0.5000 
     79 N          -1.5444  -25.8929  -46.9655 N.am      14 UNK        -0.5000 
     80 CA         -0.5227  -26.9337  -47.1063 C.3       14 UNK         0.1400 
     81 CB          0.8254  -26.3990  -46.5998 C.3       14 UNK        -0.1800 
     82 C          -0.3983  -27.4631  -48.5496 C.2       14 UNK         0.5000 
     83 O          -0.1999  -28.6629  -48.7431 O.2       14 UNK        -0.5000 
     84 N          -0.5450  -26.5661  -49.5334 N.am      15 UNK        -0.5000 
     85 CA         -0.5284  -26.8691  -50.9665 C.3       15 UNK         0.1400 
     86 CB         -0.2243  -25.5733  -51.7361 C.3       15 UNK        -0.1800 
     87 C          -1.8346  -27.5037  -51.4904 C.2       15 UNK         0.5000 
     88 O          -1.8555  -27.9565  -52.6356 O.2       15 UNK        -0.5000 
     89 N          -2.8951  -27.5042  -50.6679 N.am      16 UNK        -0.5000 
     90 CA         -4.2706  -27.9094  -50.9826 C.3       16 UNK         0.1400 
     91 CB         -4.3518  -29.4121  -51.3231 C.3       16 UNK        -0.1800 
     92 C          -4.9253  -27.0004  -52.0479 C.2       16 UNK         0.5000 
     93 O          -5.6771  -27.4734  -52.9018 O.2       16 UNK        -0.5000 
     94 N          -4.6288  -25.6995  -51.9569 N.am      17 UNK        -0.5000 
     95 CA         -5.1132  -24.6187  -52.8132 C.3       17 UNK         0.1400 
     96 CB         -3.9035  -23.9612  -53.5008 C.3       17 UNK        -0.1800 
     97 C          -5.9220  -23.5971  -51.9887 C.2       17 UNK         0.5000 
     98 O          -5.9880  -22.4213  -52.3527 O.2       17 UNK        -0.5000 
     99 N          -6.5286  -24.0517  -50.8822 N.am      18 UNK        -0.5000 
    100 CA        -7.2714  -23.2429  -49.9086 C.3       18 UNK         0.1400 
    101 CB        -7.7203  -24.1479  -48.7519 C.3       18 UNK        -0.1800 
    102 C         -8.4786  -22.4749  -50.4863 C.2       18 UNK         0.5000 
    103 O         -8.8816  -21.4675  -49.9063 O.2       18 UNK        -0.5000 
    104 N         -9.0176  -22.9429  -51.6210 N.am      19 UNK        -0.5000 
    105 CA       -10.0657  -22.2656  -52.3863 C.3       19 UNK         0.1400 
    106 CB       -10.6308  -23.2373  -53.4335 C.3       19 UNK        -0.1800 
    107 C         -9.5741  -20.9686  -53.0614 C.2       19 UNK         0.5000 
    108 O        -10.3534  -20.0236  -53.1901 O.2       19 UNK        -0.5000 
    109 N         -8.2970  -20.9416  -53.4690 N.am      20 UNK        -0.5000 
    110 CA        -7.6257  -19.7592  -54.0105 C.3       20 UNK         0.1400 
    111 CB        -6.5438  -20.2000  -55.0091 C.3       20 UNK        -0.1800 
    112 C         -7.0069  -18.9088  -52.8882 C.2       20 UNK         0.5000 
    113 O         -6.9802  -17.6819  -52.9985 O.2       20 UNK        -0.5000 
    114 N         -6.5089  -19.5797  -51.8367 N.am      21 UNK        -0.5000 
    115 CA        -5.9417  -19.0167  -50.6034 C.3       21 UNK         0.1400 
    116 CB        -7.0332  -18.2854  -49.7949 C.3       21 UNK        -0.1800 
    117 C         -4.6938  -18.1317  -50.8273 C.2       21 UNK         0.5000 
    118 O         -4.3808  -17.2997  -49.9749 O.2       21 UNK        -0.5000 
    119 N         -4.0240  -18.3076  -51.9775 N.am      22 UNK        -0.5000 
    120 CA        -2.9557  -17.4350  -52.4988 C.3       22 UNK         0.1400 
    121 C         -3.4215  -15.9735  -52.8037 C.2       22 UNK         0.5000 
    122 N         -4.7118  -15.7131  -52.9887 N.am      22 UNK        -0.7600 
    123 O         -2.6053  -15.0630  -52.9174 O.2       22 UNK        -0.5000 
    124 C124       -1.6487  -17.5149  -51.6560 C.3       23 UNK        -0.0398 
    125 S125       -0.7094  -19.0435  -51.9920 S.3       23 UNK        -0.2404 
    126 C126        0.8869  -18.3766  -52.5697 C.3       23 UNK        -0.0205 
    127 H127        5.1319  -18.6305  -44.4393 H         1 UNK         0.0600 
    128 H128        6.8623  -18.5780  -44.7957 H         1 UNK         0.0600 
    129 H129        5.6875  -18.6144  -46.1135 H         1 UNK         0.0600 
    130 H130        5.4303  -16.6286  -47.0704 H         1 UNK         0.3000 
    131 H131        4.8784  -14.2466  -45.5989 H         1 UNK         0.0600 
    132 H132        5.2341  -14.8453  -48.5761 H         1 UNK         0.0800 
    133 H133        4.9818  -13.2150  -48.0304 H         1 UNK         0.0800 
    134 H134        1.6443  -14.3465  -49.6540 H         1 UNK         0.0800 
    135 H135        3.3284  -14.2408  -50.0801 H         1 UNK         0.0800 
    136 H136        1.2263  -15.8835  -51.4854 H         1 UNK         0.1150 
    137 H137        2.5251  -19.9416  -51.0889 H         1 UNK         0.1150 
    138 H138        3.9695  -16.9777  -48.3714 H         1 UNK         0.1150 
    139 H139        4.4144  -20.4351  -49.5807 H         1 UNK         0.0800 
    140 H140        5.0682  -19.2010  -48.5373 H         1 UNK         0.0800 
    141 H141        2.0981  -21.4166  -49.2938 H         1 UNK         0.0800 
    142 H142        1.1108  -20.1226  -48.6537 H         1 UNK         0.0800 
    143 H143        1.5970  -22.7839  -47.2235 H         1 UNK         0.0600 
    144 H144        0.3399  -20.4318  -46.2590 H         1 UNK         0.3000 
    145 H145       -2.0206  -22.0331  -44.0519 H         1 UNK         0.0600 
    146 H146       -0.9094  -20.4769  -42.4835 H         1 UNK         0.0600 
    147 H147        0.1401  -21.8405  -42.8363 H         1 UNK         0.0600 
    148 H148        0.4490  -20.2830  -43.5892 H         1 UNK         0.0600 
    149 H149       -1.6164  -19.2857  -44.6473 H         1 UNK         0.3000 
    150 H150       -3.9293  -19.1058  -47.4044 H         1 UNK         0.0600 
    151 H151       -5.3143  -18.9938  -45.3312 H         1 UNK         0.0600 
    152 H152       -4.9261  -17.3872  -45.9296 H         1 UNK         0.0600 
    153 H153       -4.0672  -18.0399  -44.5358 H         1 UNK         0.0600 
    154 H154       -2.4256  -17.0648  -46.1540 H         1 UNK         0.3000 
    155 H155        0.5717  -17.3886  -48.1037 H         1 UNK         0.0600 
    156 H156       -1.7758  -15.4208  -47.9873 H         1 UNK         0.0600 
    157 H157       -0.7999  -15.8703  -49.3768 H         1 UNK         0.0600 
    158 H158       -0.1059  -14.8840  -48.1073 H         1 UNK         0.0600 
    159 H159       -0.0797  -15.7112  -45.9061 H         1 UNK         0.3000 
    160 H160        1.0690  -17.8387  -43.2823 H         1 UNK         0.0600 
    161 H161        2.2047  -15.2746  -44.5178 H         1 UNK         0.0600 
    162 H162        3.0937  -16.7644  -44.2219 H         1 UNK         0.0600 
    163 H163        2.4552  -15.8469  -42.8668 H         1 UNK         0.0600 
    164 H164       -0.0120  -15.1655  -43.4107 H         1 UNK         0.3000 
    165 H165       -3.4201  -16.1371  -42.8847 H         1 UNK         0.0600 
    166 H166       -3.1582  -14.6672  -40.9041 H         1 UNK         0.0600 
    167 H167       -2.3838  -16.2153  -40.6060 H         1 UNK         0.0600 
    168 H168       -1.4018  -14.8073  -40.9942 H         1 UNK         0.0600 
    169 H169       -2.1935  -13.5812  -42.9982 H         1 UNK         0.3000 
    170 H170       -1.8229  -13.1555  -46.4306 H         1 UNK         0.0600 
    171 H171       -4.3138  -12.9635  -46.4220 H         1 UNK         0.0600 
    172 H172       -4.2562  -12.1016  -44.8890 H         1 UNK         0.0600 
    173 H173       -3.5569  -11.3813  -46.3402 H         1 UNK         0.0600 
    174 H174       -2.0022  -11.2447  -44.3311 H         1 UNK         0.3000 
    175 H175        0.3892  -10.2482  -44.0500 H         1 UNK         0.0600 
    176 H176       -0.5535  -11.8630  -41.6166 H         1 UNK         0.0600 
    177 H177        0.0913  -10.2263  -41.5278 H         1 UNK         0.0600 
    178 H178       -1.3974  -10.5341  -42.3966 H         1 UNK         0.0600 
    179 H179        2.4630  -10.7843  -43.5830 H         1 UNK         0.3000 
    180 H180        4.1716  -11.6307  -41.7619 H         1 UNK         0.0600 
    181 H181        4.2928  -14.6294  -42.3801 H         1 UNK         0.0600 
    182 H182        3.9599  -13.9755  -40.7774 H         1 UNK         0.0600 
    183 H183        5.5042  -13.6721  -41.5464 H         1 UNK         0.0600 
    184 H184        3.7223  -12.4255  -44.4673 H         1 UNK         0.3000 
    185 H185        5.0490  -11.9554  -46.1083 H         1 UNK         0.0600 
    186 H186        5.6308   -9.6202  -45.5345 H         1 UNK         0.0600 
    187 H187        7.3163  -10.0711  -45.3088 H         1 UNK         0.0600 
    188 H188        6.5727  -10.1919  -46.9024 H         1 UNK         0.0600 
    189 H189        7.9512  -12.3169  -45.8770 H         1 UNK         0.3000 
    190 H190       -1.2862  -21.0072  -48.4597 H         1 UNK         0.3000 
    191 H191       -1.8442  -22.7116  -50.6297 H         1 UNK         0.0600 
    192 H192       -2.7995  -20.4352  -50.3253 H         1 UNK         0.0600 
    193 H193       -4.0559  -21.6273  -50.6165 H         1 UNK         0.0600 
    194 H194       -3.7857  -21.0158  -48.9863 H         1 UNK         0.0600 
    195 H195       -3.0338  -22.8742  -47.2309 H         1 UNK         0.3000 
    196 H196       -4.7154  -25.1241  -47.5383 H         1 UNK         0.0600 
    197 H197       -4.4918  -25.3107  -45.0553 H         1 UNK         0.0600 
    198 H198       -4.7843  -23.6518  -45.5553 H         1 UNK         0.0600 
    199 H199       -3.1641  -24.1561  -45.0809 H         1 UNK         0.0600 
    200 H200       -1.2181  -24.9595  -46.7357 H         1 UNK         0.3000 
    201 H201       -0.8123  -27.7735  -46.4711 H         1 UNK         0.0600 
    202 H202        0.7584  -26.0867  -45.5575 H         1 UNK         0.0600 
    203 H203        1.1656  -25.5427  -47.1824 H         1 UNK         0.0600 
    204 H204        1.5980  -27.1663  -46.6614 H         1 UNK         0.0600 
    205 H205       -0.6290  -25.5852  -49.2821 H         1 UNK         0.3000 
    206 H206        0.2790  -27.5778  -51.1608 H         1 UNK         0.0600 
    207 H207        0.7197  -25.1338  -51.4135 H         1 UNK         0.0600 
    208 H208       -0.1454  -25.7607  -52.8077 H         1 UNK         0.0600 
    209 H209       -1.0077  -24.8290  -51.5910 H         1 UNK         0.0600 
    210 H210       -2.7683  -27.0789  -49.7587 H         1 UNK         0.3000 
    211 H211       -4.8412  -27.7539  -50.0659 H         1 UNK         0.0600 
    212 H212       -3.8688  -29.6428  -52.2728 H         1 UNK         0.0600 
    213 H213       -5.3897  -29.7381  -51.3994 H         1 UNK         0.0600 
    214 H214       -3.8786  -30.0169  -50.5496 H         1 UNK         0.0600 
    215 H215       -4.0279  -25.3981  -51.1880 H         1 UNK         0.3000 
    216 H216       -5.7809  -25.0096  -53.5830 H         1 UNK         0.0600 
    217 H217       -4.2192  -23.1860  -54.2002 H         1 UNK         0.0600 
    218 H218       -3.3278  -24.6935  -54.0671 H         1 UNK         0.0600 
    219 H219       -3.2331  -23.4988  -52.7751 H         1 UNK         0.0600 
    220 H220       -6.4233  -25.0309  -50.6629 H         1 UNK         0.3000 
    221 H221       -6.5786  -22.4986  -49.5103 H         1 UNK         0.0600 
    222 H222       -8.3978  -24.9309  -49.0946 H         1 UNK         0.0600 
    223 H223       -6.8696  -24.6277  -48.2704 H         1 UNK         0.0600 
    224 H224       -8.2425  -23.5739  -47.9852 H         1 UNK         0.0600 
    225 H225       -8.6372  -23.7893  -52.0174 H         1 UNK         0.3000 
    226 H226      -10.8713  -21.9977  -51.6993 H         1 UNK         0.0600 
    227 H227      -11.0469  -24.1276  -52.9617 H         1 UNK         0.0600 
    228 H228      -11.4324  -22.7698  -54.0069 H         1 UNK         0.0600 
    229 H229       -9.8650  -23.5578  -54.1411 H         1 UNK         0.0600 
    230 H230       -7.7063  -21.7421  -53.2792 H         1 UNK         0.3000 
    231 H231       -8.3471  -19.1384  -54.5461 H         1 UNK         0.0600 
    232 H232       -6.9768  -20.7724  -55.8295 H         1 UNK         0.0600 
    233 H233       -5.7802  -20.8189  -54.5367 H         1 UNK         0.0600 
    234 H234       -6.0415  -19.3358  -55.4457 H         1 UNK         0.0600 
    235 H235       -6.4974  -20.5933  -51.8982 H         1 UNK         0.3000 
    236 H236       -5.6200  -19.8661  -50.0038 H         1 UNK         0.0600 
    237 H237       -6.6689  -18.0081  -48.8049 H         1 UNK         0.0600 
    238 H238       -7.3597  -17.3711  -50.2912 H         1 UNK         0.0600 
    239 H239       -7.9085  -18.9180  -49.6496 H         1 UNK         0.0600 
    240 H240       -4.3543  -19.0208  -52.6100 H         1 UNK         0.3000 
    241 H241       -2.7235  -17.8264  -53.4898 H         1 UNK         0.0600 
    242 H242       -4.9967  -14.7699  -53.1986 H         1 UNK         0.3800 
    243 H243       -5.4143  -16.4430  -52.9244 H         1 UNK         0.3800 
    244 H244       -1.8695  -17.4786  -50.5909 H         1 UNK         0.0800 
    245 H245       -0.9971  -16.6640  -51.8502 H         1 UNK         0.0800 
    246 H246        0.7225  -17.5421  -53.2531 H         1 UNK         0.0800 
    247 H247        1.3946  -19.1462  -53.1530 H         1 UNK         0.0800 
@<TRIPOS>BOND
     1    1    2 1    
     2    1  127 1    
     3    1  128 1    
     4    1  129 1    
     5    2    3 2    
     6    2    4 am   BACKBONE|DICT|INTERRES
     7    4    5 1    
     8    4  130 1    
     9    5    6 1    
    10    5   65 1    
    11    5  131 1    
    12    6    7 1    
    13    6  132 1    
    14    6  133 1    
    15    7    8 1    
    16    8    9 1    
    17    8  134 1    
    18    8  135 1    
    19    9   10 ar   
    20    9   14 ar   
    21   10   11 ar   
    22   10  136 1    
    23   11   12 ar   
    24   11  126 1    
    25   12   13 ar   
    26   12  137 1    
    27   13   14 ar   
    28   13   15 1    
    29   14  138 1    
    30   15   16 1    
    31   15  139 1    
    32   15  140 1    
    33   16   17 1    
    34   17   18 1    
    35   17  141 1    
    36   17  142 1    
    37   18   19 1    
    38   18   67 1    
    39   18  143 1    
    40   19   20 am   BACKBONE|DICT|INTERRES
    41   19  144 1    
    42   20   21 2    
    43   20   22 1    
    44   22   23 1    
    45   22   24 1    
    46   22  145 1    
    47   23  146 1    
    48   23  147 1    
    49   23  148 1    
    50   24   25 am   BACKBONE|DICT|INTERRES
    51   24  149 1    
    52   25   26 2    
    53   25   27 1    
    54   27   28 1    
    55   27   29 1    
    56   27  150 1    
    57   28  151 1    
    58   28  152 1    
    59   28  153 1    
    60   29   30 am   BACKBONE|DICT|INTERRES
    61   29  154 1    
    62   30   31 2    
    63   30   32 1    
    64   32   33 1    
    65   32   34 1    
    66   32  155 1    
    67   33  156 1    
    68   33  157 1    
    69   33  158 1    
    70   34   35 am   BACKBONE|DICT|INTERRES
    71   34  159 1    
    72   35   36 2    
    73   35   37 1    
    74   37   38 1    
    75   37   39 1    
    76   37  160 1    
    77   38  161 1    
    78   38  162 1    
    79   38  163 1    
    80   39   40 am   BACKBONE|DICT|INTERRES
    81   39  164 1    
    82   40   41 2    
    83   40   42 1    
    84   42   43 1    
    85   42   44 1    
    86   42  165 1    
    87   43  166 1    
    88   43  167 1    
    89   43  168 1    
    90   44   45 am   BACKBONE|DICT|INTERRES
    91   44  169 1    
    92   45   46 2    
    93   45   47 1    
    94   47   48 1    
    95   47   49 1    
    96   47  170 1    
    97   48  171 1    
    98   48  172 1    
    99   48  173 1    
   100   49   50 am   BACKBONE|DICT|INTERRES
   101   49  174 1    
   102   50   51 2    
   103   50   52 1    
   104   52   53 1    
   105   52   54 1    
   106   52  175 1    
   107   53  176 1    
   108   53  177 1    
   109   53  178 1    
   110   54   55 am   BACKBONE|DICT|INTERRES
   111   54  179 1    
   112   55   56 2    
   113   55   57 1    
   114   57   58 1    
   115   57   59 1    
   116   57  180 1    
   117   58  181 1    
   118   58  182 1    
   119   58  183 1    
   120   59   60 am   BACKBONE|DICT|INTERRES
   121   59  184 1    
   122   60   61 2    
   123   60   62 1    
   124   62   63 1    
   125   62   64 1    
   126   62  185 1    
   127   63  186 1    
   128   63  187 1    
   129   63  188 1    
   130   64   65 am   BACKBONE|DICT|INTERRES
   131   64  189 1    
   132   65   66 2    
   133   67   68 2    
   134   67   69 am   BACKBONE|DICT|INTERRES
   135   69   70 1    
   136   69  190 1    
   137   70   71 1    
   138   70   72 1    
   139   70  191 1    
   140   71  192 1    
   141   71  193 1    
   142   71  194 1    
   143   72   73 2    
   144   72   74 am   BACKBONE|DICT|INTERRES
   145   74   75 1    
   146   74  195 1    
   147   75   76 1    
   148   75   77 1    
   149   75  196 1    
   150   76  197 1    
   151   76  198 1    
   152   76  199 1    
   153   77   78 2    
   154   77   79 am   BACKBONE|DICT|INTERRES
   155   79   80 1    
   156   79  200 1    
   157   80   81 1    
   158   80   82 1    
   159   80  201 1    
   160   81  202 1    
   161   81  203 1    
   162   81  204 1    
   163   82   83 2    
   164   82   84 am   BACKBONE|DICT|INTERRES
   165   84   85 1    
   166   84  205 1    
   167   85   86 1    
   168   85   87 1    
   169   85  206 1    
   170   86  207 1    
   171   86  208 1    
   172   86  209 1    
   173   87   88 2    
   174   87   89 am   BACKBONE|DICT|INTERRES
   175   89   90 1    
   176   89  210 1    
   177   90   91 1    
   178   90   92 1    
   179   90  211 1    
   180   91  212 1    
   181   91  213 1    
   182   91  214 1    
   183   92   93 2    
   184   92   94 am   BACKBONE|DICT|INTERRES
   185   94   95 1    
   186   94  215 1    
   187   95   96 1    
   188   95   97 1    
   189   95  216 1    
   190   96  217 1    
   191   96  218 1    
   192   96  219 1    
   193   97   98 2    
   194   97   99 am   BACKBONE|DICT|INTERRES
   195   99  100 1    
   196   99  220 1    
   197  100  101 1    
   198  100  102 1    
   199  100  221 1    
   200  101  222 1    
   201  101  223 1    
   202  101  224 1    
   203  102  103 2    
   204  102  104 am   BACKBONE|DICT|INTERRES
   205  104  105 1    
   206  104  225 1    
   207  105  106 1    
   208  105  107 1    
   209  105  226 1    
   210  106  227 1    
   211  106  228 1    
   212  106  229 1    
   213  107  108 2    
   214  107  109 am   BACKBONE|DICT|INTERRES
   215  109  110 1    
   216  109  230 1    
   217  110  111 1    
   218  110  112 1    
   219  110  231 1    
   220  111  232 1    
   221  111  233 1    
   222  111  234 1    
   223  112  113 2    
   224  112  114 am   BACKBONE|DICT|INTERRES
   225  114  115 1    
   226  114  235 1    
   227  115  116 1    
   228  115  117 1    
   229  115  236 1    
   230  116  237 1    
   231  116  238 1    
   232  116  239 1    
   233  117  118 2    
   234  117  119 am   BACKBONE|DICT|INTERRES
   235  119  120 1    
   236  119  240 1    
   237  120  121 1    
   238  120  124 1    
   239  120  241 1    
   240  121  122 am   BACKBONE|DICT|INTERRES
   241  121  123 2    
   242  122  242 1    
   243  122  243 1    
   244  124  125 1    
   245  124  244 1    
   246  124  245 1    
   247  125  126 1    
   248  126  246 1    
   249  126  247 1    
@<TRIPOS>SUBSTRUCTURE
     1 UNK         1 GROUP             0       ****    0 ROOT    
