@<TRIPOS>MOLECULE
3R540
247   249    1
SMALL
USER_CHARGES


@<TRIPOS>ATOM
      1 CA         -2.5137   -9.6963  -46.2677 C.3       0 UNK        -0.1800 
      2 C          -1.2883   -9.7918  -47.1660 C.2       0 UNK         0.5000 
      3 O          -0.8512   -8.7807  -47.7170 O.2       0 UNK        -0.5000 
      4 N          -0.7406  -11.0022  -47.3220 N.am      1 UNK        -0.5000 
      5 CA          0.4853  -11.2804  -48.0749 C.3       1 UNK         0.1400 
      6 C6          0.5785  -12.7726  -48.4857 C.3       23 UNK        -0.0398 
      7 S7          0.5062  -13.9508  -47.0878 S.3       23 UNK        -0.2404 
      8 C8         -0.9088  -15.0016  -47.5497 C.3       23 UNK        -0.0205 
      9 C9         -0.6365  -15.8097  -48.8098 C.ar      23 UNK        -0.0193 
     10 C10        -1.4230  -15.6265  -49.9508 C.ar      23 UNK        -0.1150 
     11 C11        -1.1792  -16.3714  -51.1082 C.ar      23 UNK        -0.0193 
     12 C12        -0.1380  -17.3041  -51.1190 C.ar      23 UNK        -0.1150 
     13 C13         0.6552  -17.4961  -49.9848 C.ar      23 UNK        -0.0193 
     14 C14         0.4009  -16.7459  -48.8339 C.ar      23 UNK        -0.1150 
     15 C15         1.7972  -18.4997  -50.0127 C.3       23 UNK        -0.0205 
     16 S16         1.2242  -20.1888  -49.6610 S.3       23 UNK        -0.2404 
     17 C17         0.9543  -20.1068  -47.8586 C.3       23 UNK        -0.0398 
     18 CA          0.2109  -21.3480  -47.3174 C.3       11 UNK         0.1400 
     19 N           0.4144  -21.5243  -45.8792 N.am      11 UNK        -0.5000 
     20 C           0.0660  -22.6215  -45.1937 C.2       10 UNK         0.5000 
     21 O          -0.4353  -23.6200  -45.7099 O.2       10 UNK        -0.5000 
     22 CA          0.2682  -22.5792  -43.6692 C.3       10 UNK         0.1400 
     23 CB          1.7366  -22.8441  -43.3057 C.3       10 UNK        -0.1800 
     24 N          -0.1717  -21.3146  -43.0772 N.am      10 UNK        -0.5000 
     25 C          -1.4371  -20.8707  -43.1016 C.2       9 UNK         0.5000 
     26 O          -2.3709  -21.4971  -43.6012 O.2       9 UNK        -0.5000 
     27 CA         -1.7034  -19.4788  -42.5041 C.3       9 UNK         0.1400 
     28 CB         -1.7682  -19.5483  -40.9713 C.3       9 UNK        -0.1800 
     29 N          -0.7130  -18.4838  -42.9144 N.am      9 UNK        -0.5000 
     30 C          -0.5069  -18.0894  -44.1802 C.2       8 UNK         0.5000 
     31 O          -1.1430  -18.5104  -45.1461 O.2       8 UNK        -0.5000 
     32 CA          0.6453  -17.0980  -44.4117 C.3       8 UNK         0.1400 
     33 CB          0.2663  -15.6910  -43.9242 C.3       8 UNK        -0.1800 
     34 N           1.8773  -17.5219  -43.7520 N.am      8 UNK        -0.5000 
     35 C           2.5252  -18.6727  -43.9758 C.2       7 UNK         0.5000 
     36 O           2.1869  -19.5015  -44.8201 O.2       7 UNK        -0.5000 
     37 CA          3.7231  -18.9685  -43.0590 C.3       7 UNK         0.1400 
     38 CB          4.9759  -18.2105  -43.5247 C.3       7 UNK        -0.1800 
     39 N           3.4366  -18.6366  -41.6628 N.am      7 UNK        -0.5000 
     40 C           2.5617  -19.2955  -40.8899 C.2       6 UNK         0.5000 
     41 O           1.9136  -20.2713  -41.2671 O.2       6 UNK        -0.5000 
     42 CA          2.3530  -18.7500  -39.4657 C.3       6 UNK         0.1400 
     43 CB          3.4699  -19.2343  -38.5290 C.3       6 UNK        -0.1800 
     44 N           2.2857  -17.2886  -39.4283 N.am      6 UNK        -0.5000 
     45 C           1.2860  -16.5685  -39.9555 C.2       5 UNK         0.5000 
     46 O           0.3049  -17.0630  -40.5103 O.2       5 UNK        -0.5000 
     47 CA          1.4306  -15.0358  -39.8936 C.3       5 UNK         0.1400 
     48 CB          0.9583  -14.5036  -38.5323 C.3       5 UNK        -0.1800 
     49 N           2.7877  -14.5459  -40.1646 N.am      5 UNK        -0.5000 
     50 C           3.4793  -14.7985  -41.2834 C.2       4 UNK         0.5000 
     51 O           3.0928  -15.5676  -42.1647 O.2       4 UNK        -0.5000 
     52 CA          4.8473  -14.1088  -41.4346 C.3       4 UNK         0.1400 
     53 CB          5.9449  -14.9589  -40.7764 C.3       4 UNK        -0.1800 
     54 N           5.1817  -13.9166  -42.8474 N.am      4 UNK        -0.5000 
     55 C           4.5274  -13.0904  -43.6732 C.2       3 UNK         0.5000 
     56 O           3.6755  -12.2784  -43.2998 O.2       3 UNK        -0.5000 
     57 CA          4.8700  -13.2151  -45.1648 C.3       3 UNK         0.1400 
     58 CB          4.2550  -14.4932  -45.7657 C.3       3 UNK        -0.1800 
     59 N           4.3525  -12.0505  -45.8741 N.am      3 UNK        -0.5000 
     60 C           4.8936  -11.4839  -46.9551 C.2       2 UNK         0.5000 
     61 O           5.9035  -11.9143  -47.5159 O.2       2 UNK        -0.5000 
     62 CA          4.1582  -10.2465  -47.5125 C.3       2 UNK         0.1400 
     63 CB          4.9549   -9.5296  -48.6179 C.3       2 UNK        -0.1800 
     64 N           2.8433  -10.6098  -48.0434 N.am      2 UNK        -0.5000 
     65 C           1.7431  -10.8129  -47.3076 C.2       1 UNK         0.5000 
     66 O           1.7121  -10.6688  -46.0817 O.2       1 UNK        -0.5000 
     67 C          -1.2874  -21.3309  -47.6839 C.2       11 UNK         0.5000 
     68 O          -1.6826  -22.0212  -48.6214 O.2       11 UNK        -0.5000 
     69 N          -2.1030  -20.5970  -46.9126 N.am      12 UNK        -0.5000 
     70 CA         -3.5566  -20.5344  -47.0780 C.3       12 UNK         0.1400 
     71 CB         -4.1348  -19.4599  -46.1456 C.3       12 UNK        -0.1800 
     72 C          -4.2522  -21.8906  -46.8499 C.2       12 UNK         0.5000 
     73 O          -5.1927  -22.2152  -47.5744 O.2       12 UNK        -0.5000 
     74 N          -3.7664  -22.6656  -45.8696 N.am      13 UNK        -0.5000 
     75 CA         -4.2228  -24.0265  -45.5870 C.3       13 UNK         0.1400 
     76 CB         -3.6704  -24.4856  -44.2291 C.3       13 UNK        -0.1800 
     77 C          -3.8412  -25.0218  -46.6982 C.2       13 UNK         0.5000 
     78 O          -4.6565  -25.8758  -47.0481 O.2       13 UNK        -0.5000 
     79 N          -2.6213  -24.8900  -47.2401 N.am      14 UNK        -0.5000 
     80 CA         -2.1254  -25.6816  -48.3671 C.3       14 UNK         0.1400 
     81 CB         -0.6146  -25.4577  -48.5345 C.3       14 UNK        -0.1800 
     82 C          -2.8754  -25.3700  -49.6748 C.2       14 UNK         0.5000 
     83 O          -3.2529  -26.2937  -50.3969 O.2       14 UNK        -0.5000 
     84 N          -3.1210  -24.0798  -49.9345 N.am      15 UNK        -0.5000 
     85 CA         -3.8702  -23.5572  -51.0775 C.3       15 UNK         0.1400 
     86 CB         -3.4252  -22.1072  -51.3361 C.3       15 UNK        -0.1800 
     87 C          -5.4001  -23.6826  -50.8971 C.2       15 UNK         0.5000 
     88 O          -6.1362  -22.7118  -51.0938 O.2       15 UNK        -0.5000 
     89 N          -5.8564  -24.8809  -50.5108 N.am      16 UNK        -0.5000 
     90 CA         -7.2583  -25.2317  -50.2952 C.3       16 UNK         0.1400 
     91 CB         -7.3356  -26.6647  -49.7489 C.3       16 UNK        -0.1800 
     92 C          -8.0878  -25.0970  -51.5844 C.2       16 UNK         0.5000 
     93 O          -7.6043  -25.4516  -52.6616 O.2       16 UNK        -0.5000 
     94 N          -9.3126  -24.5681  -51.4493 N.am      17 UNK        -0.5000 
     95 CA        -10.2814  -24.3033  -52.5246 C.3       17 UNK         0.1400 
     96 CB        -10.8106  -25.6297  -53.1096 C.3       17 UNK        -0.1800 
     97 C          -9.7596  -23.3412  -53.6188 C.2       17 UNK         0.5000 
     98 O         -10.2377  -23.3876  -54.7534 O.2       17 UNK        -0.5000 
     99 N          -8.7815  -22.4965  -53.2556 N.am      18 UNK        -0.5000 
    100 CA        -8.0392  -21.5654  -54.1118 C.3       18 UNK         0.1400 
    101 CB        -8.9640  -20.4632  -54.6695 C.3       18 UNK        -0.1800 
    102 C         -7.2007  -22.2600  -55.2086 C.2       18 UNK         0.5000 
    103 O         -6.8990  -21.6412  -56.2323 O.2       18 UNK        -0.5000 
    104 N         -6.8122  -23.5206  -54.9759 N.am      19 UNK        -0.5000 
    105 CA        -5.8494  -24.2523  -55.7965 C.3       19 UNK         0.1400 
    106 CB        -6.1264  -25.7576  -55.6530 C.3       19 UNK        -0.1800 
    107 C         -4.4076  -23.9246  -55.3647 C.2       19 UNK         0.5000 
    108 O         -4.1960  -23.3573  -54.2917 O.2       19 UNK        -0.5000 
    109 N         -3.4362  -24.3269  -56.1941 N.am      20 UNK        -0.5000 
    110 CA        -1.9923  -24.2247  -55.9569 C.3       20 UNK         0.1400 
    111 CB        -1.5683  -25.1809  -54.8163 C.3       20 UNK        -0.1800 
    112 C         -1.5161  -22.7648  -55.7724 C.2       20 UNK         0.5000 
    113 O         -1.8976  -21.9030  -56.5679 O.2       20 UNK        -0.5000 
    114 N         -0.6857  -22.5186  -54.7480 N.am      21 UNK        -0.5000 
    115 CA         0.0339  -21.2696  -54.4668 C.3       21 UNK         0.1400 
    116 CB         0.9031  -21.4817  -53.2170 C.3       21 UNK        -0.1800 
    117 C         -0.8357  -20.0082  -54.2938 C.2       21 UNK         0.5000 
    118 O         -0.3206  -18.9008  -54.4519 O.2       21 UNK        -0.5000 
    119 N         -2.1213  -20.1905  -53.9830 N.am      22 UNK        -0.5000 
    120 CA        -3.1245  -19.1260  -53.8606 C.3       22 UNK         0.1400 
    121 C         -4.4482  -19.4973  -54.5875 C.2       22 UNK         0.5000 
    122 N         -4.4048  -20.3292  -55.6215 N.am      22 UNK        -0.7600 
    123 O         -5.5252  -19.0358  -54.2226 O.2       22 UNK        -0.5000 
    124 C124       -3.2954  -18.6746  -52.3823 C.3       23 UNK        -0.0398 
    125 S125       -3.6777  -16.8974  -52.2226 S.3       23 UNK        -0.2404 
    126 C126       -2.0232  -16.1453  -52.3534 C.3       23 UNK        -0.0205 
    127 H127       -2.3159   -9.0221  -45.4345 H         1 UNK         0.0600 
    128 H128       -2.7938  -10.6679  -45.8597 H         1 UNK         0.0600 
    129 H129       -3.3621   -9.3063  -46.8299 H         1 UNK         0.0600 
    130 H130       -1.1130  -11.7876  -46.8083 H         1 UNK         0.3000 
    131 H131        0.4420  -10.6959  -48.9968 H         1 UNK         0.0600 
    132 H132       -0.2303  -12.9931  -49.1830 H         1 UNK         0.0800 
    133 H133        1.4959  -12.9648  -49.0443 H         1 UNK         0.0800 
    134 H134       -1.7968  -14.3785  -47.6659 H         1 UNK         0.0800 
    135 H135       -1.1240  -15.6928  -46.7344 H         1 UNK         0.0800 
    136 H136       -2.2270  -14.9039  -49.9426 H         1 UNK         0.1150 
    137 H137        0.0592  -17.8806  -52.0117 H         1 UNK         0.1150 
    138 H138        1.0158  -16.8823  -47.9557 H         1 UNK         0.1150 
    139 H139        2.2670  -18.4877  -50.9974 H         1 UNK         0.0800 
    140 H140        2.5756  -18.2190  -49.3014 H         1 UNK         0.0800 
    141 H141        0.4236  -19.1937  -47.5884 H         1 UNK         0.0800 
    142 H142        1.9402  -20.0328  -47.3985 H         1 UNK         0.0800 
    143 H143        0.6477  -22.2288  -47.7936 H         1 UNK         0.0600 
    144 H144        0.8573  -20.7540  -45.3848 H         1 UNK         0.3000 
    145 H145       -0.3368  -23.3772  -43.2340 H         1 UNK         0.0600 
    146 H146        1.8681  -22.9125  -42.2258 H         1 UNK         0.0600 
    147 H147        2.0823  -23.7851  -43.7354 H         1 UNK         0.0600 
    148 H148        2.3920  -22.0539  -43.6728 H         1 UNK         0.0600 
    149 H149        0.5386  -20.7604  -42.6086 H         1 UNK         0.3000 
    150 H150       -2.6769  -19.1445  -42.8683 H         1 UNK         0.0600 
    151 H151       -2.5017  -20.2859  -40.6433 H         1 UNK         0.0600 
    152 H152       -2.0608  -18.5881  -40.5463 H         1 UNK         0.0600 
    153 H153       -0.8059  -19.8254  -40.5393 H         1 UNK         0.0600 
    154 H154       -0.1610  -18.0644  -42.1723 H         1 UNK         0.3000 
    155 H155        0.8401  -17.0507  -45.4847 H         1 UNK         0.0600 
    156 H156        0.1070  -15.6658  -42.8467 H         1 UNK         0.0600 
    157 H157       -0.6523  -15.3431  -44.3967 H         1 UNK         0.0600 
    158 H158        1.0489  -14.9693  -44.1596 H         1 UNK         0.0600 
    159 H159        2.2628  -16.8780  -43.0629 H         1 UNK         0.3000 
    160 H160        3.9324  -20.0386  -43.1182 H         1 UNK         0.0600 
    161 H161        5.8428  -18.4726  -42.9182 H         1 UNK         0.0600 
    162 H162        4.8419  -17.1304  -43.4675 H         1 UNK         0.0600 
    163 H163        5.2167  -18.4560  -44.5598 H         1 UNK         0.0600 
    164 H164        3.8717  -17.8031  -41.2970 H         1 UNK         0.3000 
    165 H165        1.4041  -19.1440  -39.0952 H         1 UNK         0.0600 
    166 H166        3.2865  -18.9193  -37.5016 H         1 UNK         0.0600 
    167 H167        3.5323  -20.3233  -38.5276 H         1 UNK         0.0600 
    168 H168        4.4454  -18.8497  -38.8293 H         1 UNK         0.0600 
    169 H169        3.0577  -16.8015  -38.9978 H         1 UNK         0.3000 
    170 H170        0.7776  -14.6187  -40.6628 H         1 UNK         0.0600 
    171 H171       -0.0562  -14.8391  -38.3123 H         1 UNK         0.0600 
    172 H172        1.6008  -14.8461  -37.7202 H         1 UNK         0.0600 
    173 H173        0.9482  -13.4136  -38.5163 H         1 UNK         0.0600 
    174 H174        3.1820  -13.9191  -39.4781 H         1 UNK         0.3000 
    175 H175        4.8095  -13.1323  -40.9475 H         1 UNK         0.0600 
    176 H176        6.0194  -15.9466  -41.2337 H         1 UNK         0.0600 
    177 H177        6.9193  -14.4770  -40.8591 H         1 UNK         0.0600 
    178 H178        5.7454  -15.1035  -39.7138 H         1 UNK         0.0600 
    179 H179        5.8479  -14.5661  -43.2379 H         1 UNK         0.3000 
    180 H180        5.9573  -13.2509  -45.2602 H         1 UNK         0.0600 
    181 H181        3.1717  -14.5115  -45.6418 H         1 UNK         0.0600 
    182 H182        4.6523  -15.3874  -45.2849 H         1 UNK         0.0600 
    183 H183        4.4707  -14.5752  -46.8310 H         1 UNK         0.0600 
    184 H184        3.5214  -11.6350  -45.4627 H         1 UNK         0.3000 
    185 H185        4.0310   -9.5413  -46.6882 H         1 UNK         0.0600 
    186 H186        5.9387   -9.2274  -48.2566 H         1 UNK         0.0600 
    187 H187        5.1058  -10.1690  -49.4885 H         1 UNK         0.0600 
    188 H188        4.4418   -8.6270  -48.9503 H         1 UNK         0.0600 
    189 H189        2.8028  -10.7709  -49.0395 H         1 UNK         0.3000 
    190 H190       -1.7067  -20.0241  -46.1718 H         1 UNK         0.3000 
    191 H191       -3.7578  -20.2317  -48.1078 H         1 UNK         0.0600 
    192 H192       -3.9306  -19.6846  -45.0984 H         1 UNK         0.0600 
    193 H193       -5.2165  -19.3820  -46.2614 H         1 UNK         0.0600 
    194 H194       -3.7123  -18.4793  -46.3657 H         1 UNK         0.0600 
    195 H195       -3.0392  -22.2939  -45.2656 H         1 UNK         0.3000 
    196 H196       -5.3125  -24.0084  -45.5183 H         1 UNK         0.0600 
    197 H197       -4.0094  -25.4942  -43.9900 H         1 UNK         0.0600 
    198 H198       -4.0068  -23.8302  -43.4257 H         1 UNK         0.0600 
    199 H199       -2.5802  -24.4936  -44.2186 H         1 UNK         0.0600 
    200 H200       -1.9851  -24.2000  -46.8532 H         1 UNK         0.3000 
    201 H201       -2.2862  -26.7362  -48.1340 H         1 UNK         0.0600 
    202 H202       -0.0724  -25.7424  -47.6327 H         1 UNK         0.0600 
    203 H203       -0.3810  -24.4146  -48.7485 H         1 UNK         0.0600 
    204 H204       -0.2198  -26.0576  -49.3553 H         1 UNK         0.0600 
    205 H205       -2.7442  -23.3799  -49.2987 H         1 UNK         0.3000 
    206 H206       -3.6031  -24.1516  -51.9518 H         1 UNK         0.0600 
    207 H207       -3.9299  -21.6970  -52.2105 H         1 UNK         0.0600 
    208 H208       -3.6579  -21.4609  -50.4892 H         1 UNK         0.0600 
    209 H209       -2.3522  -22.0481  -51.5196 H         1 UNK         0.0600 
    210 H210       -5.1771  -25.6251  -50.4021 H         1 UNK         0.3000 
    211 H211       -7.6564  -24.5489  -49.5418 H         1 UNK         0.0600 
    212 H212       -6.9212  -27.3859  -50.4547 H         1 UNK         0.0600 
    213 H213       -8.3688  -26.9533  -49.5516 H         1 UNK         0.0600 
    214 H214       -6.7867  -26.7594  -48.8115 H         1 UNK         0.0600 
    215 H215       -9.6154  -24.2960  -50.5239 H         1 UNK         0.3000 
    216 H216      -11.1235  -23.7922  -52.0559 H         1 UNK         0.0600 
    217 H217      -11.6387  -25.4535  -53.7971 H         1 UNK         0.0600 
    218 H218      -11.1797  -26.2883  -52.3234 H         1 UNK         0.0600 
    219 H219      -10.0374  -26.1658  -53.6608 H         1 UNK         0.0600 
    220 H220       -8.4405  -22.5619  -52.3055 H         1 UNK         0.3000 
    221 H221       -7.3147  -21.0802  -53.4561 H         1 UNK         0.0600 
    222 H222       -9.6654  -20.8547  -55.4064 H         1 UNK         0.0600 
    223 H223       -9.5390  -19.9900  -53.8737 H         1 UNK         0.0600 
    224 H224       -8.3830  -19.6791  -55.1567 H         1 UNK         0.0600 
    225 H225       -7.0786  -23.9645  -54.1044 H         1 UNK         0.3000 
    226 H226       -5.9743  -23.9724  -56.8445 H         1 UNK         0.0600 
    227 H227       -5.5047  -26.3393  -56.3343 H         1 UNK         0.0600 
    228 H228       -5.9193  -26.1099  -54.6418 H         1 UNK         0.0600 
    229 H229       -7.1661  -25.9923  -55.8824 H         1 UNK         0.0600 
    230 H230       -3.6999  -24.7526  -57.0714 H         1 UNK         0.3000 
    231 H231       -1.5119  -24.5771  -56.8706 H         1 UNK         0.0600 
    232 H232       -1.9239  -26.1935  -55.0072 H         1 UNK         0.0600 
    233 H233       -1.9667  -24.8718  -53.8491 H         1 UNK         0.0600 
    234 H234       -0.4828  -25.2404  -54.7291 H         1 UNK         0.0600 
    235 H235       -0.4607  -23.2931  -54.1410 H         1 UNK         0.3000 
    236 H236        0.6955  -21.0826  -55.3148 H         1 UNK         0.0600 
    237 H237        1.6165  -22.2930  -53.3619 H         1 UNK         0.0600 
    238 H238        1.4783  -20.5854  -52.9799 H         1 UNK         0.0600 
    239 H239        0.2953  -21.7193  -52.3427 H         1 UNK         0.0600 
    240 H240       -2.4738  -21.1355  -53.9116 H         1 UNK         0.3000 
    241 H241       -2.7628  -18.2693  -54.4313 H         1 UNK         0.0600 
    242 H242       -3.5295  -20.7191  -55.9499 H         1 UNK         0.3800 
    243 H243       -5.2770  -20.6161  -56.0533 H         1 UNK         0.3800 
    244 H244       -4.0819  -19.2456  -51.8872 H         1 UNK         0.0800 
    245 H245       -2.3905  -18.8778  -51.8089 H         1 UNK         0.0800 
    246 H246       -1.5141  -16.5290  -53.2390 H         1 UNK         0.0800 
    247 H247       -2.1395  -15.0726  -52.5143 H         1 UNK         0.0800 
@<TRIPOS>BOND
     1    1    2 1    
     2    1  127 1    
     3    1  128 1    
     4    1  129 1    
     5    2    3 2    
     6    2    4 am   BACKBONE|DICT|INTERRES
     7    4    5 1    
     8    4  130 1    
     9    5    6 1    
    10    5   65 1    
    11    5  131 1    
    12    6    7 1    
    13    6  132 1    
    14    6  133 1    
    15    7    8 1    
    16    8    9 1    
    17    8  134 1    
    18    8  135 1    
    19    9   10 ar   
    20    9   14 ar   
    21   10   11 ar   
    22   10  136 1    
    23   11   12 ar   
    24   11  126 1    
    25   12   13 ar   
    26   12  137 1    
    27   13   14 ar   
    28   13   15 1    
    29   14  138 1    
    30   15   16 1    
    31   15  139 1    
    32   15  140 1    
    33   16   17 1    
    34   17   18 1    
    35   17  141 1    
    36   17  142 1    
    37   18   19 1    
    38   18   67 1    
    39   18  143 1    
    40   19   20 am   BACKBONE|DICT|INTERRES
    41   19  144 1    
    42   20   21 2    
    43   20   22 1    
    44   22   23 1    
    45   22   24 1    
    46   22  145 1    
    47   23  146 1    
    48   23  147 1    
    49   23  148 1    
    50   24   25 am   BACKBONE|DICT|INTERRES
    51   24  149 1    
    52   25   26 2    
    53   25   27 1    
    54   27   28 1    
    55   27   29 1    
    56   27  150 1    
    57   28  151 1    
    58   28  152 1    
    59   28  153 1    
    60   29   30 am   BACKBONE|DICT|INTERRES
    61   29  154 1    
    62   30   31 2    
    63   30   32 1    
    64   32   33 1    
    65   32   34 1    
    66   32  155 1    
    67   33  156 1    
    68   33  157 1    
    69   33  158 1    
    70   34   35 am   BACKBONE|DICT|INTERRES
    71   34  159 1    
    72   35   36 2    
    73   35   37 1    
    74   37   38 1    
    75   37   39 1    
    76   37  160 1    
    77   38  161 1    
    78   38  162 1    
    79   38  163 1    
    80   39   40 am   BACKBONE|DICT|INTERRES
    81   39  164 1    
    82   40   41 2    
    83   40   42 1    
    84   42   43 1    
    85   42   44 1    
    86   42  165 1    
    87   43  166 1    
    88   43  167 1    
    89   43  168 1    
    90   44   45 am   BACKBONE|DICT|INTERRES
    91   44  169 1    
    92   45   46 2    
    93   45   47 1    
    94   47   48 1    
    95   47   49 1    
    96   47  170 1    
    97   48  171 1    
    98   48  172 1    
    99   48  173 1    
   100   49   50 am   BACKBONE|DICT|INTERRES
   101   49  174 1    
   102   50   51 2    
   103   50   52 1    
   104   52   53 1    
   105   52   54 1    
   106   52  175 1    
   107   53  176 1    
   108   53  177 1    
   109   53  178 1    
   110   54   55 am   BACKBONE|DICT|INTERRES
   111   54  179 1    
   112   55   56 2    
   113   55   57 1    
   114   57   58 1    
   115   57   59 1    
   116   57  180 1    
   117   58  181 1    
   118   58  182 1    
   119   58  183 1    
   120   59   60 am   BACKBONE|DICT|INTERRES
   121   59  184 1    
   122   60   61 2    
   123   60   62 1    
   124   62   63 1    
   125   62   64 1    
   126   62  185 1    
   127   63  186 1    
   128   63  187 1    
   129   63  188 1    
   130   64   65 am   BACKBONE|DICT|INTERRES
   131   64  189 1    
   132   65   66 2    
   133   67   68 2    
   134   67   69 am   BACKBONE|DICT|INTERRES
   135   69   70 1    
   136   69  190 1    
   137   70   71 1    
   138   70   72 1    
   139   70  191 1    
   140   71  192 1    
   141   71  193 1    
   142   71  194 1    
   143   72   73 2    
   144   72   74 am   BACKBONE|DICT|INTERRES
   145   74   75 1    
   146   74  195 1    
   147   75   76 1    
   148   75   77 1    
   149   75  196 1    
   150   76  197 1    
   151   76  198 1    
   152   76  199 1    
   153   77   78 2    
   154   77   79 am   BACKBONE|DICT|INTERRES
   155   79   80 1    
   156   79  200 1    
   157   80   81 1    
   158   80   82 1    
   159   80  201 1    
   160   81  202 1    
   161   81  203 1    
   162   81  204 1    
   163   82   83 2    
   164   82   84 am   BACKBONE|DICT|INTERRES
   165   84   85 1    
   166   84  205 1    
   167   85   86 1    
   168   85   87 1    
   169   85  206 1    
   170   86  207 1    
   171   86  208 1    
   172   86  209 1    
   173   87   88 2    
   174   87   89 am   BACKBONE|DICT|INTERRES
   175   89   90 1    
   176   89  210 1    
   177   90   91 1    
   178   90   92 1    
   179   90  211 1    
   180   91  212 1    
   181   91  213 1    
   182   91  214 1    
   183   92   93 2    
   184   92   94 am   BACKBONE|DICT|INTERRES
   185   94   95 1    
   186   94  215 1    
   187   95   96 1    
   188   95   97 1    
   189   95  216 1    
   190   96  217 1    
   191   96  218 1    
   192   96  219 1    
   193   97   98 2    
   194   97   99 am   BACKBONE|DICT|INTERRES
   195   99  100 1    
   196   99  220 1    
   197  100  101 1    
   198  100  102 1    
   199  100  221 1    
   200  101  222 1    
   201  101  223 1    
   202  101  224 1    
   203  102  103 2    
   204  102  104 am   BACKBONE|DICT|INTERRES
   205  104  105 1    
   206  104  225 1    
   207  105  106 1    
   208  105  107 1    
   209  105  226 1    
   210  106  227 1    
   211  106  228 1    
   212  106  229 1    
   213  107  108 2    
   214  107  109 am   BACKBONE|DICT|INTERRES
   215  109  110 1    
   216  109  230 1    
   217  110  111 1    
   218  110  112 1    
   219  110  231 1    
   220  111  232 1    
   221  111  233 1    
   222  111  234 1    
   223  112  113 2    
   224  112  114 am   BACKBONE|DICT|INTERRES
   225  114  115 1    
   226  114  235 1    
   227  115  116 1    
   228  115  117 1    
   229  115  236 1    
   230  116  237 1    
   231  116  238 1    
   232  116  239 1    
   233  117  118 2    
   234  117  119 am   BACKBONE|DICT|INTERRES
   235  119  120 1    
   236  119  240 1    
   237  120  121 1    
   238  120  124 1    
   239  120  241 1    
   240  121  122 am   BACKBONE|DICT|INTERRES
   241  121  123 2    
   242  122  242 1    
   243  122  243 1    
   244  124  125 1    
   245  124  244 1    
   246  124  245 1    
   247  125  126 1    
   248  126  246 1    
   249  126  247 1    
@<TRIPOS>SUBSTRUCTURE
     1 UNK         1 GROUP             0       ****    0 ROOT    
