@<TRIPOS>MOLECULE
3R540
247   249    1
SMALL
USER_CHARGES


@<TRIPOS>ATOM
      1 CA         -0.8404  -12.2072  -47.2753 C.3       0 UNK        -0.1800 
      2 C           0.5908  -12.7135  -47.3810 C.2       0 UNK         0.5000 
      3 O           1.0409  -13.4505  -46.5056 O.2       0 UNK        -0.5000 
      4 N           1.3096  -12.3133  -48.4394 N.am      1 UNK        -0.5000 
      5 CA          2.7004  -12.6666  -48.7683 C.3       1 UNK         0.1400 
      6 C6          2.9387  -14.1984  -48.8503 C.3       23 UNK        -0.0398 
      7 S7          4.4423  -14.6557  -49.7829 S.3       23 UNK        -0.2404 
      8 C8          3.8042  -14.8862  -51.4766 C.3       23 UNK        -0.0205 
      9 C9          2.7314  -15.9637  -51.5710 C.ar      23 UNK        -0.0193 
     10 C10         1.4825  -15.6617  -52.1208 C.ar      23 UNK        -0.1150 
     11 C11         0.4809  -16.6335  -52.1992 C.ar      23 UNK        -0.0193 
     12 C12         0.7373  -17.9169  -51.7013 C.ar      23 UNK        -0.1150 
     13 C13         1.9871  -18.2377  -51.1633 C.ar      23 UNK        -0.0193 
     14 C14         2.9813  -17.2584  -51.1086 C.ar      23 UNK        -0.1150 
     15 C15         2.2759  -19.6374  -50.6426 C.3       23 UNK        -0.0205 
     16 S16         1.8410  -19.7974  -48.8834 S.3       23 UNK        -0.2404 
     17 C17         0.0614  -20.1814  -48.9833 C.3       23 UNK        -0.0398 
     18 CA         -0.2468  -21.6082  -48.4783 C.3       11 UNK         0.1400 
     19 N           0.0216  -21.7688  -47.0454 N.am      11 UNK        -0.5000 
     20 C          -0.0226  -22.9359  -46.3871 C.2       10 UNK         0.5000 
     21 O          -0.2363  -24.0197  -46.9289 O.2       10 UNK        -0.5000 
     22 CA          0.1311  -22.8728  -44.8583 C.3       10 UNK         0.1400 
     23 CB          1.6105  -22.8130  -44.4480 C.3       10 UNK        -0.1800 
     24 N          -0.5964  -21.7361  -44.2916 N.am      10 UNK        -0.5000 
     25 C          -1.9341  -21.6570  -44.2324 C.2       9 UNK         0.5000 
     26 O          -2.6853  -22.5585  -44.6016 O.2       9 UNK        -0.5000 
     27 CA         -2.5364  -20.3361  -43.7177 C.3       9 UNK         0.1400 
     28 CB         -2.6367  -20.3487  -42.1855 C.3       9 UNK        -0.1800 
     29 N          -1.7735  -19.1627  -44.1439 N.am      9 UNK        -0.5000 
     30 C          -1.6459  -18.7559  -45.4153 C.2       8 UNK         0.5000 
     31 O          -2.2107  -19.2981  -46.3645 O.2       8 UNK        -0.5000 
     32 CA         -0.6762  -17.5860  -45.6719 C.3       8 UNK         0.1400 
     33 CB         -1.4226  -16.2464  -45.6125 C.3       8 UNK        -0.1800 
     34 N           0.4588  -17.5753  -44.7400 N.am      8 UNK        -0.5000 
     35 C           1.3921  -18.5406  -44.6992 C.2       7 UNK         0.5000 
     36 O           1.3533  -19.5267  -45.4360 O.2       7 UNK        -0.5000 
     37 CA          2.5057  -18.4642  -43.6320 C.3       7 UNK         0.1400 
     38 CB          3.9063  -18.6646  -44.2466 C.3       7 UNK        -0.1800 
     39 N           2.4563  -17.2834  -42.7605 N.am      7 UNK        -0.5000 
     40 C           2.7316  -16.0110  -43.0763 C.2       6 UNK         0.5000 
     41 O           3.1137  -15.6326  -44.1843 O.2       6 UNK        -0.5000 
     42 CA          2.5089  -14.9822  -41.9503 C.3       6 UNK         0.1400 
     43 CB          3.8430  -14.4389  -41.4175 C.3       6 UNK        -0.1800 
     44 N           1.6628  -13.8710  -42.3836 N.am      6 UNK        -0.5000 
     45 C           0.4057  -14.0034  -42.8337 C.2       5 UNK         0.5000 
     46 O          -0.1812  -15.0868  -42.8842 O.2       5 UNK        -0.5000 
     47 CA         -0.3103  -12.7102  -43.2793 C.3       5 UNK         0.1400 
     48 CB         -1.8390  -12.8698  -43.4089 C.3       5 UNK        -0.1800 
     49 N           0.0304  -11.5537  -42.4463 N.am      5 UNK        -0.5000 
     50 C          -0.1692  -11.4083  -41.1261 C.2       4 UNK         0.5000 
     51 O          -0.7743  -12.2268  -40.4320 O.2       4 UNK        -0.5000 
     52 CA          0.4079  -10.1306  -40.4709 C.3       4 UNK         0.1400 
     53 CB          0.8736  -10.3728  -39.0195 C.3       4 UNK        -0.1800 
     54 N           1.4712   -9.4842  -41.2548 N.am      4 UNK        -0.5000 
     55 C           2.6516  -10.0147  -41.6053 C.2       3 UNK         0.5000 
     56 O           3.0357  -11.1378  -41.2713 O.2       3 UNK        -0.5000 
     57 CA          3.5338   -9.1492  -42.5242 C.3       3 UNK         0.1400 
     58 CB          4.6351   -8.4517  -41.7116 C.3       3 UNK        -0.1800 
     59 N           4.1514   -9.9261  -43.6014 N.am      3 UNK        -0.5000 
     60 C           3.4944  -10.6694  -44.5023 C.2       2 UNK         0.5000 
     61 O           2.2638  -10.7666  -44.5481 O.2       2 UNK        -0.5000 
     62 CA          4.3710  -11.4222  -45.5153 C.3       2 UNK         0.1400 
     63 CB          5.1772  -12.5425  -44.8383 C.3       2 UNK        -0.1800 
     64 N           3.5329  -12.0189  -46.5479 N.am      2 UNK        -0.5000 
     65 C           3.7372  -11.9592  -47.8654 C.2       1 UNK         0.5000 
     66 O           4.6835  -11.3618  -48.3813 O.2       1 UNK        -0.5000 
     67 C          -1.6886  -22.0108  -48.8482 C.2       11 UNK         0.5000 
     68 O          -1.8851  -22.6313  -49.8935 O.2       11 UNK        -0.5000 
     69 N          -2.6601  -21.6740  -47.9876 N.am      12 UNK        -0.5000 
     70 CA         -4.0536  -22.1007  -48.1045 C.3       12 UNK         0.1400 
     71 CB         -4.9310  -21.3205  -47.1151 C.3       12 UNK        -0.1800 
     72 C          -4.2077  -23.6184  -47.9129 C.2       12 UNK         0.5000 
     73 O          -4.8247  -24.2739  -48.7523 O.2       12 UNK        -0.5000 
     74 N          -3.6102  -24.1612  -46.8416 N.am      13 UNK        -0.5000 
     75 CA         -3.6199  -25.5894  -46.5082 C.3       13 UNK         0.1400 
     76 CB         -2.9264  -25.8111  -45.1568 C.3       13 UNK        -0.1800 
     77 C          -2.9881  -26.4806  -47.5937 C.2       13 UNK         0.5000 
     78 O          -3.4958  -27.5726  -47.8498 O.2       13 UNK        -0.5000 
     79 N          -1.9411  -25.9764  -48.2612 N.am      14 UNK        -0.5000 
     80 CA         -1.2931  -26.6037  -49.4168 C.3       14 UNK         0.1400 
     81 CB         -0.0283  -25.8083  -49.7730 C.3       14 UNK        -0.1800 
     82 C          -2.2107  -26.7508  -50.6507 C.2       14 UNK         0.5000 
     83 O          -1.9488  -27.6086  -51.4942 O.2       14 UNK        -0.5000 
     84 N          -3.2759  -25.9420  -50.7203 N.am      15 UNK        -0.5000 
     85 CA         -4.3355  -26.0032  -51.7273 C.3       15 UNK         0.1400 
     86 CB         -4.5007  -24.6037  -52.3378 C.3       15 UNK        -0.1800 
     87 C          -5.6597  -26.5170  -51.1219 C.2       15 UNK         0.5000 
     88 O          -6.7239  -26.2729  -51.6935 O.2       15 UNK        -0.5000 
     89 N          -5.5858  -27.1886  -49.9603 N.am      16 UNK        -0.5000 
     90 CA         -6.6899  -27.7815  -49.1929 C.3       16 UNK         0.1400 
     91 CB         -7.2823  -28.9836  -49.9573 C.3       16 UNK        -0.1800 
     92 C          -7.7738  -26.7699  -48.7561 C.2       16 UNK         0.5000 
     93 O          -8.9231  -27.1590  -48.5436 O.2       16 UNK        -0.5000 
     94 N          -7.3935  -25.4871  -48.6566 N.am      17 UNK        -0.5000 
     95 CA         -8.2291  -24.3124  -48.3880 C.3       17 UNK         0.1400 
     96 CB         -8.8436  -24.3817  -46.9752 C.3       17 UNK        -0.1800 
     97 C          -9.2800  -24.0106  -49.4813 C.2       17 UNK         0.5000 
     98 O         -10.1555  -23.1726  -49.2590 O.2       17 UNK        -0.5000 
     99 N          -9.1717  -24.6591  -50.6513 N.am      18 UNK        -0.5000 
    100 CA       -10.0137  -24.4011  -51.8234 C.3       18 UNK         0.1400 
    101 CB       -10.0137  -25.6468  -52.7226 C.3       18 UNK        -0.1800 
    102 C         -9.5401  -23.1640  -52.6112 C.2       18 UNK         0.5000 
    103 O        -10.3295  -22.5571  -53.3359 O.2       18 UNK        -0.5000 
    104 N         -8.2631  -22.8141  -52.4376 N.am      19 UNK        -0.5000 
    105 CA        -7.5780  -21.6456  -52.9703 C.3       19 UNK         0.1400 
    106 CB        -7.2415  -21.8556  -54.4632 C.3       19 UNK        -0.1800 
    107 C         -6.3469  -21.4190  -52.0743 C.2       19 UNK         0.5000 
    108 O         -6.4195  -21.6886  -50.8722 O.2       19 UNK        -0.5000 
    109 N         -5.2296  -20.9851  -52.6626 N.am      20 UNK        -0.5000 
    110 CA        -3.9165  -20.9545  -52.0329 C.3       20 UNK         0.1400 
    111 CB        -3.6721  -19.5944  -51.3606 C.3       20 UNK        -0.1800 
    112 C         -2.8626  -21.2761  -53.0975 C.2       20 UNK         0.5000 
    113 O         -3.0585  -20.9523  -54.2723 O.2       20 UNK        -0.5000 
    114 N         -1.7712  -21.9210  -52.6728 N.am      21 UNK        -0.5000 
    115 CA        -0.6702  -22.3974  -53.5130 C.3       21 UNK         0.1400 
    116 CB         0.0551  -23.5256  -52.7579 C.3       21 UNK        -0.1800 
    117 C          0.2836  -21.2642  -53.9545 C.2       21 UNK         0.5000 
    118 O          1.4879  -21.3340  -53.7057 O.2       21 UNK        -0.5000 
    119 N         -0.2771  -20.2286  -54.5872 N.am      22 UNK        -0.5000 
    120 CA         0.4255  -19.0086  -55.0230 C.3       22 UNK         0.1400 
    121 C          1.2992  -19.1734  -56.3015 C.2       22 UNK         0.5000 
    122 N          1.2415  -20.2937  -57.0114 N.am      22 UNK        -0.7600 
    123 O          2.0486  -18.2673  -56.6555 O.2       22 UNK        -0.5000 
    124 C124       -0.5394  -17.7998  -55.1704 C.3       23 UNK        -0.0398 
    125 S125       -1.6782  -17.5801  -53.7575 S.3       23 UNK        -0.2404 
    126 C126       -0.8755  -16.2572  -52.7915 C.3       23 UNK        -0.0205 
    127 H127       -1.1458  -11.6647  -48.1701 H         1 UNK         0.0600 
    128 H128       -1.5245  -13.0441  -47.1349 H         1 UNK         0.0600 
    129 H129       -0.9387  -11.5386  -46.4201 H         1 UNK         0.0600 
    130 H130        0.8760  -11.6797  -49.0967 H         1 UNK         0.3000 
    131 H131        2.8469  -12.2650  -49.7724 H         1 UNK         0.0600 
    132 H132        3.0158  -14.6328  -47.8519 H         1 UNK         0.0800 
    133 H133        2.0759  -14.6829  -49.3070 H         1 UNK         0.0800 
    134 H134        3.4282  -13.9292  -51.8416 H         1 UNK         0.0800 
    135 H135        4.6334  -15.1596  -52.1303 H         1 UNK         0.0800 
    136 H136        1.2863  -14.6625  -52.4840 H         1 UNK         0.1150 
    137 H137       -0.0325  -18.6721  -51.7512 H         1 UNK         0.1150 
    138 H138        3.9474  -17.4980  -50.6867 H         1 UNK         0.1150 
    139 H139        1.7451  -20.3861  -51.2310 H         1 UNK         0.0800 
    140 H140        3.3369  -19.8618  -50.7615 H         1 UNK         0.0800 
    141 H141       -0.2723  -20.0685  -50.0143 H         1 UNK         0.0800 
    142 H142       -0.4880  -19.4362  -48.4081 H         1 UNK         0.0800 
    143 H143        0.4117  -22.3007  -49.0077 H         1 UNK         0.0600 
    144 H144        0.2677  -20.9293  -46.5315 H         1 UNK         0.3000 
    145 H145       -0.2926  -23.7885  -44.4410 H         1 UNK         0.0600 
    146 H146        1.7188  -22.7816  -43.3639 H         1 UNK         0.0600 
    147 H147        2.1443  -23.6957  -44.8022 H         1 UNK         0.0600 
    148 H148        2.1168  -21.9415  -44.8619 H         1 UNK         0.0600 
    149 H149       -0.0474  -20.9318  -44.0279 H         1 UNK         0.3000 
    150 H150       -3.5455  -20.2495  -44.1260 H         1 UNK         0.0600 
    151 H151       -3.2187  -21.2042  -41.8401 H         1 UNK         0.0600 
    152 H152       -3.1310  -19.4503  -41.8154 H         1 UNK         0.0600 
    153 H153       -1.6538  -20.4092  -41.7165 H         1 UNK         0.0600 
    154 H154       -1.2791  -18.6520  -43.4273 H         1 UNK         0.3000 
    155 H155       -0.2734  -17.7013  -46.6801 H         1 UNK         0.0600 
    156 H156       -0.7462  -15.4083  -45.7792 H         1 UNK         0.0600 
    157 H157       -1.9098  -16.1005  -44.6481 H         1 UNK         0.0600 
    158 H158       -2.1963  -16.1982  -46.3796 H         1 UNK         0.0600 
    159 H159        0.5194  -16.7909  -44.1014 H         1 UNK         0.3000 
    160 H160        2.3268  -19.3136  -42.9712 H         1 UNK         0.0600 
    161 H161        3.9800  -19.6355  -44.7383 H         1 UNK         0.0600 
    162 H162        4.6830  -18.6293  -43.4829 H         1 UNK         0.0600 
    163 H163        4.1351  -17.9074  -44.9968 H         1 UNK         0.0600 
    164 H164        2.1307  -17.4697  -41.8219 H         1 UNK         0.3000 
    165 H165        1.9947  -15.4740  -41.1219 H         1 UNK         0.0600 
    166 H166        4.3757  -13.8598  -42.1709 H         1 UNK         0.0600 
    167 H167        3.6864  -13.7937  -40.5528 H         1 UNK         0.0600 
    168 H168        4.4988  -15.2513  -41.1019 H         1 UNK         0.0600 
    169 H169        2.0725  -12.9465  -42.3411 H         1 UNK         0.3000 
    170 H170        0.0772  -12.4823  -44.2710 H         1 UNK         0.0600 
    171 H171       -2.0890  -13.6267  -44.1526 H         1 UNK         0.0600 
    172 H172       -2.2971  -13.1725  -42.4670 H         1 UNK         0.0600 
    173 H173       -2.3069  -11.9386  -43.7278 H         1 UNK         0.0600 
    174 H174        0.5714  -10.8409  -42.9191 H         1 UNK         0.3000 
    175 H175       -0.4167   -9.4173  -40.4353 H         1 UNK         0.0600 
    176 H176        1.2745   -9.4613  -38.5763 H         1 UNK         0.0600 
    177 H177        0.0444  -10.6988  -38.3905 H         1 UNK         0.0600 
    178 H178        1.6454  -11.1409  -38.9640 H         1 UNK         0.0600 
    179 H179        1.2474   -8.5581  -41.5929 H         1 UNK         0.3000 
    180 H180        2.9111   -8.3836  -42.9914 H         1 UNK         0.0600 
    181 H181        5.3097   -9.1730  -41.2483 H         1 UNK         0.0600 
    182 H182        4.2065   -7.8440  -40.9135 H         1 UNK         0.0600 
    183 H183        5.2306   -7.7885  -42.3392 H         1 UNK         0.0600 
    184 H184        5.1605   -9.9228  -43.6228 H         1 UNK         0.3000 
    185 H185        5.0601  -10.6974  -45.9534 H         1 UNK         0.0600 
    186 H186        5.8405  -13.0324  -45.5512 H         1 UNK         0.0600 
    187 H187        5.7982  -12.1612  -44.0272 H         1 UNK         0.0600 
    188 H188        4.5190  -13.3051  -44.4229 H         1 UNK         0.0600 
    189 H189        2.6856  -12.4746  -46.2173 H         1 UNK         0.3000 
    190 H190       -2.4291  -21.0819  -47.1961 H         1 UNK         0.3000 
    191 H191       -4.3996  -21.8576  -49.1081 H         1 UNK         0.0600 
    192 H192       -4.8595  -20.2469  -47.2904 H         1 UNK         0.0600 
    193 H193       -5.9799  -21.5986  -47.2245 H         1 UNK         0.0600 
    194 H194       -4.6476  -21.5093  -46.0803 H         1 UNK         0.0600 
    195 H195       -3.1475  -23.5485  -46.1753 H         1 UNK         0.3000 
    196 H196       -4.6644  -25.8914  -46.4066 H         1 UNK         0.0600 
    197 H197       -2.9491  -26.8641  -44.8733 H         1 UNK         0.0600 
    198 H198       -3.4202  -25.2505  -44.3629 H         1 UNK         0.0600 
    199 H199       -1.8817  -25.5015  -45.1867 H         1 UNK         0.0600 
    200 H200       -1.5392  -25.1009  -47.9381 H         1 UNK         0.3000 
    201 H201       -0.9896  -27.6096  -49.1204 H         1 UNK         0.0600 
    202 H202        0.6833  -25.8105  -48.9472 H         1 UNK         0.0600 
    203 H203       -0.2621  -24.7704  -50.0071 H         1 UNK         0.0600 
    204 H204        0.4776  -26.2365  -50.6392 H         1 UNK         0.0600 
    205 H205       -3.4309  -25.2770  -49.9706 H         1 UNK         0.3000 
    206 H206       -4.0657  -26.6935  -52.5285 H         1 UNK         0.0600 
    207 H207       -3.5663  -24.2564  -52.7776 H         1 UNK         0.0600 
    208 H208       -5.2536  -24.5956  -53.1267 H         1 UNK         0.0600 
    209 H209       -4.8061  -23.8853  -51.5783 H         1 UNK         0.0600 
    210 H210       -4.6716  -27.3033  -49.5371 H         1 UNK         0.3000 
    211 H211       -6.2477  -28.1617  -48.2711 H         1 UNK         0.0600 
    212 H212       -7.8012  -28.6696  -50.8636 H         1 UNK         0.0600 
    213 H213       -7.9994  -29.5274  -49.3413 H         1 UNK         0.0600 
    214 H214       -6.5038  -29.6905  -50.2440 H         1 UNK         0.0600 
    215 H215       -6.4182  -25.2663  -48.8455 H         1 UNK         0.3000 
    216 H216       -7.5463  -23.4617  -48.4026 H         1 UNK         0.0600 
    217 H217       -8.0787  -24.5739  -46.2227 H         1 UNK         0.0600 
    218 H218       -9.5973  -25.1654  -46.8977 H         1 UNK         0.0600 
    219 H219       -9.3257  -23.4399  -46.7112 H         1 UNK         0.0600 
    220 H220       -8.4178  -25.3260  -50.7755 H         1 UNK         0.3000 
    221 H221      -11.0389  -24.2184  -51.4948 H         1 UNK         0.0600 
    222 H222       -9.0181  -25.8634  -53.1116 H         1 UNK         0.0600 
    223 H223      -10.3597  -26.5261  -52.1789 H         1 UNK         0.0600 
    224 H224      -10.6768  -25.5101  -53.5777 H         1 UNK         0.0600 
    225 H225       -7.7178  -23.3384  -51.7661 H         1 UNK         0.3000 
    226 H226       -8.2265  -20.7741  -52.8641 H         1 UNK         0.0600 
    227 H227       -8.1377  -22.0729  -55.0443 H         1 UNK         0.0600 
    228 H228       -6.7939  -20.9624  -54.9002 H         1 UNK         0.0600 
    229 H229       -6.5470  -22.6846  -54.6060 H         1 UNK         0.0600 
    230 H230       -5.2137  -20.8253  -53.6622 H         1 UNK         0.3000 
    231 H231       -3.8639  -21.7396  -51.2803 H         1 UNK         0.0600 
    232 H232       -2.6558  -19.5227  -50.9717 H         1 UNK         0.0600 
    233 H233       -4.3521  -19.4460  -50.5216 H         1 UNK         0.0600 
    234 H234       -3.8198  -18.7709  -52.0591 H         1 UNK         0.0600 
    235 H235       -1.7145  -22.1683  -51.6873 H         1 UNK         0.3000 
    236 H236       -1.0926  -22.8292  -54.4226 H         1 UNK         0.0600 
    237 H237        0.8566  -23.9528  -53.3617 H         1 UNK         0.0600 
    238 H238        0.4972  -23.1656  -51.8279 H         1 UNK         0.0600 
    239 H239       -0.6307  -24.3366  -52.5112 H         1 UNK         0.0600 
    240 H240       -1.2832  -20.2441  -54.7228 H         1 UNK         0.3000 
    241 H241        1.1372  -18.7555  -54.2371 H         1 UNK         0.0600 
    242 H242        0.6319  -21.0451  -56.7318 H         1 UNK         0.3800 
    243 H243        1.8142  -20.3911  -57.8353 H         1 UNK         0.3800 
    244 H244        0.0252  -16.8775  -55.3181 H         1 UNK         0.0800 
    245 H245       -1.1549  -17.9221  -56.0631 H         1 UNK         0.0800 
    246 H246       -0.7844  -15.3745  -53.4265 H         1 UNK         0.0800 
    247 H247       -1.5390  -15.9790  -51.9720 H         1 UNK         0.0800 
@<TRIPOS>BOND
     1    1    2 1    
     2    1  127 1    
     3    1  128 1    
     4    1  129 1    
     5    2    3 2    
     6    2    4 am   BACKBONE|DICT|INTERRES
     7    4    5 1    
     8    4  130 1    
     9    5    6 1    
    10    5   65 1    
    11    5  131 1    
    12    6    7 1    
    13    6  132 1    
    14    6  133 1    
    15    7    8 1    
    16    8    9 1    
    17    8  134 1    
    18    8  135 1    
    19    9   10 ar   
    20    9   14 ar   
    21   10   11 ar   
    22   10  136 1    
    23   11   12 ar   
    24   11  126 1    
    25   12   13 ar   
    26   12  137 1    
    27   13   14 ar   
    28   13   15 1    
    29   14  138 1    
    30   15   16 1    
    31   15  139 1    
    32   15  140 1    
    33   16   17 1    
    34   17   18 1    
    35   17  141 1    
    36   17  142 1    
    37   18   19 1    
    38   18   67 1    
    39   18  143 1    
    40   19   20 am   BACKBONE|DICT|INTERRES
    41   19  144 1    
    42   20   21 2    
    43   20   22 1    
    44   22   23 1    
    45   22   24 1    
    46   22  145 1    
    47   23  146 1    
    48   23  147 1    
    49   23  148 1    
    50   24   25 am   BACKBONE|DICT|INTERRES
    51   24  149 1    
    52   25   26 2    
    53   25   27 1    
    54   27   28 1    
    55   27   29 1    
    56   27  150 1    
    57   28  151 1    
    58   28  152 1    
    59   28  153 1    
    60   29   30 am   BACKBONE|DICT|INTERRES
    61   29  154 1    
    62   30   31 2    
    63   30   32 1    
    64   32   33 1    
    65   32   34 1    
    66   32  155 1    
    67   33  156 1    
    68   33  157 1    
    69   33  158 1    
    70   34   35 am   BACKBONE|DICT|INTERRES
    71   34  159 1    
    72   35   36 2    
    73   35   37 1    
    74   37   38 1    
    75   37   39 1    
    76   37  160 1    
    77   38  161 1    
    78   38  162 1    
    79   38  163 1    
    80   39   40 am   BACKBONE|DICT|INTERRES
    81   39  164 1    
    82   40   41 2    
    83   40   42 1    
    84   42   43 1    
    85   42   44 1    
    86   42  165 1    
    87   43  166 1    
    88   43  167 1    
    89   43  168 1    
    90   44   45 am   BACKBONE|DICT|INTERRES
    91   44  169 1    
    92   45   46 2    
    93   45   47 1    
    94   47   48 1    
    95   47   49 1    
    96   47  170 1    
    97   48  171 1    
    98   48  172 1    
    99   48  173 1    
   100   49   50 am   BACKBONE|DICT|INTERRES
   101   49  174 1    
   102   50   51 2    
   103   50   52 1    
   104   52   53 1    
   105   52   54 1    
   106   52  175 1    
   107   53  176 1    
   108   53  177 1    
   109   53  178 1    
   110   54   55 am   BACKBONE|DICT|INTERRES
   111   54  179 1    
   112   55   56 2    
   113   55   57 1    
   114   57   58 1    
   115   57   59 1    
   116   57  180 1    
   117   58  181 1    
   118   58  182 1    
   119   58  183 1    
   120   59   60 am   BACKBONE|DICT|INTERRES
   121   59  184 1    
   122   60   61 2    
   123   60   62 1    
   124   62   63 1    
   125   62   64 1    
   126   62  185 1    
   127   63  186 1    
   128   63  187 1    
   129   63  188 1    
   130   64   65 am   BACKBONE|DICT|INTERRES
   131   64  189 1    
   132   65   66 2    
   133   67   68 2    
   134   67   69 am   BACKBONE|DICT|INTERRES
   135   69   70 1    
   136   69  190 1    
   137   70   71 1    
   138   70   72 1    
   139   70  191 1    
   140   71  192 1    
   141   71  193 1    
   142   71  194 1    
   143   72   73 2    
   144   72   74 am   BACKBONE|DICT|INTERRES
   145   74   75 1    
   146   74  195 1    
   147   75   76 1    
   148   75   77 1    
   149   75  196 1    
   150   76  197 1    
   151   76  198 1    
   152   76  199 1    
   153   77   78 2    
   154   77   79 am   BACKBONE|DICT|INTERRES
   155   79   80 1    
   156   79  200 1    
   157   80   81 1    
   158   80   82 1    
   159   80  201 1    
   160   81  202 1    
   161   81  203 1    
   162   81  204 1    
   163   82   83 2    
   164   82   84 am   BACKBONE|DICT|INTERRES
   165   84   85 1    
   166   84  205 1    
   167   85   86 1    
   168   85   87 1    
   169   85  206 1    
   170   86  207 1    
   171   86  208 1    
   172   86  209 1    
   173   87   88 2    
   174   87   89 am   BACKBONE|DICT|INTERRES
   175   89   90 1    
   176   89  210 1    
   177   90   91 1    
   178   90   92 1    
   179   90  211 1    
   180   91  212 1    
   181   91  213 1    
   182   91  214 1    
   183   92   93 2    
   184   92   94 am   BACKBONE|DICT|INTERRES
   185   94   95 1    
   186   94  215 1    
   187   95   96 1    
   188   95   97 1    
   189   95  216 1    
   190   96  217 1    
   191   96  218 1    
   192   96  219 1    
   193   97   98 2    
   194   97   99 am   BACKBONE|DICT|INTERRES
   195   99  100 1    
   196   99  220 1    
   197  100  101 1    
   198  100  102 1    
   199  100  221 1    
   200  101  222 1    
   201  101  223 1    
   202  101  224 1    
   203  102  103 2    
   204  102  104 am   BACKBONE|DICT|INTERRES
   205  104  105 1    
   206  104  225 1    
   207  105  106 1    
   208  105  107 1    
   209  105  226 1    
   210  106  227 1    
   211  106  228 1    
   212  106  229 1    
   213  107  108 2    
   214  107  109 am   BACKBONE|DICT|INTERRES
   215  109  110 1    
   216  109  230 1    
   217  110  111 1    
   218  110  112 1    
   219  110  231 1    
   220  111  232 1    
   221  111  233 1    
   222  111  234 1    
   223  112  113 2    
   224  112  114 am   BACKBONE|DICT|INTERRES
   225  114  115 1    
   226  114  235 1    
   227  115  116 1    
   228  115  117 1    
   229  115  236 1    
   230  116  237 1    
   231  116  238 1    
   232  116  239 1    
   233  117  118 2    
   234  117  119 am   BACKBONE|DICT|INTERRES
   235  119  120 1    
   236  119  240 1    
   237  120  121 1    
   238  120  124 1    
   239  120  241 1    
   240  121  122 am   BACKBONE|DICT|INTERRES
   241  121  123 2    
   242  122  242 1    
   243  122  243 1    
   244  124  125 1    
   245  124  244 1    
   246  124  245 1    
   247  125  126 1    
   248  126  246 1    
   249  126  247 1    
@<TRIPOS>SUBSTRUCTURE
     1 UNK         1 GROUP             0       ****    0 ROOT    
