@<TRIPOS>MOLECULE
3R540
247   249    1
SMALL
USER_CHARGES


@<TRIPOS>ATOM
      1 CA          1.5566  -13.3009  -50.5415 C.3       0 UNK        -0.1800 
      2 C           0.8027  -13.5520  -49.2445 C.2       0 UNK         0.5000 
      3 O           1.2515  -14.3421  -48.4173 O.2       0 UNK        -0.5000 
      4 N          -0.3399  -12.8795  -49.0545 N.am      1 UNK        -0.5000 
      5 CA         -1.2270  -13.0351  -47.8901 C.3       1 UNK         0.1400 
      6 C6         -2.5983  -12.3490  -48.1347 C.3       23 UNK        -0.0398 
      7 S7         -4.0056  -13.2945  -47.4531 S.3       23 UNK        -0.2404 
      8 C8         -4.8017  -13.9440  -48.9618 C.3       23 UNK        -0.0205 
      9 C9         -4.2250  -15.2870  -49.3910 C.ar      23 UNK        -0.0193 
     10 C10        -2.9409  -15.3699  -49.9334 C.ar      23 UNK        -0.1150 
     11 C11        -2.3944  -16.5969  -50.3178 C.ar      23 UNK        -0.0193 
     12 C12        -3.1755  -17.7540  -50.1837 C.ar      23 UNK        -0.1150 
     13 C13        -4.4766  -17.6867  -49.6736 C.ar      23 UNK        -0.0193 
     14 C14        -4.9900  -16.4493  -49.2724 C.ar      23 UNK        -0.1150 
     15 C15        -5.3407  -18.9434  -49.6314 C.3       23 UNK        -0.0205 
     16 S16        -6.3275  -19.1374  -48.1087 S.3       23 UNK        -0.2404 
     17 C17        -5.0623  -19.4345  -46.8304 C.3       23 UNK        -0.0398 
     18 CA         -4.4067  -20.8327  -46.9737 C.3       11 UNK         0.1400 
     19 N          -3.1652  -20.7621  -47.7495 N.am      11 UNK        -0.5000 
     20 C          -2.4417  -21.8122  -48.1549 C.2       10 UNK         0.5000 
     21 O          -2.7780  -22.9815  -47.9766 O.2       10 UNK        -0.5000 
     22 CA         -1.0972  -21.5166  -48.8397 C.3       10 UNK         0.1400 
     23 CB         -1.2731  -21.6029  -50.3598 C.3       10 UNK        -0.1800 
     24 N          -0.4915  -20.2274  -48.4784 N.am      10 UNK        -0.5000 
     25 C          -0.1730  -19.8483  -47.2323 C.2       9 UNK         0.5000 
     26 O          -0.4620  -20.5061  -46.2278 O.2       9 UNK        -0.5000 
     27 CA          0.5499  -18.4991  -47.0766 C.3       9 UNK         0.1400 
     28 CB         -0.4639  -17.3466  -47.0116 C.3       9 UNK        -0.1800 
     29 N           1.3495  -18.5056  -45.8530 N.am      9 UNK        -0.5000 
     30 C           2.5259  -19.1357  -45.7242 C.2       8 UNK         0.5000 
     31 O           3.1334  -19.6329  -46.6733 O.2       8 UNK        -0.5000 
     32 CA          3.1191  -19.2600  -44.3071 C.3       8 UNK         0.1400 
     33 CB          4.5101  -18.6115  -44.2147 C.3       8 UNK        -0.1800 
     34 N           2.2446  -18.6706  -43.2908 N.am      8 UNK        -0.5000 
     35 C           1.5024  -19.3739  -42.4243 C.2       7 UNK         0.5000 
     36 O           1.5186  -20.6030  -42.3516 O.2       7 UNK        -0.5000 
     37 CA          0.5770  -18.5837  -41.4778 C.3       7 UNK         0.1400 
     38 CB          1.2259  -18.4302  -40.0951 C.3       7 UNK        -0.1800 
     39 N           0.1945  -17.2672  -41.9976 N.am      7 UNK        -0.5000 
     40 C          -0.6599  -17.0894  -43.0166 C.2       6 UNK         0.5000 
     41 O          -1.1872  -18.0265  -43.6135 O.2       6 UNK        -0.5000 
     42 CA         -0.9561  -15.6567  -43.4987 C.3       6 UNK         0.1400 
     43 CB         -2.4722  -15.3797  -43.5808 C.3       6 UNK        -0.1800 
     44 N          -0.2347  -14.6081  -42.7722 N.am      6 UNK        -0.5000 
     45 C          -0.4714  -14.0995  -41.5559 C.2       5 UNK         0.5000 
     46 O          -1.3961  -14.4501  -40.8219 O.2       5 UNK        -0.5000 
     47 CA          0.5440  -13.0322  -41.0893 C.3       5 UNK         0.1400 
     48 CB          0.3862  -12.6442  -39.6041 C.3       5 UNK        -0.1800 
     49 N           1.9284  -13.4217  -41.3902 N.am      5 UNK        -0.5000 
     50 C           2.5645  -14.5174  -40.9446 C.2       4 UNK         0.5000 
     51 O           2.0717  -15.3099  -40.1427 O.2       4 UNK        -0.5000 
     52 CA          3.9631  -14.7917  -41.5402 C.3       4 UNK         0.1400 
     53 CB          4.4528  -16.2332  -41.2946 C.3       4 UNK        -0.1800 
     54 N           4.0478  -14.4577  -42.9662 N.am      4 UNK        -0.5000 
     55 C           3.2814  -14.9311  -43.9596 C.2       3 UNK         0.5000 
     56 O           2.4043  -15.7862  -43.8158 O.2       3 UNK        -0.5000 
     57 CA          3.5095  -14.2913  -45.3411 C.3       3 UNK         0.1400 
     58 CB          3.5351  -15.3569  -46.4485 C.3       3 UNK        -0.1800 
     59 N           2.5041  -13.2748  -45.6698 N.am      3 UNK        -0.5000 
     60 C           2.2079  -12.1826  -44.9437 C.2       2 UNK         0.5000 
     61 O           2.7122  -11.9319  -43.8480 O.2       2 UNK        -0.5000 
     62 CA          1.1971  -11.1748  -45.5282 C.3       2 UNK         0.1400 
     63 CB          1.9178   -9.8918  -45.9707 C.3       2 UNK        -0.1800 
     64 N           0.4316  -11.6921  -46.6608 N.am      2 UNK        -0.5000 
     65 C          -0.5831  -12.5614  -46.5662 C.2       1 UNK         0.5000 
     66 O          -0.9980  -12.9949  -45.4939 O.2       1 UNK        -0.5000 
     67 C          -4.2239  -21.5319  -45.6076 C.2       11 UNK         0.5000 
     68 O          -5.1585  -22.1871  -45.1455 O.2       11 UNK        -0.5000 
     69 N          -3.0283  -21.4220  -45.0139 N.am      12 UNK        -0.5000 
     70 CA         -2.6451  -22.1358  -43.7988 C.3       12 UNK         0.1400 
     71 CB         -1.9868  -21.1526  -42.8222 C.3       12 UNK        -0.1800 
     72 C          -1.6850  -23.2894  -44.1259 C.2       12 UNK         0.5000 
     73 O          -1.8886  -24.4022  -43.6409 O.2       12 UNK        -0.5000 
     74 N          -0.6595  -23.0098  -44.9428 N.am      13 UNK        -0.5000 
     75 CA          0.4580  -23.9153  -45.2172 C.3       13 UNK         0.1400 
     76 CB          1.5948  -23.1188  -45.8762 C.3       13 UNK        -0.1800 
     77 C           0.0918  -25.1439  -46.0706 C.2       13 UNK         0.5000 
     78 O           0.7554  -26.1744  -45.9485 O.2       13 UNK        -0.5000 
     79 N          -0.9418  -25.0205  -46.9117 N.am      14 UNK        -0.5000 
     80 CA         -1.4297  -26.0729  -47.8051 C.3       14 UNK         0.1400 
     81 CB         -1.0393  -25.7162  -49.2518 C.3       14 UNK        -0.1800 
     82 C          -2.9497  -26.2753  -47.6664 C.2       14 UNK         0.5000 
     83 O          -3.5508  -26.9093  -48.5328 O.2       14 UNK        -0.5000 
     84 N          -3.5609  -25.7047  -46.6151 N.am      15 UNK        -0.5000 
     85 CA         -5.0020  -25.7116  -46.3223 C.3       15 UNK         0.1400 
     86 CB         -5.4405  -27.1139  -45.8530 C.3       15 UNK        -0.1800 
     87 C          -5.8750  -25.1701  -47.4806 C.2       15 UNK         0.5000 
     88 O          -6.9897  -25.6501  -47.6921 O.2       15 UNK        -0.5000 
     89 N          -5.3283  -24.1951  -48.2215 N.am      16 UNK        -0.5000 
     90 CA         -5.8760  -23.5389  -49.4121 C.3       16 UNK         0.1400 
     91 CB         -7.2424  -22.8809  -49.1267 C.3       16 UNK        -0.1800 
     92 C          -5.9008  -24.4208  -50.6779 C.2       16 UNK         0.5000 
     93 O          -6.4678  -23.9955  -51.6846 O.2       16 UNK        -0.5000 
     94 N          -5.2523  -25.5964  -50.6582 N.am      17 UNK        -0.5000 
     95 CA         -5.1504  -26.4856  -51.8225 C.3       17 UNK         0.1400 
     96 CB         -4.6518  -27.8681  -51.3771 C.3       17 UNK        -0.1800 
     97 C          -4.2431  -25.9226  -52.9350 C.2       17 UNK         0.5000 
     98 O          -4.4496  -26.2429  -54.1057 O.2       17 UNK        -0.5000 
     99 N          -3.2724  -25.0837  -52.5490 N.am      18 UNK        -0.5000 
    100 CA        -2.3228  -24.4134  -53.4393 C.3       18 UNK         0.1400 
    101 CB        -0.8929  -24.6871  -52.9399 C.3       18 UNK        -0.1800 
    102 C         -2.6103  -22.9028  -53.5561 C.2       18 UNK         0.5000 
    103 O         -1.7283  -22.1499  -53.9696 O.2       18 UNK        -0.5000 
    104 N         -3.8311  -22.4663  -53.2055 N.am      19 UNK        -0.5000 
    105 CA        -4.2626  -21.0618  -53.2223 C.3       19 UNK         0.1400 
    106 CB        -5.6999  -20.9616  -52.6932 C.3       19 UNK        -0.1800 
    107 C         -4.1501  -20.3754  -54.5986 C.2       19 UNK         0.5000 
    108 O         -3.8967  -19.1730  -54.6532 O.2       19 UNK        -0.5000 
    109 N         -4.3041  -21.1537  -55.6785 N.am      20 UNK        -0.5000 
    110 CA        -4.1426  -20.6998  -57.0612 C.3       20 UNK         0.1400 
    111 CB        -4.7630  -21.7434  -58.0026 C.3       20 UNK        -0.1800 
    112 C         -2.6743  -20.4303  -57.4504 C.2       20 UNK         0.5000 
    113 O         -2.4283  -19.6045  -58.3303 O.2       20 UNK        -0.5000 
    114 N         -1.7306  -21.1278  -56.8023 N.am      21 UNK        -0.5000 
    115 CA        -0.2893  -20.9643  -57.0073 C.3       21 UNK         0.1400 
    116 CB         0.4045  -22.3136  -56.7603 C.3       21 UNK        -0.1800 
    117 C          0.3076  -19.8767  -56.0940 C.2       21 UNK         0.5000 
    118 O          1.3592  -19.3241  -56.4193 O.2       21 UNK        -0.5000 
    119 N         -0.3637  -19.6066  -54.9680 N.am      22 UNK        -0.5000 
    120 CA        -0.0117  -18.5986  -53.9602 C.3       22 UNK         0.1400 
    121 C          0.0535  -17.1489  -54.5218 C.2       22 UNK         0.5000 
    122 N          1.0104  -16.3465  -54.0749 N.am      22 UNK        -0.7600 
    123 O         -0.7761  -16.7344  -55.3279 O.2       22 UNK        -0.5000 
    124 C124       -0.9810  -18.6917  -52.7545 C.3       23 UNK        -0.0398 
    125 S125       -0.1997  -18.2210  -51.1750 S.3       23 UNK        -0.2404 
    126 C126       -0.9639  -16.5936  -50.8654 C.3       23 UNK        -0.0205 
    127 H127        1.6416  -14.2280  -51.1084 H         1 UNK         0.0600 
    128 H128        2.5615  -12.9377  -50.3265 H         1 UNK         0.0600 
    129 H129        1.0534  -12.5638  -51.1675 H         1 UNK         0.0600 
    130 H130       -0.6458  -12.2242  -49.7598 H         1 UNK         0.3000 
    131 H131       -1.3905  -14.1095  -47.7779 H         1 UNK         0.0600 
    132 H132       -2.6233  -11.3402  -47.7178 H         1 UNK         0.0800 
    133 H133       -2.7703  -12.2083  -49.2020 H         1 UNK         0.0800 
    134 H134       -4.7250  -13.2275  -49.7805 H         1 UNK         0.0800 
    135 H135       -5.8691  -14.0451  -48.7598 H         1 UNK         0.0800 
    136 H136       -2.3567  -14.4711  -50.0549 H         1 UNK         0.1150 
    137 H137       -2.7899  -18.7107  -50.4961 H         1 UNK         0.1150 
    138 H138       -5.9965  -16.3884  -48.8833 H         1 UNK         0.1150 
    139 H139       -6.0334  -18.8958  -50.4718 H         1 UNK         0.0800 
    140 H140       -4.7401  -19.8395  -49.7873 H         1 UNK         0.0800 
    141 H141       -5.5769  -19.3292  -45.8731 H         1 UNK         0.0800 
    142 H142       -4.3210  -18.6338  -46.8490 H         1 UNK         0.0800 
    143 H143       -5.0863  -21.4778  -47.5290 H         1 UNK         0.0600 
    144 H144       -2.7976  -19.8395  -47.9266 H         1 UNK         0.3000 
    145 H145       -0.4024  -22.3008  -48.5345 H         1 UNK         0.0600 
    146 H146       -0.3255  -21.4744  -50.8833 H         1 UNK         0.0600 
    147 H147       -1.6754  -22.5733  -50.6479 H         1 UNK         0.0600 
    148 H148       -1.9703  -20.8501  -50.7222 H         1 UNK         0.0600 
    149 H149       -0.2422  -19.6219  -49.2503 H         1 UNK         0.3000 
    150 H150        1.2062  -18.3414  -47.9352 H         1 UNK         0.0600 
    151 H151       -1.0309  -17.2746  -47.9385 H         1 UNK         0.0600 
    152 H152        0.0344  -16.3882  -46.8636 H         1 UNK         0.0600 
    153 H153       -1.1838  -17.4824  -46.2048 H         1 UNK         0.0600 
    154 H154        0.8776  -18.2100  -45.0110 H         1 UNK         0.3000 
    155 H155        3.2475  -20.3284  -44.1235 H         1 UNK         0.0600 
    156 H156        4.4702  -17.5375  -44.3829 H         1 UNK         0.0600 
    157 H157        5.1919  -19.0343  -44.9534 H         1 UNK         0.0600 
    158 H158        4.9543  -18.7781  -43.2334 H         1 UNK         0.0600 
    159 H159        2.1754  -17.6559  -43.2983 H         1 UNK         0.3000 
    160 H160       -0.3360  -19.1681  -41.3484 H         1 UNK         0.0600 
    161 H161        2.1957  -17.9374  -40.1563 H         1 UNK         0.0600 
    162 H162        1.3876  -19.4049  -39.6332 H         1 UNK         0.0600 
    163 H163        0.5948  -17.8507  -39.4210 H         1 UNK         0.0600 
    164 H164        0.6163  -16.4592  -41.5582 H         1 UNK         0.3000 
    165 H165       -0.5662  -15.6054  -44.5158 H         1 UNK         0.0600 
    166 H166       -2.6753  -14.3577  -43.8996 H         1 UNK         0.0600 
    167 H167       -2.9680  -15.5390  -42.6233 H         1 UNK         0.0600 
    168 H168       -2.9475  -16.0427  -44.3046 H         1 UNK         0.0600 
    169 H169        0.5940  -14.2835  -43.2502 H         1 UNK         0.3000 
    170 H170        0.3417  -12.1402  -41.6841 H         1 UNK         0.0600 
    171 H171       -0.6062  -12.2348  -39.4125 H         1 UNK         0.0600 
    172 H172        0.5180  -13.5003  -38.9419 H         1 UNK         0.0600 
    173 H173        1.1116  -11.8831  -39.3168 H         1 UNK         0.0600 
    174 H174        2.3988  -12.8515  -42.0877 H         1 UNK         0.3000 
    175 H175        4.6481  -14.1183  -41.0235 H         1 UNK         0.0600 
    176 H176        3.7850  -16.9672  -41.7419 H         1 UNK         0.0600 
    177 H177        5.4474  -16.3887  -41.7122 H         1 UNK         0.0600 
    178 H178        4.5112  -16.4517  -40.2278 H         1 UNK         0.0600 
    179 H179        4.6975  -13.7168  -43.1910 H         1 UNK         0.3000 
    180 H180        4.4831  -13.7976  -45.3372 H         1 UNK         0.0600 
    181 H181        2.5782  -15.8733  -46.5343 H         1 UNK         0.0600 
    182 H182        4.2990  -16.1097  -46.2548 H         1 UNK         0.0600 
    183 H183        3.7622  -14.9128  -47.4176 H         1 UNK         0.0600 
    184 H184        2.0089  -13.4203  -46.5413 H         1 UNK         0.3000 
    185 H185        0.5006  -10.9142  -44.7283 H         1 UNK         0.0600 
    186 H186        2.4730   -9.4481  -45.1431 H         1 UNK         0.0600 
    187 H187        2.6281  -10.0862  -46.7753 H         1 UNK         0.0600 
    188 H188        1.2087   -9.1417  -46.3216 H         1 UNK         0.0600 
    189 H189        0.7189  -11.3900  -47.5802 H         1 UNK         0.3000 
    190 H190       -2.2943  -20.8923  -45.4725 H         1 UNK         0.3000 
    191 H191       -3.5208  -22.5603  -43.3033 H         1 UNK         0.0600 
    192 H192       -1.6736  -21.6548  -41.9061 H         1 UNK         0.0600 
    193 H193       -2.6741  -20.3544  -42.5416 H         1 UNK         0.0600 
    194 H194       -1.1039  -20.6906  -43.2636 H         1 UNK         0.0600 
    195 H195       -0.5694  -22.0669  -45.3158 H         1 UNK         0.3000 
    196 H196        0.8241  -24.2872  -44.2579 H         1 UNK         0.0600 
    197 H197        1.2955  -22.7088  -46.8407 H         1 UNK         0.0600 
    198 H198        1.9099  -22.2883  -45.2441 H         1 UNK         0.0600 
    199 H199        2.4690  -23.7488  -46.0444 H         1 UNK         0.0600 
    200 H200       -1.4402  -24.1394  -46.9644 H         1 UNK         0.3000 
    201 H201       -0.9733  -27.0320  -47.5534 H         1 UNK         0.0600 
    202 H202       -1.5292  -24.8013  -49.5836 H         1 UNK         0.0600 
    203 H203       -1.3205  -26.5095  -49.9455 H         1 UNK         0.0600 
    204 H204        0.0370  -25.5726  -49.3461 H         1 UNK         0.0600 
    205 H205       -2.9814  -25.2154  -45.9480 H         1 UNK         0.3000 
    206 H206       -5.1475  -25.0231  -45.4887 H         1 UNK         0.0600 
    207 H207       -4.8246  -27.4621  -45.0238 H         1 UNK         0.0600 
    208 H208       -6.4744  -27.1070  -45.5060 H         1 UNK         0.0600 
    209 H209       -5.3688  -27.8485  -46.6558 H         1 UNK         0.0600 
    210 H210       -4.3854  -23.8995  -47.9776 H         1 UNK         0.3000 
    211 H211       -5.1761  -22.7342  -49.6399 H         1 UNK         0.0600 
    212 H212       -7.5285  -22.2094  -49.9370 H         1 UNK         0.0600 
    213 H213       -7.2200  -22.2893  -48.2119 H         1 UNK         0.0600 
    214 H214       -8.0360  -23.6213  -49.0262 H         1 UNK         0.0600 
    215 H215       -4.8008  -25.9109  -49.8050 H         1 UNK         0.3000 
    216 H216       -6.1512  -26.6088  -52.2419 H         1 UNK         0.0600 
    217 H217       -3.6232  -27.8286  -51.0169 H         1 UNK         0.0600 
    218 H218       -4.6788  -28.5765  -52.2059 H         1 UNK         0.0600 
    219 H219       -5.2727  -28.2758  -50.5792 H         1 UNK         0.0600 
    220 H220       -3.1895  -24.8798  -51.5641 H         1 UNK         0.3000 
    221 H221       -2.4008  -24.8182  -54.4500 H         1 UNK         0.0600 
    222 H222       -0.6972  -25.7578  -52.8799 H         1 UNK         0.0600 
    223 H223       -0.7160  -24.2613  -51.9531 H         1 UNK         0.0600 
    224 H224       -0.1504  -24.2629  -53.6171 H         1 UNK         0.0600 
    225 H225       -4.5190  -23.1448  -52.9080 H         1 UNK         0.3000 
    226 H226       -3.6161  -20.5118  -52.5368 H         1 UNK         0.0600 
    227 H227       -6.3886  -21.5673  -53.2833 H         1 UNK         0.0600 
    228 H228       -5.7635  -21.2942  -51.6581 H         1 UNK         0.0600 
    229 H229       -6.0597  -19.9324  -52.7247 H         1 UNK         0.0600 
    230 H230       -4.5207  -22.1300  -55.5411 H         1 UNK         0.3000 
    231 H231       -4.6923  -19.7637  -57.1812 H         1 UNK         0.0600 
    232 H232       -4.2650  -22.7101  -57.9169 H         1 UNK         0.0600 
    233 H233       -4.6858  -21.4256  -59.0433 H         1 UNK         0.0600 
    234 H234       -5.8216  -21.8898  -57.7870 H         1 UNK         0.0600 
    235 H235       -2.0064  -21.7506  -56.0542 H         1 UNK         0.3000 
    236 H236       -0.0977  -20.6720  -58.0419 H         1 UNK         0.0600 
    237 H237        0.0132  -23.0855  -57.4230 H         1 UNK         0.0600 
    238 H238        1.4769  -22.2396  -56.9454 H         1 UNK         0.0600 
    239 H239        0.2731  -22.6546  -55.7329 H         1 UNK         0.0600 
    240 H240       -1.1933  -20.1521  -54.7799 H         1 UNK         0.3000 
    241 H241        0.9895  -18.8711  -53.6205 H         1 UNK         0.0600 
    242 H242        1.6934  -16.6644  -53.4053 H         1 UNK         0.3800 
    243 H243        1.0608  -15.4027  -54.4248 H         1 UNK         0.3800 
    244 H244       -1.3079  -19.7230  -52.6297 H         1 UNK         0.0800 
    245 H245       -1.8935  -18.1168  -52.9252 H         1 UNK         0.0800 
    246 H246       -0.9303  -15.9993  -51.7794 H         1 UNK         0.0800 
    247 H247       -0.3289  -16.0804  -50.1435 H         1 UNK         0.0800 
@<TRIPOS>BOND
     1    1    2 1    
     2    1  127 1    
     3    1  128 1    
     4    1  129 1    
     5    2    3 2    
     6    2    4 am   BACKBONE|DICT|INTERRES
     7    4    5 1    
     8    4  130 1    
     9    5    6 1    
    10    5   65 1    
    11    5  131 1    
    12    6    7 1    
    13    6  132 1    
    14    6  133 1    
    15    7    8 1    
    16    8    9 1    
    17    8  134 1    
    18    8  135 1    
    19    9   10 ar   
    20    9   14 ar   
    21   10   11 ar   
    22   10  136 1    
    23   11   12 ar   
    24   11  126 1    
    25   12   13 ar   
    26   12  137 1    
    27   13   14 ar   
    28   13   15 1    
    29   14  138 1    
    30   15   16 1    
    31   15  139 1    
    32   15  140 1    
    33   16   17 1    
    34   17   18 1    
    35   17  141 1    
    36   17  142 1    
    37   18   19 1    
    38   18   67 1    
    39   18  143 1    
    40   19   20 am   BACKBONE|DICT|INTERRES
    41   19  144 1    
    42   20   21 2    
    43   20   22 1    
    44   22   23 1    
    45   22   24 1    
    46   22  145 1    
    47   23  146 1    
    48   23  147 1    
    49   23  148 1    
    50   24   25 am   BACKBONE|DICT|INTERRES
    51   24  149 1    
    52   25   26 2    
    53   25   27 1    
    54   27   28 1    
    55   27   29 1    
    56   27  150 1    
    57   28  151 1    
    58   28  152 1    
    59   28  153 1    
    60   29   30 am   BACKBONE|DICT|INTERRES
    61   29  154 1    
    62   30   31 2    
    63   30   32 1    
    64   32   33 1    
    65   32   34 1    
    66   32  155 1    
    67   33  156 1    
    68   33  157 1    
    69   33  158 1    
    70   34   35 am   BACKBONE|DICT|INTERRES
    71   34  159 1    
    72   35   36 2    
    73   35   37 1    
    74   37   38 1    
    75   37   39 1    
    76   37  160 1    
    77   38  161 1    
    78   38  162 1    
    79   38  163 1    
    80   39   40 am   BACKBONE|DICT|INTERRES
    81   39  164 1    
    82   40   41 2    
    83   40   42 1    
    84   42   43 1    
    85   42   44 1    
    86   42  165 1    
    87   43  166 1    
    88   43  167 1    
    89   43  168 1    
    90   44   45 am   BACKBONE|DICT|INTERRES
    91   44  169 1    
    92   45   46 2    
    93   45   47 1    
    94   47   48 1    
    95   47   49 1    
    96   47  170 1    
    97   48  171 1    
    98   48  172 1    
    99   48  173 1    
   100   49   50 am   BACKBONE|DICT|INTERRES
   101   49  174 1    
   102   50   51 2    
   103   50   52 1    
   104   52   53 1    
   105   52   54 1    
   106   52  175 1    
   107   53  176 1    
   108   53  177 1    
   109   53  178 1    
   110   54   55 am   BACKBONE|DICT|INTERRES
   111   54  179 1    
   112   55   56 2    
   113   55   57 1    
   114   57   58 1    
   115   57   59 1    
   116   57  180 1    
   117   58  181 1    
   118   58  182 1    
   119   58  183 1    
   120   59   60 am   BACKBONE|DICT|INTERRES
   121   59  184 1    
   122   60   61 2    
   123   60   62 1    
   124   62   63 1    
   125   62   64 1    
   126   62  185 1    
   127   63  186 1    
   128   63  187 1    
   129   63  188 1    
   130   64   65 am   BACKBONE|DICT|INTERRES
   131   64  189 1    
   132   65   66 2    
   133   67   68 2    
   134   67   69 am   BACKBONE|DICT|INTERRES
   135   69   70 1    
   136   69  190 1    
   137   70   71 1    
   138   70   72 1    
   139   70  191 1    
   140   71  192 1    
   141   71  193 1    
   142   71  194 1    
   143   72   73 2    
   144   72   74 am   BACKBONE|DICT|INTERRES
   145   74   75 1    
   146   74  195 1    
   147   75   76 1    
   148   75   77 1    
   149   75  196 1    
   150   76  197 1    
   151   76  198 1    
   152   76  199 1    
   153   77   78 2    
   154   77   79 am   BACKBONE|DICT|INTERRES
   155   79   80 1    
   156   79  200 1    
   157   80   81 1    
   158   80   82 1    
   159   80  201 1    
   160   81  202 1    
   161   81  203 1    
   162   81  204 1    
   163   82   83 2    
   164   82   84 am   BACKBONE|DICT|INTERRES
   165   84   85 1    
   166   84  205 1    
   167   85   86 1    
   168   85   87 1    
   169   85  206 1    
   170   86  207 1    
   171   86  208 1    
   172   86  209 1    
   173   87   88 2    
   174   87   89 am   BACKBONE|DICT|INTERRES
   175   89   90 1    
   176   89  210 1    
   177   90   91 1    
   178   90   92 1    
   179   90  211 1    
   180   91  212 1    
   181   91  213 1    
   182   91  214 1    
   183   92   93 2    
   184   92   94 am   BACKBONE|DICT|INTERRES
   185   94   95 1    
   186   94  215 1    
   187   95   96 1    
   188   95   97 1    
   189   95  216 1    
   190   96  217 1    
   191   96  218 1    
   192   96  219 1    
   193   97   98 2    
   194   97   99 am   BACKBONE|DICT|INTERRES
   195   99  100 1    
   196   99  220 1    
   197  100  101 1    
   198  100  102 1    
   199  100  221 1    
   200  101  222 1    
   201  101  223 1    
   202  101  224 1    
   203  102  103 2    
   204  102  104 am   BACKBONE|DICT|INTERRES
   205  104  105 1    
   206  104  225 1    
   207  105  106 1    
   208  105  107 1    
   209  105  226 1    
   210  106  227 1    
   211  106  228 1    
   212  106  229 1    
   213  107  108 2    
   214  107  109 am   BACKBONE|DICT|INTERRES
   215  109  110 1    
   216  109  230 1    
   217  110  111 1    
   218  110  112 1    
   219  110  231 1    
   220  111  232 1    
   221  111  233 1    
   222  111  234 1    
   223  112  113 2    
   224  112  114 am   BACKBONE|DICT|INTERRES
   225  114  115 1    
   226  114  235 1    
   227  115  116 1    
   228  115  117 1    
   229  115  236 1    
   230  116  237 1    
   231  116  238 1    
   232  116  239 1    
   233  117  118 2    
   234  117  119 am   BACKBONE|DICT|INTERRES
   235  119  120 1    
   236  119  240 1    
   237  120  121 1    
   238  120  124 1    
   239  120  241 1    
   240  121  122 am   BACKBONE|DICT|INTERRES
   241  121  123 2    
   242  122  242 1    
   243  122  243 1    
   244  124  125 1    
   245  124  244 1    
   246  124  245 1    
   247  125  126 1    
   248  126  246 1    
   249  126  247 1    
@<TRIPOS>SUBSTRUCTURE
     1 UNK         1 GROUP             0       ****    0 ROOT    
