@<TRIPOS>MOLECULE
3R540
247   249    1
SMALL
USER_CHARGES


@<TRIPOS>ATOM
      1 CA         -0.7742   -9.4987  -48.3979 C.3       0 UNK        -0.1800 
      2 C           0.1821  -10.2413  -47.4767 C.2       0 UNK         0.5000 
      3 O           0.3288   -9.8667  -46.3133 O.2       0 UNK        -0.5000 
      4 N           0.8202  -11.3063  -47.9813 N.am      1 UNK        -0.5000 
      5 CA          1.7929  -12.1375  -47.2565 C.3       1 UNK         0.1400 
      6 C6          2.5033  -13.1494  -48.1880 C.3       23 UNK        -0.0398 
      7 S7          1.3723  -14.3226  -49.0148 S.3       23 UNK        -0.2404 
      8 C8          2.5757  -15.5003  -49.7121 C.3       23 UNK        -0.0205 
      9 C9          1.9295  -16.8040  -50.1660 C.ar      23 UNK        -0.0193 
     10 C10         0.8490  -16.7903  -51.0524 C.ar      23 UNK        -0.1150 
     11 C11         0.2782  -17.9841  -51.4993 C.ar      23 UNK        -0.0193 
     12 C12         0.8121  -19.2035  -51.0733 C.ar      23 UNK        -0.1150 
     13 C13         1.8918  -19.2372  -50.1830 C.ar      23 UNK        -0.0193 
     14 C14         2.4401  -18.0318  -49.7307 C.ar      23 UNK        -0.1150 
     15 C15         2.5099  -20.5618  -49.7386 C.3       23 UNK        -0.0205 
     16 S16         1.2944  -21.8420  -49.2780 S.3       23 UNK        -0.2404 
     17 C17         0.4692  -21.0437  -47.8627 C.3       23 UNK        -0.0398 
     18 CA         -0.6087  -21.9330  -47.1968 C.3       11 UNK         0.1400 
     19 N          -0.9529  -21.4385  -45.8558 N.am      11 UNK        -0.5000 
     20 C          -1.9104  -21.9095  -45.0415 C.2       10 UNK         0.5000 
     21 O          -2.6646  -22.8364  -45.3335 O.2       10 UNK        -0.5000 
     22 CA         -2.0860  -21.2124  -43.6813 C.3       10 UNK         0.1400 
     23 CB         -1.2226  -21.8981  -42.6128 C.3       10 UNK        -0.1800 
     24 N          -1.7772  -19.7831  -43.7159 N.am      10 UNK        -0.5000 
     25 C          -2.4626  -18.8641  -44.4117 C.2       9 UNK         0.5000 
     26 O          -3.4526  -19.1189  -45.0979 O.2       9 UNK        -0.5000 
     27 CA         -1.9219  -17.4237  -44.3560 C.3       9 UNK         0.1400 
     28 CB         -2.3156  -16.7438  -43.0347 C.3       9 UNK        -0.1800 
     29 N          -0.4678  -17.3839  -44.5256 N.am      9 UNK        -0.5000 
     30 C           0.1628  -17.7104  -45.6639 C.2       8 UNK         0.5000 
     31 O          -0.4216  -17.9828  -46.7110 O.2       8 UNK        -0.5000 
     32 CA          1.6985  -17.8041  -45.6129 C.3       8 UNK         0.1400 
     33 CB          2.3476  -16.4537  -45.9311 C.3       8 UNK        -0.1800 
     34 N           2.1818  -18.2788  -44.3180 N.am      8 UNK        -0.5000 
     35 C           2.0608  -19.5408  -43.8843 C.2       7 UNK         0.5000 
     36 O           1.5640  -20.4471  -44.5517 O.2       7 UNK        -0.5000 
     37 CA          2.5300  -19.8218  -42.4447 C.3       7 UNK         0.1400 
     38 CB          4.0397  -20.1013  -42.4127 C.3       7 UNK        -0.1800 
     39 N           2.2208  -18.7201  -41.5310 N.am      7 UNK        -0.5000 
     40 C           0.9793  -18.3306  -41.2064 C.2       6 UNK         0.5000 
     41 O          -0.0346  -18.9044  -41.5998 O.2       6 UNK        -0.5000 
     42 CA          0.8458  -17.0629  -40.3418 C.3       6 UNK         0.1400 
     43 CB          0.7667  -17.4323  -38.8535 C.3       6 UNK        -0.1800 
     44 N           1.9432  -16.1142  -40.5494 N.am      6 UNK        -0.5000 
     45 C           2.1510  -15.4316  -41.6829 C.2       5 UNK         0.5000 
     46 O           1.4259  -15.5156  -42.6760 O.2       5 UNK        -0.5000 
     47 CA          3.4257  -14.5823  -41.7347 C.3       5 UNK         0.1400 
     48 CB          4.5151  -15.2945  -42.5549 C.3       5 UNK        -0.1800 
     49 N           3.1459  -13.2773  -42.3245 N.am      5 UNK        -0.5000 
     50 C           3.7528  -12.1397  -41.9596 C.2       4 UNK         0.5000 
     51 O           4.6052  -12.0757  -41.0723 O.2       4 UNK        -0.5000 
     52 CA          3.3499  -10.8512  -42.6962 C.3       4 UNK         0.1400 
     53 CB          4.1747  -10.6780  -43.9818 C.3       4 UNK        -0.1800 
     54 N           1.9260  -10.8239  -43.0227 N.am      4 UNK        -0.5000 
     55 C           0.9634  -10.3988  -42.1924 C.2       3 UNK         0.5000 
     56 O           1.1811   -9.9799  -41.0548 O.2       3 UNK        -0.5000 
     57 CA         -0.4857  -10.4312  -42.7156 C.3       3 UNK         0.1400 
     58 CB         -0.9165   -9.0367  -43.1959 C.3       3 UNK        -0.1800 
     59 N          -0.6575  -11.3898  -43.8075 N.am      3 UNK        -0.5000 
     60 C          -0.8621  -12.7020  -43.6209 C.2       2 UNK         0.5000 
     61 O          -1.0277  -13.2089  -42.5118 O.2       2 UNK        -0.5000 
     62 CA         -0.8739  -13.6035  -44.8732 C.3       2 UNK         0.1400 
     63 CB         -2.3157  -13.8535  -45.3412 C.3       2 UNK        -0.1800 
     64 N          -0.1085  -13.0685  -45.9991 N.am      2 UNK        -0.5000 
     65 C           1.2087  -12.8224  -46.0001 C.2       1 UNK         0.5000 
     66 O           1.9425  -13.0547  -45.0403 O.2       1 UNK        -0.5000 
     67 C          -1.8334  -22.1092  -48.1214 C.2       11 UNK         0.5000 
     68 O          -1.9484  -23.1379  -48.7879 O.2       11 UNK        -0.5000 
     69 N          -2.7619  -21.1443  -48.0818 N.am      12 UNK        -0.5000 
     70 CA         -4.0074  -21.1444  -48.8507 C.3       12 UNK         0.1400 
     71 CB         -4.7302  -19.8135  -48.6125 C.3       12 UNK        -0.1800 
     72 C          -4.9522  -22.3263  -48.5478 C.2       12 UNK         0.5000 
     73 O          -5.7719  -22.6638  -49.4013 O.2       12 UNK        -0.5000 
     74 N          -4.8233  -22.9323  -47.3600 N.am      13 UNK        -0.5000 
     75 CA         -5.5686  -24.1173  -46.9402 C.3       13 UNK         0.1400 
     76 CB         -6.1325  -23.8794  -45.5307 C.3       13 UNK        -0.1800 
     77 C          -4.6808  -25.3735  -46.9568 C.2       13 UNK         0.5000 
     78 O          -5.1548  -26.4396  -47.3476 O.2       13 UNK        -0.5000 
     79 N          -3.4197  -25.2356  -46.5242 N.am      14 UNK        -0.5000 
     80 CA         -2.4564  -26.3272  -46.3847 C.3       14 UNK         0.1400 
     81 CB         -1.2724  -25.8560  -45.5256 C.3       14 UNK        -0.1800 
     82 C          -1.9668  -26.8775  -47.7343 C.2       14 UNK         0.5000 
     83 O          -1.9366  -28.0956  -47.9147 O.2       14 UNK        -0.5000 
     84 N          -1.6012  -25.9774  -48.6567 N.am      15 UNK        -0.5000 
     85 CA         -1.1977  -26.3211  -50.0213 C.3       15 UNK         0.1400 
     86 CB         -0.1421  -25.3153  -50.5028 C.3       15 UNK        -0.1800 
     87 C          -2.4093  -26.3586  -50.9708 C.2       15 UNK         0.5000 
     88 O          -2.3502  -27.0405  -51.9951 O.2       15 UNK        -0.5000 
     89 N          -3.4895  -25.6511  -50.6011 N.am      16 UNK        -0.5000 
     90 CA         -4.8028  -25.6210  -51.2493 C.3       16 UNK         0.1400 
     91 CB         -5.5473  -26.9512  -50.9982 C.3       16 UNK        -0.1800 
     92 C          -4.7002  -25.2343  -52.7364 C.2       16 UNK         0.5000 
     93 O          -4.3722  -24.0860  -53.0382 O.2       16 UNK        -0.5000 
     94 N          -4.9398  -26.1984  -53.6351 N.am      17 UNK        -0.5000 
     95 CA         -4.8543  -26.0529  -55.0877 C.3       17 UNK         0.1400 
     96 CB         -5.3324  -27.3525  -55.7515 C.3       17 UNK        -0.1800 
     97 C          -3.4517  -25.6712  -55.5981 C.2       17 UNK         0.5000 
     98 O          -3.3572  -24.9809  -56.6123 O.2       17 UNK        -0.5000 
     99 N          -2.3913  -26.0659  -54.8767 N.am      18 UNK        -0.5000 
    100 CA        -1.0095  -25.6848  -55.1894 C.3       18 UNK         0.1400 
    101 CB        -0.0365  -26.6503  -54.4980 C.3       18 UNK        -0.1800 
    102 C         -0.6957  -24.2149  -54.8378 C.2       18 UNK         0.5000 
    103 O          0.2235  -23.6401  -55.4209 O.2       18 UNK        -0.5000 
    104 N         -1.4874  -23.6215  -53.9334 N.am      19 UNK        -0.5000 
    105 CA        -1.5050  -22.1862  -53.6396 C.3       19 UNK         0.1400 
    106 CB        -1.7099  -21.9926  -52.1262 C.3       19 UNK        -0.1800 
    107 C         -2.6040  -21.4518  -54.4360 C.2       19 UNK         0.5000 
    108 O         -2.7706  -20.2467  -54.2575 O.2       19 UNK        -0.5000 
    109 N         -3.3689  -22.1864  -55.2602 N.am      20 UNK        -0.5000 
    110 CA        -4.5524  -21.7526  -56.0129 C.3       20 UNK         0.1400 
    111 CB        -4.1485  -20.7668  -57.1286 C.3       20 UNK        -0.1800 
    112 C         -5.6902  -21.2054  -55.1201 C.2       20 UNK         0.5000 
    113 O         -6.5210  -20.4336  -55.6021 O.2       20 UNK        -0.5000 
    114 N         -5.6978  -21.6068  -53.8372 N.am      21 UNK        -0.5000 
    115 CA        -6.5664  -21.1324  -52.7545 C.3       21 UNK         0.1400 
    116 CB        -7.9819  -21.7230  -52.9131 C.3       21 UNK        -0.1800 
    117 C         -6.5572  -19.5923  -52.6095 C.2       21 UNK         0.5000 
    118 O         -7.6203  -18.9740  -52.5224 O.2       21 UNK        -0.5000 
    119 N         -5.3516  -19.0064  -52.6473 N.am      22 UNK        -0.5000 
    120 CA        -5.0950  -17.5572  -52.6413 C.3       22 UNK         0.1400 
    121 C         -5.6897  -16.7640  -51.4384 C.2       22 UNK         0.5000 
    122 N         -5.9271  -15.4692  -51.6061 N.am      22 UNK        -0.7600 
    123 O         -5.9156  -17.2910  -50.3527 O.2       22 UNK        -0.5000 
    124 C124       -3.5888  -17.2486  -52.8518 C.3       23 UNK        -0.0398 
    125 S125       -2.4819  -17.8963  -51.5482 S.3       23 UNK        -0.2404 
    126 C126       -0.9038  -17.9448  -52.4533 C.3       23 UNK        -0.0205 
    127 H127       -0.4587   -8.4611  -48.5069 H         1 UNK         0.0600 
    128 H128       -1.7805   -9.5081  -47.9793 H         1 UNK         0.0600 
    129 H129       -0.8133   -9.9491  -49.3900 H         1 UNK         0.0600 
    130 H130        0.6446  -11.5824  -48.9374 H         1 UNK         0.3000 
    131 H131        2.5615  -11.4539  -46.8892 H         1 UNK         0.0600 
    132 H132        3.2531  -13.7095  -47.6257 H         1 UNK         0.0800 
    133 H133        3.0549  -12.6102  -48.9593 H         1 UNK         0.0800 
    134 H134        3.3494  -15.7040  -48.9706 H         1 UNK         0.0800 
    135 H135        3.0769  -15.0369  -50.5627 H         1 UNK         0.0800 
    136 H136        0.4483  -15.8458  -51.3929 H         1 UNK         0.1150 
    137 H137        0.3866  -20.1276  -51.4351 H         1 UNK         0.1150 
    138 H138        3.2831  -18.0494  -49.0543 H         1 UNK         0.1150 
    139 H139        3.1238  -20.9449  -50.5545 H         1 UNK         0.0800 
    140 H140        3.1835  -20.4074  -48.8942 H         1 UNK         0.0800 
    141 H141        0.0423  -20.0938  -48.1879 H         1 UNK         0.0800 
    142 H142        1.2468  -20.7969  -47.1402 H         1 UNK         0.0800 
    143 H143       -0.1777  -22.9239  -47.0449 H         1 UNK         0.0600 
    144 H144       -0.3456  -20.7181  -45.4845 H         1 UNK         0.3000 
    145 H145       -3.1334  -21.3188  -43.3918 H         1 UNK         0.0600 
    146 H146       -1.3917  -21.4608  -41.6286 H         1 UNK         0.0600 
    147 H147       -0.1596  -21.8124  -42.8389 H         1 UNK         0.0600 
    148 H148       -1.4589  -22.9606  -42.5422 H         1 UNK         0.0600 
    149 H149       -1.0136  -19.4717  -43.1212 H         1 UNK         0.3000 
    150 H150       -2.3713  -16.8620  -45.1770 H         1 UNK         0.0600 
    151 H151       -3.3952  -16.5992  -42.9837 H         1 UNK         0.0600 
    152 H152       -1.8498  -15.7652  -42.9314 H         1 UNK         0.0600 
    153 H153       -2.0291  -17.3354  -42.1662 H         1 UNK         0.0600 
    154 H154        0.0866  -17.1416  -43.7151 H         1 UNK         0.3000 
    155 H155        2.0122  -18.5144  -46.3809 H         1 UNK         0.0600 
    156 H156        1.9956  -16.0827  -46.8903 H         1 UNK         0.0600 
    157 H157        3.4328  -16.5360  -45.9895 H         1 UNK         0.0600 
    158 H158        2.1052  -15.7021  -45.1819 H         1 UNK         0.0600 
    159 H159        2.5578  -17.5817  -43.6927 H         1 UNK         0.3000 
    160 H160        2.0082  -20.7135  -42.0911 H         1 UNK         0.0600 
    161 H161        4.6185  -19.2340  -42.7331 H         1 UNK         0.0600 
    162 H162        4.2966  -20.9301  -43.0738 H         1 UNK         0.0600 
    163 H163        4.3691  -20.3733  -41.4097 H         1 UNK         0.0600 
    164 H164        3.0017  -18.2044  -41.1541 H         1 UNK         0.3000 
    165 H165       -0.0870  -16.5689  -40.6223 H         1 UNK         0.0600 
    166 H166        0.5970  -16.5496  -38.2366 H         1 UNK         0.0600 
    167 H167       -0.0583  -18.1212  -38.6662 H         1 UNK         0.0600 
    168 H168        1.6819  -17.9143  -38.5076 H         1 UNK         0.0600 
    169 H169        2.5867  -15.9980  -39.7796 H         1 UNK         0.3000 
    170 H170        3.7862  -14.4538  -40.7118 H         1 UNK         0.0600 
    171 H171        4.2157  -15.4177  -43.5965 H         1 UNK         0.0600 
    172 H172        5.4483  -14.7313  -42.5418 H         1 UNK         0.0600 
    173 H173        4.7287  -16.2853  -42.1521 H         1 UNK         0.0600 
    174 H174        2.4708  -13.2707  -43.0842 H         1 UNK         0.3000 
    175 H175        3.5798  -10.0072  -42.0421 H         1 UNK         0.0600 
    176 H176        4.0449  -11.5156  -44.6669 H         1 UNK         0.0600 
    177 H177        3.8968   -9.7657  -44.5098 H         1 UNK         0.0600 
    178 H178        5.2387  -10.6096  -43.7520 H         1 UNK         0.0600 
    179 H179        1.6622  -11.2144  -43.9171 H         1 UNK         0.3000 
    180 H180       -1.1340  -10.7121  -41.8828 H         1 UNK         0.0600 
    181 H181       -1.9431   -9.0441  -43.5623 H         1 UNK         0.0600 
    182 H182       -0.2757   -8.6690  -43.9978 H         1 UNK         0.0600 
    183 H183       -0.8672   -8.3127  -42.3816 H         1 UNK         0.0600 
    184 H184       -0.5123  -11.0351  -44.7462 H         1 UNK         0.3000 
    185 H185       -0.4245  -14.5572  -44.5921 H         1 UNK         0.0600 
    186 H186       -2.7901  -12.9336  -45.6851 H         1 UNK         0.0600 
    187 H187       -2.3446  -14.5724  -46.1602 H         1 UNK         0.0600 
    188 H188       -2.9304  -14.2535  -44.5344 H         1 UNK         0.0600 
    189 H189       -0.6300  -12.8385  -46.8322 H         1 UNK         0.3000 
    190 H190       -2.6127  -20.3559  -47.4669 H         1 UNK         0.3000 
    191 H191       -3.7425  -21.2043  -49.9081 H         1 UNK         0.0600 
    192 H192       -4.1144  -18.9693  -48.9238 H         1 UNK         0.0600 
    193 H193       -4.9840  -19.6753  -47.5608 H         1 UNK         0.0600 
    194 H194       -5.6576  -19.7650  -49.1848 H         1 UNK         0.0600 
    195 H195       -4.1005  -22.6102  -46.7260 H         1 UNK         0.3000 
    196 H196       -6.4104  -24.2985  -47.6117 H         1 UNK         0.0600 
    197 H197       -6.8088  -23.0245  -45.5182 H         1 UNK         0.0600 
    198 H198       -5.3411  -23.6898  -44.8043 H         1 UNK         0.0600 
    199 H199       -6.6970  -24.7460  -45.1841 H         1 UNK         0.0600 
    200 H200       -3.1213  -24.3292  -46.1697 H         1 UNK         0.3000 
    201 H201       -2.9505  -27.1437  -45.8536 H         1 UNK         0.0600 
    202 H202       -1.6056  -25.5337  -44.5388 H         1 UNK         0.0600 
    203 H203       -0.7449  -25.0215  -45.9877 H         1 UNK         0.0600 
    204 H204       -0.5509  -26.6606  -45.3791 H         1 UNK         0.0600 
    205 H205       -1.6818  -24.9844  -48.4540 H         1 UNK         0.3000 
    206 H206       -0.7388  -27.3119  -50.0301 H         1 UNK         0.0600 
    207 H207       -0.5594  -24.3174  -50.6120 H         1 UNK         0.0600 
    208 H208        0.6919  -25.2520  -49.8038 H         1 UNK         0.0600 
    209 H209        0.2688  -25.6027  -51.4689 H         1 UNK         0.0600 
    210 H210       -3.4006  -25.0821  -49.7716 H         1 UNK         0.3000 
    211 H211       -5.3757  -24.8291  -50.7686 H         1 UNK         0.0600 
    212 H212       -5.0076  -27.8113  -51.3959 H         1 UNK         0.0600 
    213 H213       -6.5408  -26.9392  -51.4485 H         1 UNK         0.0600 
    214 H214       -5.6854  -27.1208  -49.9308 H         1 UNK         0.0600 
    215 H215       -5.1656  -27.1200  -53.2902 H         1 UNK         0.3000 
    216 H216       -5.5354  -25.2500  -55.3774 H         1 UNK         0.0600 
    217 H217       -5.3070  -27.2687  -56.8389 H         1 UNK         0.0600 
    218 H218       -6.3593  -27.5856  -55.4693 H         1 UNK         0.0600 
    219 H219       -4.7055  -28.2004  -55.4725 H         1 UNK         0.0600 
    220 H220       -2.5375  -26.5968  -54.0235 H         1 UNK         0.3000 
    221 H221       -0.8622  -25.7911  -56.2664 H         1 UNK         0.0600 
    222 H222       -0.1583  -26.6440  -53.4173 H         1 UNK         0.0600 
    223 H223       -0.1888  -27.6731  -54.8427 H         1 UNK         0.0600 
    224 H224        0.9993  -26.3855  -54.7142 H         1 UNK         0.0600 
    225 H225       -2.2417  -24.1578  -53.5228 H         1 UNK         0.3000 
    226 H226       -0.5529  -21.7277  -53.9135 H         1 UNK         0.0600 
    227 H227       -0.8302  -22.3160  -51.5731 H         1 UNK         0.0600 
    228 H228       -1.8711  -20.9452  -51.8703 H         1 UNK         0.0600 
    229 H229       -2.5670  -22.5533  -51.7528 H         1 UNK         0.0600 
    230 H230       -3.1468  -23.1682  -55.3521 H         1 UNK         0.3000 
    231 H231       -4.9521  -22.6473  -56.4917 H         1 UNK         0.0600 
    232 H232       -4.9894  -20.5562  -57.7902 H         1 UNK         0.0600 
    233 H233       -3.3485  -21.1767  -57.7451 H         1 UNK         0.0600 
    234 H234       -3.8058  -19.8147  -56.7225 H         1 UNK         0.0600 
    235 H235       -5.0085  -22.3015  -53.5638 H         1 UNK         0.3000 
    236 H236       -6.1456  -21.5279  -51.8296 H         1 UNK         0.0600 
    237 H237       -8.4750  -21.3545  -53.8131 H         1 UNK         0.0600 
    238 H238       -7.9486  -22.8111  -52.9698 H         1 UNK         0.0600 
    239 H239       -8.6116  -21.4624  -52.0617 H         1 UNK         0.0600 
    240 H240       -4.5320  -19.5870  -52.7632 H         1 UNK         0.3000 
    241 H241       -5.6161  -17.1819  -53.5241 H         1 UNK         0.0600 
    242 H242       -6.3031  -14.9408  -50.8342 H         1 UNK         0.3800 
    243 H243       -5.7535  -15.0042  -52.4837 H         1 UNK         0.3800 
    244 H244       -3.4267  -16.1727  -52.9334 H         1 UNK         0.0800 
    245 H245       -3.2734  -17.6614  -53.8109 H         1 UNK         0.0800 
    246 H246       -0.8240  -17.0681  -53.0980 H         1 UNK         0.0800 
    247 H247       -0.8853  -18.8129  -53.1124 H         1 UNK         0.0800 
@<TRIPOS>BOND
     1    1    2 1    
     2    1  127 1    
     3    1  128 1    
     4    1  129 1    
     5    2    3 2    
     6    2    4 am   BACKBONE|DICT|INTERRES
     7    4    5 1    
     8    4  130 1    
     9    5    6 1    
    10    5   65 1    
    11    5  131 1    
    12    6    7 1    
    13    6  132 1    
    14    6  133 1    
    15    7    8 1    
    16    8    9 1    
    17    8  134 1    
    18    8  135 1    
    19    9   10 ar   
    20    9   14 ar   
    21   10   11 ar   
    22   10  136 1    
    23   11   12 ar   
    24   11  126 1    
    25   12   13 ar   
    26   12  137 1    
    27   13   14 ar   
    28   13   15 1    
    29   14  138 1    
    30   15   16 1    
    31   15  139 1    
    32   15  140 1    
    33   16   17 1    
    34   17   18 1    
    35   17  141 1    
    36   17  142 1    
    37   18   19 1    
    38   18   67 1    
    39   18  143 1    
    40   19   20 am   BACKBONE|DICT|INTERRES
    41   19  144 1    
    42   20   21 2    
    43   20   22 1    
    44   22   23 1    
    45   22   24 1    
    46   22  145 1    
    47   23  146 1    
    48   23  147 1    
    49   23  148 1    
    50   24   25 am   BACKBONE|DICT|INTERRES
    51   24  149 1    
    52   25   26 2    
    53   25   27 1    
    54   27   28 1    
    55   27   29 1    
    56   27  150 1    
    57   28  151 1    
    58   28  152 1    
    59   28  153 1    
    60   29   30 am   BACKBONE|DICT|INTERRES
    61   29  154 1    
    62   30   31 2    
    63   30   32 1    
    64   32   33 1    
    65   32   34 1    
    66   32  155 1    
    67   33  156 1    
    68   33  157 1    
    69   33  158 1    
    70   34   35 am   BACKBONE|DICT|INTERRES
    71   34  159 1    
    72   35   36 2    
    73   35   37 1    
    74   37   38 1    
    75   37   39 1    
    76   37  160 1    
    77   38  161 1    
    78   38  162 1    
    79   38  163 1    
    80   39   40 am   BACKBONE|DICT|INTERRES
    81   39  164 1    
    82   40   41 2    
    83   40   42 1    
    84   42   43 1    
    85   42   44 1    
    86   42  165 1    
    87   43  166 1    
    88   43  167 1    
    89   43  168 1    
    90   44   45 am   BACKBONE|DICT|INTERRES
    91   44  169 1    
    92   45   46 2    
    93   45   47 1    
    94   47   48 1    
    95   47   49 1    
    96   47  170 1    
    97   48  171 1    
    98   48  172 1    
    99   48  173 1    
   100   49   50 am   BACKBONE|DICT|INTERRES
   101   49  174 1    
   102   50   51 2    
   103   50   52 1    
   104   52   53 1    
   105   52   54 1    
   106   52  175 1    
   107   53  176 1    
   108   53  177 1    
   109   53  178 1    
   110   54   55 am   BACKBONE|DICT|INTERRES
   111   54  179 1    
   112   55   56 2    
   113   55   57 1    
   114   57   58 1    
   115   57   59 1    
   116   57  180 1    
   117   58  181 1    
   118   58  182 1    
   119   58  183 1    
   120   59   60 am   BACKBONE|DICT|INTERRES
   121   59  184 1    
   122   60   61 2    
   123   60   62 1    
   124   62   63 1    
   125   62   64 1    
   126   62  185 1    
   127   63  186 1    
   128   63  187 1    
   129   63  188 1    
   130   64   65 am   BACKBONE|DICT|INTERRES
   131   64  189 1    
   132   65   66 2    
   133   67   68 2    
   134   67   69 am   BACKBONE|DICT|INTERRES
   135   69   70 1    
   136   69  190 1    
   137   70   71 1    
   138   70   72 1    
   139   70  191 1    
   140   71  192 1    
   141   71  193 1    
   142   71  194 1    
   143   72   73 2    
   144   72   74 am   BACKBONE|DICT|INTERRES
   145   74   75 1    
   146   74  195 1    
   147   75   76 1    
   148   75   77 1    
   149   75  196 1    
   150   76  197 1    
   151   76  198 1    
   152   76  199 1    
   153   77   78 2    
   154   77   79 am   BACKBONE|DICT|INTERRES
   155   79   80 1    
   156   79  200 1    
   157   80   81 1    
   158   80   82 1    
   159   80  201 1    
   160   81  202 1    
   161   81  203 1    
   162   81  204 1    
   163   82   83 2    
   164   82   84 am   BACKBONE|DICT|INTERRES
   165   84   85 1    
   166   84  205 1    
   167   85   86 1    
   168   85   87 1    
   169   85  206 1    
   170   86  207 1    
   171   86  208 1    
   172   86  209 1    
   173   87   88 2    
   174   87   89 am   BACKBONE|DICT|INTERRES
   175   89   90 1    
   176   89  210 1    
   177   90   91 1    
   178   90   92 1    
   179   90  211 1    
   180   91  212 1    
   181   91  213 1    
   182   91  214 1    
   183   92   93 2    
   184   92   94 am   BACKBONE|DICT|INTERRES
   185   94   95 1    
   186   94  215 1    
   187   95   96 1    
   188   95   97 1    
   189   95  216 1    
   190   96  217 1    
   191   96  218 1    
   192   96  219 1    
   193   97   98 2    
   194   97   99 am   BACKBONE|DICT|INTERRES
   195   99  100 1    
   196   99  220 1    
   197  100  101 1    
   198  100  102 1    
   199  100  221 1    
   200  101  222 1    
   201  101  223 1    
   202  101  224 1    
   203  102  103 2    
   204  102  104 am   BACKBONE|DICT|INTERRES
   205  104  105 1    
   206  104  225 1    
   207  105  106 1    
   208  105  107 1    
   209  105  226 1    
   210  106  227 1    
   211  106  228 1    
   212  106  229 1    
   213  107  108 2    
   214  107  109 am   BACKBONE|DICT|INTERRES
   215  109  110 1    
   216  109  230 1    
   217  110  111 1    
   218  110  112 1    
   219  110  231 1    
   220  111  232 1    
   221  111  233 1    
   222  111  234 1    
   223  112  113 2    
   224  112  114 am   BACKBONE|DICT|INTERRES
   225  114  115 1    
   226  114  235 1    
   227  115  116 1    
   228  115  117 1    
   229  115  236 1    
   230  116  237 1    
   231  116  238 1    
   232  116  239 1    
   233  117  118 2    
   234  117  119 am   BACKBONE|DICT|INTERRES
   235  119  120 1    
   236  119  240 1    
   237  120  121 1    
   238  120  124 1    
   239  120  241 1    
   240  121  122 am   BACKBONE|DICT|INTERRES
   241  121  123 2    
   242  122  242 1    
   243  122  243 1    
   244  124  125 1    
   245  124  244 1    
   246  124  245 1    
   247  125  126 1    
   248  126  246 1    
   249  126  247 1    
@<TRIPOS>SUBSTRUCTURE
     1 UNK         1 GROUP             0       ****    0 ROOT    
