@<TRIPOS>MOLECULE
3R540
247   249    1
SMALL
USER_CHARGES


@<TRIPOS>ATOM
      1 CA         -5.6509  -13.3796  -50.9937 C.3       0 UNK        -0.1800 
      2 C          -4.3781  -13.5376  -50.1746 C.2       0 UNK         0.5000 
      3 O          -3.5722  -12.6086  -50.1061 O.2       0 UNK        -0.5000 
      4 N          -4.1875  -14.7098  -49.5574 N.am      1 UNK        -0.5000 
      5 CA         -3.0416  -15.0455  -48.7120 C.3       1 UNK         0.1400 
      6 C6         -2.8012  -16.5784  -48.6452 C.3       23 UNK        -0.0398 
      7 S7         -1.0980  -16.9784  -48.1158 S.3       23 UNK        -0.2404 
      8 C8         -0.2603  -17.1923  -49.7180 C.3       23 UNK        -0.0205 
      9 C9          0.1467  -18.6380  -49.9627 C.ar      23 UNK        -0.0193 
     10 C10        -0.8108  -19.6066  -50.2824 C.ar      23 UNK        -0.1150 
     11 C11        -0.4271  -20.9312  -50.5212 C.ar      23 UNK        -0.0193 
     12 C12         0.9248  -21.2756  -50.4525 C.ar      23 UNK        -0.1150 
     13 C13         1.8926  -20.3180  -50.1396 C.ar      23 UNK        -0.0193 
     14 C14         1.4944  -19.0020  -49.8899 C.ar      23 UNK        -0.1150 
     15 C15         3.3713  -20.6866  -50.0994 C.3       23 UNK        -0.0205 
     16 S16         3.7212  -22.2126  -49.1650 S.3       23 UNK        -0.2404 
     17 C17         3.1944  -21.7423  -47.4855 C.3       23 UNK        -0.0398 
     18 CA          2.3787  -22.8594  -46.7891 C.3       11 UNK         0.1400 
     19 N           2.5160  -22.7753  -45.3347 N.am      11 UNK        -0.5000 
     20 C           2.5091  -23.8178  -44.4949 C.2       10 UNK         0.5000 
     21 O           2.4180  -24.9885  -44.8623 O.2       10 UNK        -0.5000 
     22 CA          2.6311  -23.5063  -42.9893 C.3       10 UNK         0.1400 
     23 CB          4.0737  -23.7315  -42.5117 C.3       10 UNK        -0.1800 
     24 N           2.2283  -22.1404  -42.6461 N.am      10 UNK        -0.5000 
     25 C           0.9600  -21.7100  -42.6142 C.2       9 UNK         0.5000 
     26 O          -0.0116  -22.4299  -42.8438 O.2       9 UNK        -0.5000 
     27 CA          0.7491  -20.2113  -42.3236 C.3       9 UNK         0.1400 
     28 CB          0.6948  -19.9624  -40.8096 C.3       9 UNK        -0.1800 
     29 N           1.7564  -19.3298  -42.9312 N.am      9 UNK        -0.5000 
     30 C           2.0127  -19.2578  -44.2471 C.2       8 UNK         0.5000 
     31 O           1.4757  -19.9949  -45.0721 O.2       8 UNK        -0.5000 
     32 CA          3.0318  -18.2167  -44.7380 C.3       8 UNK         0.1400 
     33 CB          2.6299  -17.6357  -46.1062 C.3       8 UNK        -0.1800 
     34 N           3.1877  -17.1310  -43.7725 N.am      8 UNK        -0.5000 
     35 C           4.3520  -16.6950  -43.2823 C.2       7 UNK         0.5000 
     36 O           5.4498  -17.1384  -43.6223 O.2       7 UNK        -0.5000 
     37 CA          4.2884  -15.5827  -42.2164 C.3       7 UNK         0.1400 
     38 CB          4.3672  -14.1979  -42.8775 C.3       7 UNK        -0.1800 
     39 N           3.1229  -15.6135  -41.3245 N.am      7 UNK        -0.5000 
     40 C           2.7358  -16.6456  -40.5620 C.2       6 UNK         0.5000 
     41 O           3.2061  -17.7804  -40.6420 O.2       6 UNK        -0.5000 
     42 CA          1.6413  -16.3508  -39.5293 C.3       6 UNK         0.1400 
     43 CB          2.1011  -15.2690  -38.5284 C.3       6 UNK        -0.1800 
     44 N           0.3878  -15.9713  -40.1816 N.am      6 UNK        -0.5000 
     45 C          -0.8025  -15.9561  -39.5606 C.2       5 UNK         0.5000 
     46 O          -0.9553  -16.2567  -38.3757 O.2       5 UNK        -0.5000 
     47 CA         -2.0413  -15.5403  -40.3800 C.3       5 UNK         0.1400 
     48 CB         -2.3147  -14.0381  -40.2114 C.3       5 UNK        -0.1800 
     49 N          -1.9316  -15.8397  -41.8046 N.am      5 UNK        -0.5000 
     50 C          -1.8695  -17.0684  -42.3353 C.2       4 UNK         0.5000 
     51 O          -1.9925  -18.1009  -41.6774 O.2       4 UNK        -0.5000 
     52 CA         -1.6236  -17.1657  -43.8551 C.3       4 UNK         0.1400 
     53 CB         -2.9176  -17.5975  -44.5590 C.3       4 UNK        -0.1800 
     54 N          -1.1223  -15.9302  -44.4722 N.am      4 UNK        -0.5000 
     55 C           0.0353  -15.3257  -44.1588 C.2       3 UNK         0.5000 
     56 O           0.7983  -15.7540  -43.2924 O.2       3 UNK        -0.5000 
     57 CA          0.4048  -14.0190  -44.8900 C.3       3 UNK         0.1400 
     58 CB          1.5344  -14.2637  -45.9008 C.3       3 UNK        -0.1800 
     59 N          -0.7127  -13.3902  -45.5899 N.am      3 UNK        -0.5000 
     60 C          -1.7787  -12.8157  -45.0157 C.2       2 UNK         0.5000 
     61 O          -1.9231  -12.7044  -43.7979 O.2       2 UNK        -0.5000 
     62 CA         -2.8869  -12.3291  -45.9744 C.3       2 UNK         0.1400 
     63 CB         -2.7113  -10.8367  -46.2910 C.3       2 UNK        -0.1800 
     64 N          -2.9279  -13.0862  -47.2322 N.am      2 UNK        -0.5000 
     65 C          -3.1924  -14.3966  -47.3198 C.2       1 UNK         0.5000 
     66 O          -3.5248  -15.0767  -46.3499 O.2       1 UNK        -0.5000 
     67 C           0.8857  -22.8366  -47.1749 C.2       11 UNK         0.5000 
     68 O           0.4321  -23.6823  -47.9465 O.2       11 UNK        -0.5000 
     69 N           0.1287  -21.9201  -46.5539 N.am      12 UNK        -0.5000 
     70 CA         -1.3207  -21.7558  -46.6850 C.3       12 UNK         0.1400 
     71 CB         -1.7346  -20.4701  -45.9592 C.3       12 UNK        -0.1800 
     72 C          -2.1414  -22.9593  -46.1766 C.2       12 UNK         0.5000 
     73 O          -3.3208  -23.0738  -46.5097 O.2       12 UNK        -0.5000 
     74 N          -1.4997  -23.8694  -45.4292 N.am      13 UNK        -0.5000 
     75 CA         -2.0198  -25.1810  -45.0337 C.3       13 UNK         0.1400 
     76 CB         -1.0002  -25.8595  -44.1072 C.3       13 UNK        -0.1800 
     77 C          -2.3657  -26.1014  -46.2268 C.2       13 UNK         0.5000 
     78 O          -3.1442  -27.0396  -46.0559 O.2       13 UNK        -0.5000 
     79 N          -1.8274  -25.7970  -47.4184 N.am      14 UNK        -0.5000 
     80 CA         -2.1919  -26.4062  -48.7004 C.3       14 UNK         0.1400 
     81 CB         -1.0735  -26.1164  -49.7151 C.3       14 UNK        -0.1800 
     82 C          -3.5668  -25.9498  -49.2478 C.2       14 UNK         0.5000 
     83 O          -3.9575  -26.4081  -50.3221 O.2       14 UNK        -0.5000 
     84 N          -4.2714  -25.0735  -48.5149 N.am      15 UNK        -0.5000 
     85 CA         -5.5578  -24.4521  -48.8326 C.3       15 UNK         0.1400 
     86 CB         -6.6645  -25.4964  -49.1087 C.3       15 UNK        -0.1800 
     87 C          -5.3894  -23.3726  -49.9165 C.2       15 UNK         0.5000 
     88 O          -4.4730  -22.5593  -49.7997 O.2       15 UNK        -0.5000 
     89 N          -6.2938  -23.3289  -50.9057 N.am      16 UNK        -0.5000 
     90 CA         -6.3789  -22.3945  -52.0423 C.3       16 UNK         0.1400 
     91 CB         -5.1187  -22.4739  -52.9221 C.3       16 UNK        -0.1800 
     92 C          -6.7014  -20.9290  -51.6723 C.2       16 UNK         0.5000 
     93 O          -7.4126  -20.2654  -52.4258 O.2       16 UNK        -0.5000 
     94 N          -6.1943  -20.4621  -50.5238 N.am      17 UNK        -0.5000 
     95 CA         -6.4252  -19.1715  -49.8625 C.3       17 UNK         0.1400 
     96 CB         -7.9222  -18.9656  -49.5544 C.3       17 UNK        -0.1800 
     97 C          -5.8106  -17.9443  -50.5665 C.2       17 UNK         0.5000 
     98 O          -5.9671  -16.8307  -50.0644 O.2       17 UNK        -0.5000 
     99 N          -5.0869  -18.1471  -51.6710 N.am      18 UNK        -0.5000 
    100 CA        -4.3649  -17.1253  -52.4191 C.3       18 UNK         0.1400 
    101 CB        -5.3113  -16.4170  -53.4023 C.3       18 UNK        -0.1800 
    102 C         -3.2220  -17.8172  -53.1625 C.2       18 UNK         0.5000 
    103 O         -3.4261  -18.9172  -53.6785 O.2       18 UNK        -0.5000 
    104 N         -2.0538  -17.1661  -53.2351 N.am      19 UNK        -0.5000 
    105 CA        -0.8454  -17.7030  -53.8733 C.3       19 UNK         0.1400 
    106 CB         0.3339  -16.7525  -53.6194 C.3       19 UNK        -0.1800 
    107 C         -1.0122  -17.9648  -55.3827 C.2       19 UNK         0.5000 
    108 O         -0.4525  -18.9327  -55.8984 O.2       19 UNK        -0.5000 
    109 N         -1.8167  -17.1245  -56.0491 N.am      20 UNK        -0.5000 
    110 CA        -2.1730  -17.2526  -57.4636 C.3       20 UNK         0.1400 
    111 CB        -2.8873  -15.9709  -57.9188 C.3       20 UNK        -0.1800 
    112 C         -3.0425  -18.4901  -57.7604 C.2       20 UNK         0.5000 
    113 O         -2.9335  -19.0575  -58.8479 O.2       20 UNK        -0.5000 
    114 N         -3.8752  -18.8911  -56.7898 N.am      21 UNK        -0.5000 
    115 CA        -4.6651  -20.1206  -56.8402 C.3       21 UNK         0.1400 
    116 CB        -5.9069  -19.9648  -55.9474 C.3       21 UNK        -0.1800 
    117 C         -3.8262  -21.3409  -56.4188 C.2       21 UNK         0.5000 
    118 O         -3.9851  -22.4161  -56.9978 O.2       21 UNK        -0.5000 
    119 N         -2.9522  -21.1453  -55.4226 N.am      22 UNK        -0.5000 
    120 CA        -2.0111  -22.1438  -54.8967 C.3       22 UNK         0.1400 
    121 C         -0.9562  -22.6149  -55.9367 C.2       22 UNK         0.5000 
    122 N         -0.3379  -21.7042  -56.6791 N.am      22 UNK        -0.7600 
    123 O         -0.7044  -23.8083  -56.0779 O.2       22 UNK        -0.5000 
    124 C124       -1.3266  -21.6350  -53.5993 C.3       23 UNK        -0.0398 
    125 S125       -1.1166  -22.9382  -52.3462 S.3       23 UNK        -0.2404 
    126 C126       -1.4720  -21.9970  -50.8241 C.3       23 UNK        -0.0205 
    127 H127       -6.1904  -12.4857  -50.6810 H         1 UNK         0.0600 
    128 H128       -6.3168  -14.2346  -50.8766 H         1 UNK         0.0600 
    129 H129       -5.4061  -13.2804  -52.0511 H         1 UNK         0.0600 
    130 H130       -4.9023  -15.4320  -49.6410 H         1 UNK         0.3000 
    131 H131       -2.1574  -14.6051  -49.1788 H         1 UNK         0.0600 
    132 H132       -3.5114  -17.0686  -47.9772 H         1 UNK         0.0800 
    133 H133       -2.9723  -17.0335  -49.6199 H         1 UNK         0.0800 
    134 H134       -0.8908  -16.8475  -50.5370 H         1 UNK         0.0800 
    135 H135        0.6180  -16.5452  -49.7298 H         1 UNK         0.0800 
    136 H136       -1.8539  -19.3288  -50.3338 H         1 UNK         0.1150 
    137 H137        1.2219  -22.2980  -50.6391 H         1 UNK         0.1150 
    138 H138        2.2374  -18.2546  -49.6496 H         1 UNK         0.1150 
    139 H139        3.7222  -20.8164  -51.1238 H         1 UNK         0.0800 
    140 H140        3.9615  -19.8744  -49.6720 H         1 UNK         0.0800 
    141 H141        2.6477  -20.7982  -47.4976 H         1 UNK         0.0800 
    142 H142        4.1090  -21.5431  -46.9250 H         1 UNK         0.0800 
    143 H143        2.7832  -23.8223  -47.1097 H         1 UNK         0.0600 
    144 H144        2.5185  -21.8429  -44.9433 H         1 UNK         0.3000 
    145 H145        1.9817  -24.2041  -42.4560 H         1 UNK         0.0600 
    146 H146        4.1610  -23.5816  -41.4354 H         1 UNK         0.0600 
    147 H147        4.4013  -24.7502  -42.7238 H         1 UNK         0.0600 
    148 H148        4.7717  -23.0530  -43.0039 H         1 UNK         0.0600 
    149 H149        2.9663  -21.4822  -42.4418 H         1 UNK         0.3000 
    150 H150       -0.2197  -19.9396  -42.7455 H         1 UNK         0.0600 
    151 H151       -0.0544  -20.5973  -40.3349 H         1 UNK         0.0600 
    152 H152        0.4235  -18.9303  -40.5920 H         1 UNK         0.0600 
    153 H153        1.6534  -20.1670  -40.3314 H         1 UNK         0.0600 
    154 H154        2.2752  -18.7297  -42.2997 H         1 UNK         0.3000 
    155 H155        3.9744  -18.7530  -44.8612 H         1 UNK         0.0600 
    156 H156        3.3230  -16.8585  -46.4276 H         1 UNK         0.0600 
    157 H157        1.6268  -17.2096  -46.0793 H         1 UNK         0.0600 
    158 H158        2.6313  -18.4059  -46.8779 H         1 UNK         0.0600 
    159 H159        2.3288  -16.6863  -43.4514 H         1 UNK         0.3000 
    160 H160        5.1714  -15.7035  -41.5858 H         1 UNK         0.0600 
    161 H161        3.4608  -13.9692  -43.4380 H         1 UNK         0.0600 
    162 H162        5.2079  -14.1380  -43.5702 H         1 UNK         0.0600 
    163 H163        4.5061  -13.4138  -42.1331 H         1 UNK         0.0600 
    164 H164        2.6435  -14.7337  -41.2053 H         1 UNK         0.3000 
    165 H165        1.4735  -17.2766  -38.9747 H         1 UNK         0.0600 
    166 H166        1.4219  -15.1953  -37.6794 H         1 UNK         0.0600 
    167 H167        3.0879  -15.5016  -38.1257 H         1 UNK         0.0600 
    168 H168        2.1582  -14.2839  -38.9923 H         1 UNK         0.0600 
    169 H169        0.4353  -15.7756  -41.1761 H         1 UNK         0.3000 
    170 H170       -2.8977  -16.0914  -39.9859 H         1 UNK         0.0600 
    171 H171       -2.4277  -13.7760  -39.1585 H         1 UNK         0.0600 
    172 H172       -1.5014  -13.4338  -40.6158 H         1 UNK         0.0600 
    173 H173       -3.2337  -13.7446  -40.7192 H         1 UNK         0.0600 
    174 H174       -1.8397  -15.0488  -42.4267 H         1 UNK         0.3000 
    175 H175       -0.8709  -17.9389  -44.0176 H         1 UNK         0.0600 
    176 H176       -3.2667  -18.5591  -44.1812 H         1 UNK         0.0600 
    177 H177       -3.7197  -16.8760  -44.3999 H         1 UNK         0.0600 
    178 H178       -2.7697  -17.7042  -45.6327 H         1 UNK         0.0600 
    179 H179       -1.7199  -15.5149  -45.1765 H         1 UNK         0.3000 
    180 H180        0.7682  -13.3209  -44.1332 H         1 UNK         0.0600 
    181 H181        1.8854  -13.3263  -46.3326 H         1 UNK         0.0600 
    182 H182        1.2093  -14.9073  -46.7191 H         1 UNK         0.0600 
    183 H183        2.3931  -14.7400  -45.4278 H         1 UNK         0.0600 
    184 H184       -0.6875  -13.4297  -46.5978 H         1 UNK         0.3000 
    185 H185       -3.8445  -12.4639  -45.4671 H         1 UNK         0.0600 
    186 H186       -1.7759  -10.6442  -46.8179 H         1 UNK         0.0600 
    187 H187       -3.5283  -10.4664  -46.9106 H         1 UNK         0.0600 
    188 H188       -2.7023  -10.2418  -45.3766 H         1 UNK         0.0600 
    189 H189       -2.7448  -12.5758  -48.0885 H         1 UNK         0.3000 
    190 H190        0.5917  -21.2449  -45.9473 H         1 UNK         0.3000 
    191 H191       -1.5461  -21.6354  -47.7459 H         1 UNK         0.0600 
    192 H192       -2.8014  -20.2795  -46.0817 H         1 UNK         0.0600 
    193 H193       -1.2012  -19.6062  -46.3569 H         1 UNK         0.0600 
    194 H194       -1.5273  -20.5294  -44.8901 H         1 UNK         0.0600 
    195 H195       -0.5459  -23.6674  -45.1669 H         1 UNK         0.3000 
    196 H196       -2.9402  -25.0141  -44.4710 H         1 UNK         0.0600 
    197 H197       -0.0657  -26.0706  -44.6278 H         1 UNK         0.0600 
    198 H198       -0.7711  -25.2346  -43.2436 H         1 UNK         0.0600 
    199 H199       -1.3859  -26.8073  -43.7297 H         1 UNK         0.0600 
    200 H200       -1.1716  -25.0248  -47.4694 H         1 UNK         0.3000 
    201 H201       -2.2476  -27.4875  -48.5603 H         1 UNK         0.0600 
    202 H202       -0.9828  -25.0492  -49.9172 H         1 UNK         0.0600 
    203 H203       -1.2640  -26.6140  -50.6666 H         1 UNK         0.0600 
    204 H204       -0.1083  -26.4702  -49.3522 H         1 UNK         0.0600 
    205 H205       -3.8195  -24.6796  -47.6973 H         1 UNK         0.3000 
    206 H206       -5.8475  -23.9139  -47.9290 H         1 UNK         0.0600 
    207 H207       -6.6990  -26.2448  -48.3168 H         1 UNK         0.0600 
    208 H208       -7.6477  -25.0259  -49.1430 H         1 UNK         0.0600 
    209 H209       -6.5165  -26.0211  -50.0528 H         1 UNK         0.0600 
    210 H210       -7.0273  -24.0233  -50.8802 H         1 UNK         0.3000 
    211 H211       -7.2164  -22.7497  -52.6448 H         1 UNK         0.0600 
    212 H212       -5.2635  -21.9190  -53.8472 H         1 UNK         0.0600 
    213 H213       -4.8866  -23.5034  -53.1946 H         1 UNK         0.0600 
    214 H214       -4.2451  -22.0528  -52.4261 H         1 UNK         0.0600 
    215 H215       -5.5585  -21.0922  -50.0391 H         1 UNK         0.3000 
    216 H216       -5.9070  -19.2439  -48.9052 H         1 UNK         0.0600 
    217 H217       -8.0751  -18.0897  -48.9226 H         1 UNK         0.0600 
    218 H218       -8.5071  -18.8154  -50.4621 H         1 UNK         0.0600 
    219 H219       -8.3377  -19.8222  -49.0237 H         1 UNK         0.0600 
    220 H220       -4.9818  -19.0871  -52.0300 H         1 UNK         0.3000 
    221 H221       -3.9415  -16.3929  -51.7317 H         1 UNK         0.0600 
    222 H222       -6.1254  -15.9180  -52.8768 H         1 UNK         0.0600 
    223 H223       -5.7542  -17.1199  -54.1094 H         1 UNK         0.0600 
    224 H224       -4.7824  -15.6566  -53.9781 H         1 UNK         0.0600 
    225 H225       -1.9702  -16.2503  -52.8190 H         1 UNK         0.3000 
    226 H226       -0.6150  -18.6584  -53.3976 H         1 UNK         0.0600 
    227 H227        0.1464  -15.7585  -54.0270 H         1 UNK         0.0600 
    228 H228        0.5372  -16.6474  -52.5543 H         1 UNK         0.0600 
    229 H229        1.2460  -17.1309  -54.0831 H         1 UNK         0.0600 
    230 H230       -2.2297  -16.3546  -55.5442 H         1 UNK         0.3000 
    231 H231       -1.2491  -17.3524  -58.0373 H         1 UNK         0.0600 
    232 H232       -3.8106  -15.8046  -57.3624 H         1 UNK         0.0600 
    233 H233       -3.1467  -16.0236  -58.9771 H         1 UNK         0.0600 
    234 H234       -2.2512  -15.0957  -57.7851 H         1 UNK         0.0600 
    235 H235       -3.8739  -18.3922  -55.9118 H         1 UNK         0.3000 
    236 H236       -5.0081  -20.2872  -57.8637 H         1 UNK         0.0600 
    237 H237       -6.5118  -20.8723  -55.9575 H         1 UNK         0.0600 
    238 H238       -5.6424  -19.7591  -54.9101 H         1 UNK         0.0600 
    239 H239       -6.5403  -19.1489  -56.2956 H         1 UNK         0.0600 
    240 H240       -2.9503  -20.2428  -54.9592 H         1 UNK         0.3000 
    241 H241       -2.6204  -23.0146  -54.6466 H         1 UNK         0.0600 
    242 H242        0.3419  -21.9975  -57.3620 H         1 UNK         0.3800 
    243 H243       -0.4917  -20.7118  -56.5164 H         1 UNK         0.3800 
    244 H244       -1.9306  -20.8549  -53.1406 H         1 UNK         0.0800 
    245 H245       -0.3600  -21.1677  -53.7968 H         1 UNK         0.0800 
    246 H246       -1.5265  -22.6883  -49.9826 H         1 UNK         0.0800 
    247 H247       -2.4567  -21.5404  -50.9142 H         1 UNK         0.0800 
@<TRIPOS>BOND
     1    1    2 1    
     2    1  127 1    
     3    1  128 1    
     4    1  129 1    
     5    2    3 2    
     6    2    4 am   BACKBONE|DICT|INTERRES
     7    4    5 1    
     8    4  130 1    
     9    5    6 1    
    10    5   65 1    
    11    5  131 1    
    12    6    7 1    
    13    6  132 1    
    14    6  133 1    
    15    7    8 1    
    16    8    9 1    
    17    8  134 1    
    18    8  135 1    
    19    9   10 ar   
    20    9   14 ar   
    21   10   11 ar   
    22   10  136 1    
    23   11   12 ar   
    24   11  126 1    
    25   12   13 ar   
    26   12  137 1    
    27   13   14 ar   
    28   13   15 1    
    29   14  138 1    
    30   15   16 1    
    31   15  139 1    
    32   15  140 1    
    33   16   17 1    
    34   17   18 1    
    35   17  141 1    
    36   17  142 1    
    37   18   19 1    
    38   18   67 1    
    39   18  143 1    
    40   19   20 am   BACKBONE|DICT|INTERRES
    41   19  144 1    
    42   20   21 2    
    43   20   22 1    
    44   22   23 1    
    45   22   24 1    
    46   22  145 1    
    47   23  146 1    
    48   23  147 1    
    49   23  148 1    
    50   24   25 am   BACKBONE|DICT|INTERRES
    51   24  149 1    
    52   25   26 2    
    53   25   27 1    
    54   27   28 1    
    55   27   29 1    
    56   27  150 1    
    57   28  151 1    
    58   28  152 1    
    59   28  153 1    
    60   29   30 am   BACKBONE|DICT|INTERRES
    61   29  154 1    
    62   30   31 2    
    63   30   32 1    
    64   32   33 1    
    65   32   34 1    
    66   32  155 1    
    67   33  156 1    
    68   33  157 1    
    69   33  158 1    
    70   34   35 am   BACKBONE|DICT|INTERRES
    71   34  159 1    
    72   35   36 2    
    73   35   37 1    
    74   37   38 1    
    75   37   39 1    
    76   37  160 1    
    77   38  161 1    
    78   38  162 1    
    79   38  163 1    
    80   39   40 am   BACKBONE|DICT|INTERRES
    81   39  164 1    
    82   40   41 2    
    83   40   42 1    
    84   42   43 1    
    85   42   44 1    
    86   42  165 1    
    87   43  166 1    
    88   43  167 1    
    89   43  168 1    
    90   44   45 am   BACKBONE|DICT|INTERRES
    91   44  169 1    
    92   45   46 2    
    93   45   47 1    
    94   47   48 1    
    95   47   49 1    
    96   47  170 1    
    97   48  171 1    
    98   48  172 1    
    99   48  173 1    
   100   49   50 am   BACKBONE|DICT|INTERRES
   101   49  174 1    
   102   50   51 2    
   103   50   52 1    
   104   52   53 1    
   105   52   54 1    
   106   52  175 1    
   107   53  176 1    
   108   53  177 1    
   109   53  178 1    
   110   54   55 am   BACKBONE|DICT|INTERRES
   111   54  179 1    
   112   55   56 2    
   113   55   57 1    
   114   57   58 1    
   115   57   59 1    
   116   57  180 1    
   117   58  181 1    
   118   58  182 1    
   119   58  183 1    
   120   59   60 am   BACKBONE|DICT|INTERRES
   121   59  184 1    
   122   60   61 2    
   123   60   62 1    
   124   62   63 1    
   125   62   64 1    
   126   62  185 1    
   127   63  186 1    
   128   63  187 1    
   129   63  188 1    
   130   64   65 am   BACKBONE|DICT|INTERRES
   131   64  189 1    
   132   65   66 2    
   133   67   68 2    
   134   67   69 am   BACKBONE|DICT|INTERRES
   135   69   70 1    
   136   69  190 1    
   137   70   71 1    
   138   70   72 1    
   139   70  191 1    
   140   71  192 1    
   141   71  193 1    
   142   71  194 1    
   143   72   73 2    
   144   72   74 am   BACKBONE|DICT|INTERRES
   145   74   75 1    
   146   74  195 1    
   147   75   76 1    
   148   75   77 1    
   149   75  196 1    
   150   76  197 1    
   151   76  198 1    
   152   76  199 1    
   153   77   78 2    
   154   77   79 am   BACKBONE|DICT|INTERRES
   155   79   80 1    
   156   79  200 1    
   157   80   81 1    
   158   80   82 1    
   159   80  201 1    
   160   81  202 1    
   161   81  203 1    
   162   81  204 1    
   163   82   83 2    
   164   82   84 am   BACKBONE|DICT|INTERRES
   165   84   85 1    
   166   84  205 1    
   167   85   86 1    
   168   85   87 1    
   169   85  206 1    
   170   86  207 1    
   171   86  208 1    
   172   86  209 1    
   173   87   88 2    
   174   87   89 am   BACKBONE|DICT|INTERRES
   175   89   90 1    
   176   89  210 1    
   177   90   91 1    
   178   90   92 1    
   179   90  211 1    
   180   91  212 1    
   181   91  213 1    
   182   91  214 1    
   183   92   93 2    
   184   92   94 am   BACKBONE|DICT|INTERRES
   185   94   95 1    
   186   94  215 1    
   187   95   96 1    
   188   95   97 1    
   189   95  216 1    
   190   96  217 1    
   191   96  218 1    
   192   96  219 1    
   193   97   98 2    
   194   97   99 am   BACKBONE|DICT|INTERRES
   195   99  100 1    
   196   99  220 1    
   197  100  101 1    
   198  100  102 1    
   199  100  221 1    
   200  101  222 1    
   201  101  223 1    
   202  101  224 1    
   203  102  103 2    
   204  102  104 am   BACKBONE|DICT|INTERRES
   205  104  105 1    
   206  104  225 1    
   207  105  106 1    
   208  105  107 1    
   209  105  226 1    
   210  106  227 1    
   211  106  228 1    
   212  106  229 1    
   213  107  108 2    
   214  107  109 am   BACKBONE|DICT|INTERRES
   215  109  110 1    
   216  109  230 1    
   217  110  111 1    
   218  110  112 1    
   219  110  231 1    
   220  111  232 1    
   221  111  233 1    
   222  111  234 1    
   223  112  113 2    
   224  112  114 am   BACKBONE|DICT|INTERRES
   225  114  115 1    
   226  114  235 1    
   227  115  116 1    
   228  115  117 1    
   229  115  236 1    
   230  116  237 1    
   231  116  238 1    
   232  116  239 1    
   233  117  118 2    
   234  117  119 am   BACKBONE|DICT|INTERRES
   235  119  120 1    
   236  119  240 1    
   237  120  121 1    
   238  120  124 1    
   239  120  241 1    
   240  121  122 am   BACKBONE|DICT|INTERRES
   241  121  123 2    
   242  122  242 1    
   243  122  243 1    
   244  124  125 1    
   245  124  244 1    
   246  124  245 1    
   247  125  126 1    
   248  126  246 1    
   249  126  247 1    
@<TRIPOS>SUBSTRUCTURE
     1 UNK         1 GROUP             0       ****    0 ROOT    
