@<TRIPOS>MOLECULE
3R540
247   249    1
SMALL
USER_CHARGES


@<TRIPOS>ATOM
      1 CA         -0.5493  -14.8215  -52.5148 C.3       0 UNK        -0.1800 
      2 C          -0.2185  -13.5398  -51.7699 C.2       0 UNK         0.5000 
      3 O          -0.5620  -12.4528  -52.2361 O.2       0 UNK        -0.5000 
      4 N           0.4514  -13.6680  -50.6202 N.am      1 UNK        -0.5000 
      5 CA          0.7555  -12.5772  -49.6923 C.3       1 UNK         0.1400 
      6 C6          2.1177  -12.8089  -48.9855 C.3       23 UNK        -0.0398 
      7 S7          2.1859  -14.3086  -47.9401 S.3       23 UNK        -0.2404 
      8 C8          3.6701  -15.1572  -48.5587 C.3       23 UNK        -0.0205 
      9 C9          3.3237  -16.2368  -49.5715 C.ar      23 UNK        -0.0193 
     10 C10         3.1846  -15.9291  -50.9290 C.ar      23 UNK        -0.1150 
     11 C11         2.9065  -16.9287  -51.8695 C.ar      23 UNK        -0.0193 
     12 C12         2.7652  -18.2498  -51.4212 C.ar      23 UNK        -0.1150 
     13 C13         2.8914  -18.5688  -50.0672 C.ar      23 UNK        -0.0193 
     14 C14         3.1708  -17.5583  -49.1467 C.ar      23 UNK        -0.1150 
     15 C15         2.7434  -20.0101  -49.6086 C.3       23 UNK        -0.0205 
     16 S16         1.0998  -20.3118  -48.8951 S.3       23 UNK        -0.2404 
     17 C17         0.9316  -22.1062  -49.1859 C.3       23 UNK        -0.0398 
     18 CA          0.1503  -22.8793  -48.0984 C.3       11 UNK         0.1400 
     19 N           0.7461  -22.7514  -46.7679 N.am      11 UNK        -0.5000 
     20 C           0.4770  -23.5693  -45.7436 C.2       10 UNK         0.5000 
     21 O          -0.3690  -24.4602  -45.8078 O.2       10 UNK        -0.5000 
     22 CA          1.2239  -23.3655  -44.4142 C.3       10 UNK         0.1400 
     23 CB          2.0245  -24.6204  -44.0142 C.3       10 UNK        -0.1800 
     24 N           2.0448  -22.1543  -44.3378 N.am      10 UNK        -0.5000 
     25 C           3.2145  -21.8748  -44.9309 C.2       9 UNK         0.5000 
     26 O           3.7779  -22.6297  -45.7231 O.2       9 UNK        -0.5000 
     27 CA          3.8615  -20.5108  -44.6012 C.3       9 UNK         0.1400 
     28 CB          3.9220  -19.6305  -45.8591 C.3       9 UNK        -0.1800 
     29 N           3.1645  -19.7724  -43.5440 N.am      9 UNK        -0.5000 
     30 C           3.1840  -20.0727  -42.2379 C.2       8 UNK         0.5000 
     31 O           3.8862  -20.9586  -41.7505 O.2       8 UNK        -0.5000 
     32 CA          2.2050  -19.2928  -41.3377 C.3       8 UNK         0.1400 
     33 CB          2.8426  -17.9889  -40.8355 C.3       8 UNK        -0.1800 
     34 N           0.9316  -18.9995  -42.0057 N.am      8 UNK        -0.5000 
     35 C           0.0418  -19.9292  -42.3860 C.2       7 UNK         0.5000 
     36 O           0.1788  -21.1299  -42.1593 O.2       7 UNK        -0.5000 
     37 CA         -1.1761  -19.4585  -43.1994 C.3       7 UNK         0.1400 
     38 CB         -2.2855  -18.9373  -42.2761 C.3       7 UNK        -0.1800 
     39 N          -0.8141  -18.4384  -44.1829 N.am      7 UNK        -0.5000 
     40 C          -0.1240  -18.6857  -45.3059 C.2       6 UNK         0.5000 
     41 O           0.1607  -19.8230  -45.6837 O.2       6 UNK        -0.5000 
     42 CA          0.3392  -17.4690  -46.1332 C.3       6 UNK         0.1400 
     43 CB         -0.6853  -17.1042  -47.2147 C.3       6 UNK        -0.1800 
     44 N           0.6073  -16.2927  -45.3065 N.am      6 UNK        -0.5000 
     45 C           1.6244  -16.1957  -44.4415 C.2       5 UNK         0.5000 
     46 O           2.4584  -17.0832  -44.2720 O.2       5 UNK        -0.5000 
     47 CA          1.6855  -14.9260  -43.5758 C.3       5 UNK         0.1400 
     48 CB          2.3281  -13.7552  -44.3332 C.3       5 UNK        -0.1800 
     49 N           0.3648  -14.5317  -43.0874 N.am      5 UNK        -0.5000 
     50 C          -0.3207  -15.1959  -42.1476 C.2       4 UNK         0.5000 
     51 O           0.0981  -16.2071  -41.5856 O.2       4 UNK        -0.5000 
     52 CA         -1.7214  -14.6590  -41.8009 C.3       4 UNK         0.1400 
     53 CB         -1.6256  -13.5178  -40.7775 C.3       4 UNK        -0.1800 
     54 N          -2.4556  -14.1944  -42.9785 N.am      4 UNK        -0.5000 
     55 C          -2.8954  -14.9979  -43.9567 C.2       3 UNK         0.5000 
     56 O          -2.7478  -16.2185  -43.9580 O.2       3 UNK        -0.5000 
     57 CA         -3.5666  -14.3164  -45.1626 C.3       3 UNK         0.1400 
     58 CB         -5.0515  -14.0479  -44.8759 C.3       3 UNK        -0.1800 
     59 N          -2.9153  -13.0702  -45.5803 N.am      3 UNK        -0.5000 
     60 C          -1.6336  -12.9747  -45.9566 C.2       2 UNK         0.5000 
     61 O          -0.8301  -13.9063  -45.8859 O.2       2 UNK        -0.5000 
     62 CA         -1.1576  -11.6049  -46.4742 C.3       2 UNK         0.1400 
     63 CB         -0.5272  -10.7933  -45.3321 C.3       2 UNK        -0.1800 
     64 N          -0.1760  -11.7581  -47.5501 N.am      2 UNK        -0.5000 
     65 C          -0.4407  -12.3221  -48.7378 C.2       1 UNK         0.5000 
     66 O          -1.5856  -12.6267  -49.0858 O.2       1 UNK        -0.5000 
     67 C          -1.3589  -22.5659  -48.0968 C.2       11 UNK         0.5000 
     68 O          -2.1403  -23.3573  -48.6265 O.2       11 UNK        -0.5000 
     69 N          -1.7567  -21.4637  -47.4428 N.am      12 UNK        -0.5000 
     70 CA         -3.1675  -21.0980  -47.2833 C.3       12 UNK         0.1400 
     71 CB         -3.3026  -19.6143  -46.9161 C.3       12 UNK        -0.1800 
     72 C          -3.8925  -21.9720  -46.2477 C.2       12 UNK         0.5000 
     73 O          -5.1128  -22.0917  -46.3220 O.2       12 UNK        -0.5000 
     74 N          -3.1437  -22.5767  -45.3154 N.am      13 UNK        -0.5000 
     75 CA         -3.6751  -23.5220  -44.3351 C.3       13 UNK         0.1400 
     76 CB         -2.6807  -23.6839  -43.1748 C.3       13 UNK        -0.1800 
     77 C          -4.0028  -24.8786  -44.9844 C.2       13 UNK         0.5000 
     78 O          -5.0821  -25.4201  -44.7458 O.2       13 UNK        -0.5000 
     79 N          -3.0763  -25.3883  -45.8087 N.am      14 UNK        -0.5000 
     80 CA         -3.2021  -26.6575  -46.5231 C.3       14 UNK         0.1400 
     81 CB         -1.8333  -27.0611  -47.0932 C.3       14 UNK        -0.1800 
     82 C          -4.2599  -26.6128  -47.6380 C.2       14 UNK         0.5000 
     83 O          -5.0808  -27.5263  -47.7307 O.2       14 UNK        -0.5000 
     84 N          -4.2242  -25.5569  -48.4627 N.am      15 UNK        -0.5000 
     85 CA         -5.1381  -25.3816  -49.5946 C.3       15 UNK         0.1400 
     86 CB         -4.4694  -24.4724  -50.6307 C.3       15 UNK        -0.1800 
     87 C          -6.5101  -24.8103  -49.1942 C.2       15 UNK         0.5000 
     88 O          -7.4477  -24.8948  -49.9869 O.2       15 UNK        -0.5000 
     89 N          -6.5900  -24.2135  -47.9967 N.am      16 UNK        -0.5000 
     90 CA         -7.7372  -23.5286  -47.3864 C.3       16 UNK         0.1400 
     91 CB         -8.9626  -24.4603  -47.2838 C.3       16 UNK        -0.1800 
     92 C          -8.0978  -22.1714  -48.0316 C.2       16 UNK         0.5000 
     93 O          -8.9839  -21.4882  -47.5152 O.2       16 UNK        -0.5000 
     94 N          -7.4172  -21.7827  -49.1180 N.am      17 UNK        -0.5000 
     95 CA         -7.6331  -20.5515  -49.8704 C.3       17 UNK         0.1400 
     96 CB         -8.9675  -20.6272  -50.6413 C.3       17 UNK        -0.1800 
     97 C          -6.4705  -20.3270  -50.8498 C.2       17 UNK         0.5000 
     98 O          -5.7008  -21.2526  -51.1255 O.2       17 UNK        -0.5000 
     99 N          -6.3922  -19.0944  -51.3732 N.am      18 UNK        -0.5000 
    100 CA        -5.5887  -18.6378  -52.5187 C.3       18 UNK         0.1400 
    101 CB        -6.0945  -19.3138  -53.8104 C.3       18 UNK        -0.1800 
    102 C         -4.0575  -18.7747  -52.3825 C.2       18 UNK         0.5000 
    103 O         -3.3541  -18.6081  -53.3819 O.2       18 UNK        -0.5000 
    104 N         -3.5647  -19.0958  -51.1762 N.am      19 UNK        -0.5000 
    105 CA        -2.1641  -19.4023  -50.8584 C.3       19 UNK         0.1400 
    106 CB        -1.3037  -18.1248  -50.9486 C.3       19 UNK        -0.1800 
    107 C         -1.6168  -20.5683  -51.7115 C.2       19 UNK         0.5000 
    108 O         -0.4982  -20.4923  -52.2164 O.2       19 UNK        -0.5000 
    109 N         -2.4497  -21.6048  -51.9032 N.am      20 UNK        -0.5000 
    110 CA        -2.2140  -22.7638  -52.7762 C.3       20 UNK         0.1400 
    111 CB        -1.0627  -23.6417  -52.2427 C.3       20 UNK        -0.1800 
    112 C         -2.0429  -22.3654  -54.2572 C.2       20 UNK         0.5000 
    113 O         -1.1602  -22.8780  -54.9466 O.2       20 UNK        -0.5000 
    114 N         -2.9026  -21.4367  -54.7003 N.am      21 UNK        -0.5000 
    115 CA        -2.9653  -20.8223  -56.0316 C.3       21 UNK         0.1400 
    116 CB        -3.2067  -21.8774  -57.1316 C.3       21 UNK        -0.1800 
    117 C         -1.7827  -19.8822  -56.3514 C.2       21 UNK         0.5000 
    118 O         -1.6048  -19.5065  -57.5116 O.2       21 UNK        -0.5000 
    119 N         -1.0184  -19.4853  -55.3261 N.am      22 UNK        -0.5000 
    120 CA         0.0058  -18.4340  -55.4058 C.3       22 UNK         0.1400 
    121 C         -0.5974  -17.0016  -55.4957 C.2       22 UNK         0.5000 
    122 N         -1.8165  -16.7683  -55.0198 N.am      22 UNK        -0.7600 
    123 O          0.0372  -16.0946  -56.0263 O.2       22 UNK        -0.5000 
    124 C124        1.0103  -18.5645  -54.2350 C.3       23 UNK        -0.0398 
    125 S125        2.6680  -17.8762  -54.5705 S.3       23 UNK        -0.2404 
    126 C126        2.7765  -16.5221  -53.3438 C.3       23 UNK        -0.0205 
    127 H127       -1.6221  -15.0115  -52.4823 H         1 UNK         0.0600 
    128 H128       -0.2481  -14.7301  -53.5575 H         1 UNK         0.0600 
    129 H129       -0.0366  -15.6811  -52.0840 H         1 UNK         0.0600 
    130 H130        0.6848  -14.5898  -50.2792 H         1 UNK         0.3000 
    131 H131        0.8643  -11.6567  -50.2695 H         1 UNK         0.0600 
    132 H132        2.8952  -12.8661  -49.7477 H         1 UNK         0.0800 
    133 H133        2.3921  -11.9484  -48.3741 H         1 UNK         0.0800 
    134 H134        4.1830  -15.6058  -47.7064 H         1 UNK         0.0800 
    135 H135        4.3773  -14.4451  -48.9855 H         1 UNK         0.0800 
    136 H136        3.3040  -14.9058  -51.2566 H         1 UNK         0.1150 
    137 H137        2.5592  -19.0504  -52.1137 H         1 UNK         0.1150 
    138 H138        3.2758  -17.8026  -48.0996 H         1 UNK         0.1150 
    139 H139        2.9046  -20.6816  -50.4534 H         1 UNK         0.0800 
    140 H140        3.5103  -20.2523  -48.8725 H         1 UNK         0.0800 
    141 H141        1.9287  -22.5412  -49.2661 H         1 UNK         0.0800 
    142 H142        0.4719  -22.2511  -50.1634 H         1 UNK         0.0800 
    143 H143        0.2296  -23.9350  -48.3688 H         1 UNK         0.0600 
    144 H144        1.4002  -21.9940  -46.6308 H         1 UNK         0.3000 
    145 H145        0.4470  -23.2343  -43.6622 H         1 UNK         0.0600 
    146 H146        2.5210  -24.4819  -43.0537 H         1 UNK         0.0600 
    147 H147        1.3676  -25.4857  -43.9172 H         1 UNK         0.0600 
    148 H148        2.7840  -24.8739  -44.7539 H         1 UNK         0.0600 
    149 H149        1.6645  -21.4438  -43.7257 H         1 UNK         0.3000 
    150 H150        4.8829  -20.7044  -44.2682 H         1 UNK         0.0600 
    151 H151        4.5203  -20.1033  -46.6384 H         1 UNK         0.0600 
    152 H152        4.3755  -18.6624  -45.6462 H         1 UNK         0.0600 
    153 H153        2.9277  -19.4538  -46.2692 H         1 UNK         0.0600 
    154 H154        2.6330  -18.9583  -43.8404 H         1 UNK         0.3000 
    155 H155        1.9881  -19.9175  -40.4687 H         1 UNK         0.0600 
    156 H156        3.0738  -17.3097  -41.6557 H         1 UNK         0.0600 
    157 H157        3.7736  -18.1896  -40.3040 H         1 UNK         0.0600 
    158 H158        2.1803  -17.4668  -40.1448 H         1 UNK         0.0600 
    159 H159        0.7201  -18.0202  -42.1674 H         1 UNK         0.3000 
    160 H160       -1.5710  -20.3246  -43.7350 H         1 UNK         0.0600 
    161 H161       -3.1845  -18.6939  -42.8425 H         1 UNK         0.0600 
    162 H162       -1.9760  -18.0419  -41.7369 H         1 UNK         0.0600 
    163 H163       -2.5628  -19.6887  -41.5357 H         1 UNK         0.0600 
    164 H164       -1.1047  -17.4879  -43.9834 H         1 UNK         0.3000 
    165 H165        1.2681  -17.7441  -46.6353 H         1 UNK         0.0600 
    166 H166       -0.3549  -16.2429  -47.7959 H         1 UNK         0.0600 
    167 H167       -0.8150  -17.9309  -47.9128 H         1 UNK         0.0600 
    168 H168       -1.6585  -16.8644  -46.7846 H         1 UNK         0.0600 
    169 H169       -0.0055  -15.4893  -45.4330 H         1 UNK         0.3000 
    170 H170        2.3162  -15.1479  -42.7124 H         1 UNK         0.0600 
    171 H171        3.2990  -14.0388  -44.7415 H         1 UNK         0.0600 
    172 H172        1.7074  -13.4227  -45.1643 H         1 UNK         0.0600 
    173 H173        2.4876  -12.9015  -43.6747 H         1 UNK         0.0600 
    174 H174       -0.0808  -13.7591  -43.5595 H         1 UNK         0.3000 
    175 H175       -2.2874  -15.4757  -41.3479 H         1 UNK         0.0600 
    176 H176       -2.6155  -13.1836  -40.4660 H         1 UNK         0.0600 
    177 H177       -1.0962  -13.8422  -39.8805 H         1 UNK         0.0600 
    178 H178       -1.0914  -12.6566  -41.1808 H         1 UNK         0.0600 
    179 H179       -2.6123  -13.2009  -43.0620 H         1 UNK         0.3000 
    180 H180       -3.5043  -15.0122  -46.0021 H         1 UNK         0.0600 
    181 H181       -5.1826  -13.3227  -44.0719 H         1 UNK         0.0600 
    182 H182       -5.5635  -14.9642  -44.5785 H         1 UNK         0.0600 
    183 H183       -5.5614  -13.6656  -45.7603 H         1 UNK         0.0600 
    184 H184       -3.5091  -12.2567  -45.6532 H         1 UNK         0.3000 
    185 H185       -2.0151  -11.0548  -46.8672 H         1 UNK         0.0600 
    186 H186        0.3454  -11.2956  -44.9128 H         1 UNK         0.0600 
    187 H187       -0.2133   -9.8075  -45.6757 H         1 UNK         0.0600 
    188 H188       -1.2396  -10.6411  -44.5203 H         1 UNK         0.0600 
    189 H189        0.7829  -11.5651  -47.3050 H         1 UNK         0.3000 
    190 H190       -1.0595  -20.8793  -46.9905 H         1 UNK         0.3000 
    191 H191       -3.6721  -21.2483  -48.2407 H         1 UNK         0.0600 
    192 H192       -2.8577  -18.9748  -47.6753 H         1 UNK         0.0600 
    193 H193       -2.8371  -19.3906  -45.9575 H         1 UNK         0.0600 
    194 H194       -4.3526  -19.3292  -46.8369 H         1 UNK         0.0600 
    195 H195       -2.1435  -22.4526  -45.3454 H         1 UNK         0.3000 
    196 H196       -4.6006  -23.1106  -43.9258 H         1 UNK         0.0600 
    197 H197       -3.1069  -24.3051  -42.3863 H         1 UNK         0.0600 
    198 H198       -2.4286  -22.7212  -42.7292 H         1 UNK         0.0600 
    199 H199       -1.7546  -24.1599  -43.4948 H         1 UNK         0.0600 
    200 H200       -2.1867  -24.9063  -45.9118 H         1 UNK         0.3000 
    201 H201       -3.5067  -27.4213  -45.8044 H         1 UNK         0.0600 
    202 H202       -1.0986  -27.1880  -46.2978 H         1 UNK         0.0600 
    203 H203       -1.4480  -26.3113  -47.7856 H         1 UNK         0.0600 
    204 H204       -1.8960  -28.0073  -47.6321 H         1 UNK         0.0600 
    205 H205       -3.5002  -24.8538  -48.3475 H         1 UNK         0.3000 
    206 H206       -5.3123  -26.3521  -50.0644 H         1 UNK         0.0600 
    207 H207       -3.5200  -24.8955  -50.9576 H         1 UNK         0.0600 
    208 H208       -5.0983  -24.3528  -51.5140 H         1 UNK         0.0600 
    209 H209       -4.2763  -23.4776  -50.2286 H         1 UNK         0.0600 
    210 H210       -5.7436  -24.1743  -47.4456 H         1 UNK         0.3000 
    211 H211       -7.4307  -23.3007  -46.3650 H         1 UNK         0.0600 
    212 H212       -9.4019  -24.6681  -48.2595 H         1 UNK         0.0600 
    213 H213       -9.7427  -24.0092  -46.6697 H         1 UNK         0.0600 
    214 H214       -8.6977  -25.4117  -46.8225 H         1 UNK         0.0600 
    215 H215       -6.6888  -22.3776  -49.4901 H         1 UNK         0.3000 
    216 H216       -7.6581  -19.7137  -49.1708 H         1 UNK         0.0600 
    217 H217       -9.1340  -19.7306  -51.2395 H         1 UNK         0.0600 
    218 H218       -9.8187  -20.7186  -49.9669 H         1 UNK         0.0600 
    219 H219       -8.9870  -21.4815  -51.3194 H         1 UNK         0.0600 
    220 H220       -7.0490  -18.4063  -51.0312 H         1 UNK         0.3000 
    221 H221       -5.7791  -17.5678  -52.6119 H         1 UNK         0.0600 
    222 H222       -5.8871  -20.3844  -53.8148 H         1 UNK         0.0600 
    223 H223       -7.1702  -19.1823  -53.9278 H         1 UNK         0.0600 
    224 H224       -5.6228  -18.8834  -54.6945 H         1 UNK         0.0600 
    225 H225       -4.2311  -19.2274  -50.4298 H         1 UNK         0.3000 
    226 H226       -2.1357  -19.7477  -49.8255 H         1 UNK         0.0600 
    227 H227       -1.6867  -17.3444  -50.2914 H         1 UNK         0.0600 
    228 H228       -0.2716  -18.3172  -50.6547 H         1 UNK         0.0600 
    229 H229       -1.2850  -17.7262  -51.9618 H         1 UNK         0.0600 
    230 H230       -3.3684  -21.5580  -51.4792 H         1 UNK         0.3000 
    231 H231       -3.1248  -23.3600  -52.7460 H         1 UNK         0.0600 
    232 H232       -1.2124  -23.8969  -51.1940 H         1 UNK         0.0600 
    233 H233       -0.0969  -23.1450  -52.3362 H         1 UNK         0.0600 
    234 H234       -1.0003  -24.5784  -52.7974 H         1 UNK         0.0600 
    235 H235       -3.5474  -21.0485  -54.0271 H         1 UNK         0.3000 
    236 H236       -3.8447  -20.1776  -56.0093 H         1 UNK         0.0600 
    237 H237       -3.4376  -21.4014  -58.0852 H         1 UNK         0.0600 
    238 H238       -2.3323  -22.5090  -57.2892 H         1 UNK         0.0600 
    239 H239       -4.0485  -22.5231  -56.8818 H         1 UNK         0.0600 
    240 H240       -1.2370  -19.8273  -54.3998 H         1 UNK         0.3000 
    241 H241        0.5580  -18.5994  -56.3330 H         1 UNK         0.0600 
    242 H242       -2.2090  -15.8453  -55.1031 H         1 UNK         0.3800 
    243 H243       -2.3438  -17.4971  -54.5458 H         1 UNK         0.3800 
    244 H244        0.5971  -18.1393  -53.3199 H         1 UNK         0.0800 
    245 H245        1.1761  -19.6209  -54.0198 H         1 UNK         0.0800 
    246 H246        1.9113  -15.8724  -53.4655 H         1 UNK         0.0800 
    247 H247        3.6452  -15.9171  -53.6072 H         1 UNK         0.0800 
@<TRIPOS>BOND
     1    1    2 1    
     2    1  127 1    
     3    1  128 1    
     4    1  129 1    
     5    2    3 2    
     6    2    4 am   BACKBONE|DICT|INTERRES
     7    4    5 1    
     8    4  130 1    
     9    5    6 1    
    10    5   65 1    
    11    5  131 1    
    12    6    7 1    
    13    6  132 1    
    14    6  133 1    
    15    7    8 1    
    16    8    9 1    
    17    8  134 1    
    18    8  135 1    
    19    9   10 ar   
    20    9   14 ar   
    21   10   11 ar   
    22   10  136 1    
    23   11   12 ar   
    24   11  126 1    
    25   12   13 ar   
    26   12  137 1    
    27   13   14 ar   
    28   13   15 1    
    29   14  138 1    
    30   15   16 1    
    31   15  139 1    
    32   15  140 1    
    33   16   17 1    
    34   17   18 1    
    35   17  141 1    
    36   17  142 1    
    37   18   19 1    
    38   18   67 1    
    39   18  143 1    
    40   19   20 am   BACKBONE|DICT|INTERRES
    41   19  144 1    
    42   20   21 2    
    43   20   22 1    
    44   22   23 1    
    45   22   24 1    
    46   22  145 1    
    47   23  146 1    
    48   23  147 1    
    49   23  148 1    
    50   24   25 am   BACKBONE|DICT|INTERRES
    51   24  149 1    
    52   25   26 2    
    53   25   27 1    
    54   27   28 1    
    55   27   29 1    
    56   27  150 1    
    57   28  151 1    
    58   28  152 1    
    59   28  153 1    
    60   29   30 am   BACKBONE|DICT|INTERRES
    61   29  154 1    
    62   30   31 2    
    63   30   32 1    
    64   32   33 1    
    65   32   34 1    
    66   32  155 1    
    67   33  156 1    
    68   33  157 1    
    69   33  158 1    
    70   34   35 am   BACKBONE|DICT|INTERRES
    71   34  159 1    
    72   35   36 2    
    73   35   37 1    
    74   37   38 1    
    75   37   39 1    
    76   37  160 1    
    77   38  161 1    
    78   38  162 1    
    79   38  163 1    
    80   39   40 am   BACKBONE|DICT|INTERRES
    81   39  164 1    
    82   40   41 2    
    83   40   42 1    
    84   42   43 1    
    85   42   44 1    
    86   42  165 1    
    87   43  166 1    
    88   43  167 1    
    89   43  168 1    
    90   44   45 am   BACKBONE|DICT|INTERRES
    91   44  169 1    
    92   45   46 2    
    93   45   47 1    
    94   47   48 1    
    95   47   49 1    
    96   47  170 1    
    97   48  171 1    
    98   48  172 1    
    99   48  173 1    
   100   49   50 am   BACKBONE|DICT|INTERRES
   101   49  174 1    
   102   50   51 2    
   103   50   52 1    
   104   52   53 1    
   105   52   54 1    
   106   52  175 1    
   107   53  176 1    
   108   53  177 1    
   109   53  178 1    
   110   54   55 am   BACKBONE|DICT|INTERRES
   111   54  179 1    
   112   55   56 2    
   113   55   57 1    
   114   57   58 1    
   115   57   59 1    
   116   57  180 1    
   117   58  181 1    
   118   58  182 1    
   119   58  183 1    
   120   59   60 am   BACKBONE|DICT|INTERRES
   121   59  184 1    
   122   60   61 2    
   123   60   62 1    
   124   62   63 1    
   125   62   64 1    
   126   62  185 1    
   127   63  186 1    
   128   63  187 1    
   129   63  188 1    
   130   64   65 am   BACKBONE|DICT|INTERRES
   131   64  189 1    
   132   65   66 2    
   133   67   68 2    
   134   67   69 am   BACKBONE|DICT|INTERRES
   135   69   70 1    
   136   69  190 1    
   137   70   71 1    
   138   70   72 1    
   139   70  191 1    
   140   71  192 1    
   141   71  193 1    
   142   71  194 1    
   143   72   73 2    
   144   72   74 am   BACKBONE|DICT|INTERRES
   145   74   75 1    
   146   74  195 1    
   147   75   76 1    
   148   75   77 1    
   149   75  196 1    
   150   76  197 1    
   151   76  198 1    
   152   76  199 1    
   153   77   78 2    
   154   77   79 am   BACKBONE|DICT|INTERRES
   155   79   80 1    
   156   79  200 1    
   157   80   81 1    
   158   80   82 1    
   159   80  201 1    
   160   81  202 1    
   161   81  203 1    
   162   81  204 1    
   163   82   83 2    
   164   82   84 am   BACKBONE|DICT|INTERRES
   165   84   85 1    
   166   84  205 1    
   167   85   86 1    
   168   85   87 1    
   169   85  206 1    
   170   86  207 1    
   171   86  208 1    
   172   86  209 1    
   173   87   88 2    
   174   87   89 am   BACKBONE|DICT|INTERRES
   175   89   90 1    
   176   89  210 1    
   177   90   91 1    
   178   90   92 1    
   179   90  211 1    
   180   91  212 1    
   181   91  213 1    
   182   91  214 1    
   183   92   93 2    
   184   92   94 am   BACKBONE|DICT|INTERRES
   185   94   95 1    
   186   94  215 1    
   187   95   96 1    
   188   95   97 1    
   189   95  216 1    
   190   96  217 1    
   191   96  218 1    
   192   96  219 1    
   193   97   98 2    
   194   97   99 am   BACKBONE|DICT|INTERRES
   195   99  100 1    
   196   99  220 1    
   197  100  101 1    
   198  100  102 1    
   199  100  221 1    
   200  101  222 1    
   201  101  223 1    
   202  101  224 1    
   203  102  103 2    
   204  102  104 am   BACKBONE|DICT|INTERRES
   205  104  105 1    
   206  104  225 1    
   207  105  106 1    
   208  105  107 1    
   209  105  226 1    
   210  106  227 1    
   211  106  228 1    
   212  106  229 1    
   213  107  108 2    
   214  107  109 am   BACKBONE|DICT|INTERRES
   215  109  110 1    
   216  109  230 1    
   217  110  111 1    
   218  110  112 1    
   219  110  231 1    
   220  111  232 1    
   221  111  233 1    
   222  111  234 1    
   223  112  113 2    
   224  112  114 am   BACKBONE|DICT|INTERRES
   225  114  115 1    
   226  114  235 1    
   227  115  116 1    
   228  115  117 1    
   229  115  236 1    
   230  116  237 1    
   231  116  238 1    
   232  116  239 1    
   233  117  118 2    
   234  117  119 am   BACKBONE|DICT|INTERRES
   235  119  120 1    
   236  119  240 1    
   237  120  121 1    
   238  120  124 1    
   239  120  241 1    
   240  121  122 am   BACKBONE|DICT|INTERRES
   241  121  123 2    
   242  122  242 1    
   243  122  243 1    
   244  124  125 1    
   245  124  244 1    
   246  124  245 1    
   247  125  126 1    
   248  126  246 1    
   249  126  247 1    
@<TRIPOS>SUBSTRUCTURE
     1 UNK         1 GROUP             0       ****    0 ROOT    
