@<TRIPOS>MOLECULE
3R540
247   249    1
SMALL
USER_CHARGES


@<TRIPOS>ATOM
      1 CA          2.7339  -10.7476  -48.4836 C.3       0 UNK        -0.1800 
      2 C           1.8955  -11.0227  -47.2449 C.2       0 UNK         0.5000 
      3 O           2.0621  -10.3446  -46.2311 O.2       0 UNK        -0.5000 
      4 N           0.9817  -11.9994  -47.3273 N.am      1 UNK        -0.5000 
      5 CA          0.1288  -12.5088  -46.2387 C.3       1 UNK         0.1400 
      6 C6         -0.7201  -13.7164  -46.7027 C.3       23 UNK        -0.0398 
      7 S7          0.3076  -15.1430  -47.1927 S.3       23 UNK        -0.2404 
      8 C8         -0.3195  -15.5189  -48.8658 C.3       23 UNK        -0.0205 
      9 C9         -1.6303  -16.3096  -48.9370 C.ar      23 UNK        -0.0193 
     10 C10        -1.9439  -16.9516  -50.1384 C.ar      23 UNK        -0.1150 
     11 C11        -3.1523  -17.6356  -50.2982 C.ar      23 UNK        -0.0193 
     12 C12        -4.0599  -17.6827  -49.2383 C.ar      23 UNK        -0.1150 
     13 C13        -3.7608  -17.0610  -48.0232 C.ar      23 UNK        -0.0193 
     14 C14        -2.5452  -16.3839  -47.8770 C.ar      23 UNK        -0.1150 
     15 C15        -4.7649  -17.0923  -46.8771 C.3       23 UNK        -0.0205 
     16 S16        -5.0431  -18.7709  -46.2237 S.3       23 UNK        -0.2404 
     17 C17        -3.3621  -19.2437  -45.7016 C.3       23 UNK        -0.0398 
     18 CA         -2.7185  -20.2591  -46.6797 C.3       11 UNK         0.1400 
     19 N          -1.2736  -20.0676  -46.8128 N.am      11 UNK        -0.5000 
     20 C          -0.5586  -20.5093  -47.8554 C.2       10 UNK         0.5000 
     21 O          -1.0391  -21.1354  -48.8004 O.2       10 UNK        -0.5000 
     22 CA          0.9520  -20.2327  -47.8199 C.3       10 UNK         0.1400 
     23 CB          1.2394  -18.7685  -48.1783 C.3       10 UNK        -0.1800 
     24 N           1.5775  -20.5418  -46.5340 N.am      10 UNK        -0.5000 
     25 C           1.6854  -21.7703  -46.0098 C.2       9 UNK         0.5000 
     26 O           1.1450  -22.7648  -46.4902 O.2       9 UNK        -0.5000 
     27 CA          2.5340  -21.9119  -44.7373 C.3       9 UNK         0.1400 
     28 CB          4.0230  -21.6850  -45.0444 C.3       9 UNK        -0.1800 
     29 N           2.0984  -20.9532  -43.7275 N.am      9 UNK        -0.5000 
     30 C           1.4546  -21.2693  -42.5959 C.2       8 UNK         0.5000 
     31 O           1.2502  -22.4249  -42.2235 O.2       8 UNK        -0.5000 
     32 CA          0.9341  -20.1027  -41.7292 C.3       8 UNK         0.1400 
     33 CB          1.8820  -19.8487  -40.5475 C.3       8 UNK        -0.1800 
     34 N           0.7473  -18.8489  -42.4628 N.am      8 UNK        -0.5000 
     35 C          -0.0941  -18.6766  -43.4933 C.2       7 UNK         0.5000 
     36 O          -0.8334  -19.5589  -43.9278 O.2       7 UNK        -0.5000 
     37 CA         -0.0561  -17.3137  -44.2095 C.3       7 UNK         0.1400 
     38 CB         -1.0959  -16.3689  -43.5910 C.3       7 UNK        -0.1800 
     39 N           1.2568  -16.6659  -44.1807 N.am      7 UNK        -0.5000 
     40 C           2.4153  -17.2014  -44.5943 C.2       6 UNK         0.5000 
     41 O           2.5098  -18.3203  -45.1003 O.2       6 UNK        -0.5000 
     42 CA          3.6944  -16.3781  -44.3549 C.3       6 UNK         0.1400 
     43 CB          4.0866  -15.6360  -45.6418 C.3       6 UNK        -0.1800 
     44 N           3.6146  -15.4056  -43.2598 N.am      6 UNK        -0.5000 
     45 C           3.2461  -15.6274  -41.9879 C.2       5 UNK         0.5000 
     46 O           2.8816  -16.7264  -41.5666 O.2       5 UNK        -0.5000 
     47 CA          3.2789  -14.4190  -41.0249 C.3       5 UNK         0.1400 
     48 CB          4.2060  -14.7001  -39.8312 C.3       5 UNK        -0.1800 
     49 N           3.7052  -13.1683  -41.6642 N.am      5 UNK        -0.5000 
     50 C           2.9489  -12.4111  -42.4690 C.2       4 UNK         0.5000 
     51 O           1.7766  -12.6679  -42.7509 O.2       4 UNK        -0.5000 
     52 CA          3.6697  -11.2257  -43.1331 C.3       4 UNK         0.1400 
     53 CB          4.4337  -11.7085  -44.3776 C.3       4 UNK        -0.1800 
     54 N           2.7442  -10.1664  -43.5291 N.am      4 UNK        -0.5000 
     55 C           2.2191   -9.2663  -42.6880 C.2       3 UNK         0.5000 
     56 O           2.4583   -9.2495  -41.4794 O.2       3 UNK        -0.5000 
     57 CA          1.2907   -8.1925  -43.2801 C.3       3 UNK         0.1400 
     58 CB          2.1067   -7.0059  -43.8185 C.3       3 UNK        -0.1800 
     59 N           0.4366   -8.7149  -44.3478 N.am      3 UNK        -0.5000 
     60 C          -0.8794   -8.4785  -44.4539 C.2       2 UNK         0.5000 
     61 O          -1.5140   -7.7809  -43.6611 O.2       2 UNK        -0.5000 
     62 CA         -1.6280   -9.1161  -45.6448 C.3       2 UNK         0.1400 
     63 CB         -1.8332   -8.0831  -46.7636 C.3       2 UNK        -0.1800 
     64 N          -0.9487  -10.2845  -46.2036 N.am      2 UNK        -0.5000 
     65 C          -0.7839  -11.4534  -45.5703 C.2       1 UNK         0.5000 
     66 O          -1.3122  -11.7126  -44.4887 O.2       1 UNK        -0.5000 
     67 C          -3.0434  -21.7139  -46.2943 C.2       11 UNK         0.5000 
     68 O          -4.0260  -22.2685  -46.7835 O.2       11 UNK        -0.5000 
     69 N          -2.1821  -22.3228  -45.4655 N.am      12 UNK        -0.5000 
     70 CA         -2.2619  -23.7298  -45.0719 C.3       12 UNK         0.1400 
     71 CB         -1.2212  -24.0148  -43.9796 C.3       12 UNK        -0.1800 
     72 C          -2.0914  -24.6930  -46.2622 C.2       12 UNK         0.5000 
     73 O          -2.7893  -25.7045  -46.3231 O.2       12 UNK        -0.5000 
     74 N          -1.1927  -24.3487  -47.1954 N.am      13 UNK        -0.5000 
     75 CA         -0.9947  -25.0617  -48.4561 C.3       13 UNK         0.1400 
     76 CB          0.3249  -24.6088  -49.1003 C.3       13 UNK        -0.1800 
     77 C          -2.1681  -24.8706  -49.4340 C.2       13 UNK         0.5000 
     78 O          -2.5471  -25.8283  -50.1068 O.2       13 UNK        -0.5000 
     79 N          -2.7107  -23.6456  -49.4984 N.am      14 UNK        -0.5000 
     80 CA         -3.8266  -23.2809  -50.3724 C.3       14 UNK         0.1400 
     81 CB         -3.9541  -21.7509  -50.4234 C.3       14 UNK        -0.1800 
     82 C          -5.1665  -23.9211  -49.9583 C.2       14 UNK         0.5000 
     83 O          -5.9702  -24.2716  -50.8233 O.2       14 UNK        -0.5000 
     84 N          -5.4007  -24.0353  -48.6447 N.am      15 UNK        -0.5000 
     85 CA         -6.6132  -24.5994  -48.0567 C.3       15 UNK         0.1400 
     86 CB         -6.6121  -24.3285  -46.5441 C.3       15 UNK        -0.1800 
     87 C          -6.7594  -26.1072  -48.3360 C.2       15 UNK         0.5000 
     88 O          -5.8245  -26.8691  -48.0828 O.2       15 UNK        -0.5000 
     89 N          -7.9503  -26.5015  -48.8122 N.am      16 UNK        -0.5000 
     90 CA         -8.4013  -27.8792  -49.0582 C.3       16 UNK         0.1400 
     91 CB         -8.5821  -28.6276  -47.7204 C.3       16 UNK        -0.1800 
     92 C          -7.5371  -28.6679  -50.0691 C.2       16 UNK         0.5000 
     93 O          -7.4375  -29.8928  -49.9704 O.2       16 UNK        -0.5000 
     94 N          -6.9367  -27.9592  -51.0304 N.am      17 UNK        -0.5000 
     95 CA         -6.0656  -28.5001  -52.0696 C.3       17 UNK         0.1400 
     96 CB         -4.6591  -28.7636  -51.4878 C.3       17 UNK        -0.1800 
     97 C          -6.0552  -27.5316  -53.2659 C.2       17 UNK         0.5000 
     98 O          -6.9968  -26.7503  -53.4311 O.2       17 UNK        -0.5000 
     99 N          -4.9931  -27.5909  -54.0801 N.am      18 UNK        -0.5000 
    100 CA        -4.6813  -26.6048  -55.1165 C.3       18 UNK         0.1400 
    101 CB        -3.5133  -27.1328  -55.9647 C.3       18 UNK        -0.1800 
    102 C         -4.3269  -25.2367  -54.4992 C.2       18 UNK         0.5000 
    103 O         -3.9314  -25.1772  -53.3354 O.2       18 UNK        -0.5000 
    104 N         -4.4524  -24.1683  -55.2972 N.am      19 UNK        -0.5000 
    105 CA        -4.3147  -22.7681  -54.8751 C.3       19 UNK         0.1400 
    106 CB        -4.6746  -21.8628  -56.0624 C.3       19 UNK        -0.1800 
    107 C         -2.9426  -22.3713  -54.2886 C.2       19 UNK         0.5000 
    108 O         -2.8675  -21.3625  -53.5853 O.2       19 UNK        -0.5000 
    109 N         -1.8959  -23.1614  -54.5751 N.am      20 UNK        -0.5000 
    110 CA        -0.5314  -23.0488  -54.0511 C.3       20 UNK         0.1400 
    111 CB        -0.5049  -23.4409  -52.5552 C.3       20 UNK        -0.1800 
    112 C          0.0748  -21.6627  -54.3481 C.2       20 UNK         0.5000 
    113 O          0.3025  -21.3450  -55.5169 O.2       20 UNK        -0.5000 
    114 N          0.2727  -20.8459  -53.3045 N.am      21 UNK        -0.5000 
    115 CA         0.7476  -19.4617  -53.3744 C.3       21 UNK         0.1400 
    116 CB         0.9128  -18.9337  -51.9415 C.3       21 UNK        -0.1800 
    117 C         -0.1611  -18.5202  -54.1937 C.2       21 UNK         0.5000 
    118 O          0.3257  -17.5142  -54.7111 O.2       21 UNK        -0.5000 
    119 N         -1.4471  -18.8709  -54.3098 N.am      22 UNK        -0.5000 
    120 CA        -2.4475  -18.1820  -55.1367 C.3       22 UNK         0.1400 
    121 C         -2.5705  -18.7760  -56.5720 C.2       22 UNK         0.5000 
    122 N         -1.7896  -19.7782  -56.9620 N.am      22 UNK        -0.7600 
    123 O         -3.3839  -18.3056  -57.3624 O.2       22 UNK        -0.5000 
    124 C124       -3.8216  -18.1203  -54.4176 C.3       23 UNK        -0.0398 
    125 S125       -3.7725  -17.0724  -52.9257 S.3       23 UNK        -0.2404 
    126 C126       -3.4736  -18.3079  -51.6228 C.3       23 UNK        -0.0205 
    127 H127        3.7910  -10.8829  -48.2552 H         1 UNK         0.0600 
    128 H128        2.5844   -9.7206  -48.8164 H         1 UNK         0.0600 
    129 H129        2.4745  -11.4148  -49.3059 H         1 UNK         0.0600 
    130 H130        0.9019  -12.5088  -48.1955 H         1 UNK         0.3000 
    131 H131        0.8036  -12.8553  -45.4527 H         1 UNK         0.0600 
    132 H132       -1.3744  -13.4265  -47.5268 H         1 UNK         0.0800 
    133 H133       -1.3806  -14.0508  -45.9026 H         1 UNK         0.0800 
    134 H134       -0.4365  -14.5902  -49.4253 H         1 UNK         0.0800 
    135 H135        0.4592  -16.0822  -49.3815 H         1 UNK         0.0800 
    136 H136       -1.2549  -16.8981  -50.9696 H         1 UNK         0.1150 
    137 H137       -5.0007  -18.2022  -49.3551 H         1 UNK         0.1150 
    138 H138       -2.3329  -15.9029  -46.9360 H         1 UNK         0.1150 
    139 H139       -4.4446  -16.4430  -46.0608 H         1 UNK         0.0800 
    140 H140       -5.7159  -16.6906  -47.2293 H         1 UNK         0.0800 
    141 H141       -3.4045  -19.6296  -44.6814 H         1 UNK         0.0800 
    142 H142       -2.7577  -18.3387  -45.6410 H         1 UNK         0.0800 
    143 H143       -3.1431  -20.0883  -47.6714 H         1 UNK         0.0600 
    144 H144       -0.8001  -19.6482  -46.0238 H         1 UNK         0.3000 
    145 H145        1.4183  -20.8648  -48.5786 H         1 UNK         0.0600 
    146 H146        2.3092  -18.5879  -48.2831 H         1 UNK         0.0600 
    147 H147        0.7667  -18.4960  -49.1211 H         1 UNK         0.0600 
    148 H148        0.8595  -18.0888  -47.4159 H         1 UNK         0.0600 
    149 H149        2.0268  -19.7616  -46.0591 H         1 UNK         0.3000 
    150 H150        2.4186  -22.9360  -44.3763 H         1 UNK         0.0600 
    151 H151        4.3716  -22.3718  -45.8168 H         1 UNK         0.0600 
    152 H152        4.6347  -21.8547  -44.1583 H         1 UNK         0.0600 
    153 H153        4.2177  -20.6699  -45.3931 H         1 UNK         0.0600 
    154 H154        2.2054  -19.9736  -43.9656 H         1 UNK         0.3000 
    155 H155       -0.0383  -20.4016  -41.3326 H         1 UNK         0.0600 
    156 H156        1.4909  -19.0751  -39.8864 H         1 UNK         0.0600 
    157 H157        2.0144  -20.7513  -39.9494 H         1 UNK         0.0600 
    158 H158        2.8686  -19.5308  -40.8872 H         1 UNK         0.0600 
    159 H159        1.3494  -18.0781  -42.1931 H         1 UNK         0.3000 
    160 H160       -0.3164  -17.4794  -45.2562 H         1 UNK         0.0600 
    161 H161       -0.8942  -16.1877  -42.5344 H         1 UNK         0.0600 
    162 H162       -2.1004  -16.7872  -43.6672 H         1 UNK         0.0600 
    163 H163       -1.1065  -15.4040  -44.0944 H         1 UNK         0.0600 
    164 H164        1.2910  -15.7432  -43.7732 H         1 UNK         0.3000 
    165 H165        4.4886  -17.0841  -44.1055 H         1 UNK         0.0600 
    166 H166        5.0478  -15.1333  -45.5328 H         1 UNK         0.0600 
    167 H167        4.1763  -16.3271  -46.4812 H         1 UNK         0.0600 
    168 H168        3.3432  -14.8854  -45.9147 H         1 UNK         0.0600 
    169 H169        3.8889  -14.4640  -43.4924 H         1 UNK         0.3000 
    170 H170        2.2644  -14.2860  -40.6435 H         1 UNK         0.0600 
    171 H171        3.8929  -15.5953  -39.2919 H         1 UNK         0.0600 
    172 H172        5.2376  -14.8535  -40.1503 H         1 UNK         0.0600 
    173 H173        4.1931  -13.8751  -39.1187 H         1 UNK         0.0600 
    174 H174        4.6642  -12.8955  -41.5003 H         1 UNK         0.3000 
    175 H175        4.3904  -10.8104  -42.4251 H         1 UNK         0.0600 
    176 H176        5.2174  -12.4176  -44.1086 H         1 UNK         0.0600 
    177 H177        3.7732  -12.2059  -45.0889 H         1 UNK         0.0600 
    178 H178        4.9145  -10.8772  -44.8938 H         1 UNK         0.0600 
    179 H179        2.4937  -10.1481  -44.5148 H         1 UNK         0.3000 
    180 H180        0.6761   -7.8312  -42.4530 H         1 UNK         0.0600 
    181 H181        2.7324   -7.2997  -44.6623 H         1 UNK         0.0600 
    182 H182        2.7618   -6.5983  -43.0474 H         1 UNK         0.0600 
    183 H183        1.4539   -6.1986  -44.1507 H         1 UNK         0.0600 
    184 H184        0.8833   -9.3058  -45.0416 H         1 UNK         0.3000 
    185 H185       -2.6094   -9.4324  -45.2853 H         1 UNK         0.0600 
    186 H186       -2.4224   -8.4981  -47.5816 H         1 UNK         0.0600 
    187 H187       -2.3663   -7.2063  -46.3934 H         1 UNK         0.0600 
    188 H188       -0.8822   -7.7401  -47.1732 H         1 UNK         0.0600 
    189 H189       -0.4754  -10.1545  -47.0858 H         1 UNK         0.3000 
    190 H190       -1.4019  -21.7903  -45.1072 H         1 UNK         0.3000 
    191 H191       -3.2543  -23.8996  -44.6488 H         1 UNK         0.0600 
    192 H192       -0.2044  -23.8487  -44.3361 H         1 UNK         0.0600 
    193 H193       -1.2843  -25.0497  -43.6413 H         1 UNK         0.0600 
    194 H194       -1.3780  -23.3781  -43.1087 H         1 UNK         0.0600 
    195 H195       -0.5904  -23.5488  -47.0279 H         1 UNK         0.3000 
    196 H196       -0.9140  -26.1282  -48.2353 H         1 UNK         0.0600 
    197 H197        0.5021  -25.1351  -50.0389 H         1 UNK         0.0600 
    198 H198        1.1730  -24.8147  -48.4471 H         1 UNK         0.0600 
    199 H199        0.3218  -23.5399  -49.3171 H         1 UNK         0.0600 
    200 H200       -2.3021  -22.8998  -48.9483 H         1 UNK         0.3000 
    201 H201       -3.5843  -23.6247  -51.3774 H         1 UNK         0.0600 
    202 H202       -3.0241  -21.2885  -50.7540 H         1 UNK         0.0600 
    203 H203       -4.2104  -21.3327  -49.4501 H         1 UNK         0.0600 
    204 H204       -4.7318  -21.4511  -51.1266 H         1 UNK         0.0600 
    205 H205       -4.7121  -23.6689  -47.9951 H         1 UNK         0.3000 
    206 H206       -7.4661  -24.0744  -48.4919 H         1 UNK         0.0600 
    207 H207       -6.6056  -23.2585  -46.3351 H         1 UNK         0.0600 
    208 H208       -7.5003  -24.7472  -46.0693 H         1 UNK         0.0600 
    209 H209       -5.7394  -24.7690  -46.0595 H         1 UNK         0.0600 
    210 H210       -8.6404  -25.7886  -49.0047 H         1 UNK         0.3000 
    211 H211       -9.3868  -27.7948  -49.5183 H         1 UNK         0.0600 
    212 H212       -7.6270  -28.8033  -47.2244 H         1 UNK         0.0600 
    213 H213       -9.0552  -29.5983  -47.8728 H         1 UNK         0.0600 
    214 H214       -9.2168  -28.0648  -47.0359 H         1 UNK         0.0600 
    215 H215       -7.0952  -26.9607  -51.0854 H         1 UNK         0.3000 
    216 H216       -6.4849  -29.4423  -52.4282 H         1 UNK         0.0600 
    217 H217       -4.1680  -27.8322  -51.2017 H         1 UNK         0.0600 
    218 H218       -4.0159  -29.2754  -52.2038 H         1 UNK         0.0600 
    219 H219       -4.7058  -29.3962  -50.6014 H         1 UNK         0.0600 
    220 H220       -4.2552  -28.2403  -53.8523 H         1 UNK         0.3000 
    221 H221       -5.5590  -26.4840  -55.7549 H         1 UNK         0.0600 
    222 H222       -3.7581  -28.0932  -56.4188 H         1 UNK         0.0600 
    223 H223       -2.6097  -27.2640  -55.3678 H         1 UNK         0.0600 
    224 H224       -3.2733  -26.4445  -56.7760 H         1 UNK         0.0600 
    225 H225       -4.7542  -24.3122  -56.2502 H         1 UNK         0.3000 
    226 H226       -5.0501  -22.5985  -54.0857 H         1 UNK         0.0600 
    227 H227       -5.6747  -22.0793  -56.4381 H         1 UNK         0.0600 
    228 H228       -4.6638  -20.8126  -55.7728 H         1 UNK         0.0600 
    229 H229       -3.9708  -21.9831  -56.8870 H         1 UNK         0.0600 
    230 H230       -2.0646  -23.9450  -55.1883 H         1 UNK         0.3000 
    231 H231        0.0755  -23.7738  -54.5951 H         1 UNK         0.0600 
    232 H232       -1.1155  -22.7792  -51.9398 H         1 UNK         0.0600 
    233 H233        0.5113  -23.4226  -52.1595 H         1 UNK         0.0600 
    234 H234       -0.8852  -24.4530  -52.4145 H         1 UNK         0.0600 
    235 H235        0.0179  -21.1836  -52.3879 H         1 UNK         0.3000 
    236 H236        1.7273  -19.4691  -53.8562 H         1 UNK         0.0600 
    237 H237        1.6536  -19.5136  -51.3906 H         1 UNK         0.0600 
    238 H238        1.2460  -17.8949  -51.9379 H         1 UNK         0.0600 
    239 H239       -0.0269  -18.9815  -51.3902 H         1 UNK         0.0600 
    240 H240       -1.7614  -19.7374  -53.8839 H         1 UNK         0.3000 
    241 H241       -2.1225  -17.1515  -55.2911 H         1 UNK         0.0600 
    242 H242       -1.8806  -20.1307  -57.9011 H         1 UNK         0.3800 
    243 H243       -1.0864  -20.1752  -56.3486 H         1 UNK         0.3800 
    244 H244       -4.1748  -19.1176  -54.1550 H         1 UNK         0.0800 
    245 H245       -4.5817  -17.6945  -55.0746 H         1 UNK         0.0800 
    246 H246       -4.3507  -18.9498  -51.5316 H         1 UNK         0.0800 
    247 H247       -2.6430  -18.9576  -51.8979 H         1 UNK         0.0800 
@<TRIPOS>BOND
     1    1    2 1    
     2    1  127 1    
     3    1  128 1    
     4    1  129 1    
     5    2    3 2    
     6    2    4 am   BACKBONE|DICT|INTERRES
     7    4    5 1    
     8    4  130 1    
     9    5    6 1    
    10    5   65 1    
    11    5  131 1    
    12    6    7 1    
    13    6  132 1    
    14    6  133 1    
    15    7    8 1    
    16    8    9 1    
    17    8  134 1    
    18    8  135 1    
    19    9   10 ar   
    20    9   14 ar   
    21   10   11 ar   
    22   10  136 1    
    23   11   12 ar   
    24   11  126 1    
    25   12   13 ar   
    26   12  137 1    
    27   13   14 ar   
    28   13   15 1    
    29   14  138 1    
    30   15   16 1    
    31   15  139 1    
    32   15  140 1    
    33   16   17 1    
    34   17   18 1    
    35   17  141 1    
    36   17  142 1    
    37   18   19 1    
    38   18   67 1    
    39   18  143 1    
    40   19   20 am   BACKBONE|DICT|INTERRES
    41   19  144 1    
    42   20   21 2    
    43   20   22 1    
    44   22   23 1    
    45   22   24 1    
    46   22  145 1    
    47   23  146 1    
    48   23  147 1    
    49   23  148 1    
    50   24   25 am   BACKBONE|DICT|INTERRES
    51   24  149 1    
    52   25   26 2    
    53   25   27 1    
    54   27   28 1    
    55   27   29 1    
    56   27  150 1    
    57   28  151 1    
    58   28  152 1    
    59   28  153 1    
    60   29   30 am   BACKBONE|DICT|INTERRES
    61   29  154 1    
    62   30   31 2    
    63   30   32 1    
    64   32   33 1    
    65   32   34 1    
    66   32  155 1    
    67   33  156 1    
    68   33  157 1    
    69   33  158 1    
    70   34   35 am   BACKBONE|DICT|INTERRES
    71   34  159 1    
    72   35   36 2    
    73   35   37 1    
    74   37   38 1    
    75   37   39 1    
    76   37  160 1    
    77   38  161 1    
    78   38  162 1    
    79   38  163 1    
    80   39   40 am   BACKBONE|DICT|INTERRES
    81   39  164 1    
    82   40   41 2    
    83   40   42 1    
    84   42   43 1    
    85   42   44 1    
    86   42  165 1    
    87   43  166 1    
    88   43  167 1    
    89   43  168 1    
    90   44   45 am   BACKBONE|DICT|INTERRES
    91   44  169 1    
    92   45   46 2    
    93   45   47 1    
    94   47   48 1    
    95   47   49 1    
    96   47  170 1    
    97   48  171 1    
    98   48  172 1    
    99   48  173 1    
   100   49   50 am   BACKBONE|DICT|INTERRES
   101   49  174 1    
   102   50   51 2    
   103   50   52 1    
   104   52   53 1    
   105   52   54 1    
   106   52  175 1    
   107   53  176 1    
   108   53  177 1    
   109   53  178 1    
   110   54   55 am   BACKBONE|DICT|INTERRES
   111   54  179 1    
   112   55   56 2    
   113   55   57 1    
   114   57   58 1    
   115   57   59 1    
   116   57  180 1    
   117   58  181 1    
   118   58  182 1    
   119   58  183 1    
   120   59   60 am   BACKBONE|DICT|INTERRES
   121   59  184 1    
   122   60   61 2    
   123   60   62 1    
   124   62   63 1    
   125   62   64 1    
   126   62  185 1    
   127   63  186 1    
   128   63  187 1    
   129   63  188 1    
   130   64   65 am   BACKBONE|DICT|INTERRES
   131   64  189 1    
   132   65   66 2    
   133   67   68 2    
   134   67   69 am   BACKBONE|DICT|INTERRES
   135   69   70 1    
   136   69  190 1    
   137   70   71 1    
   138   70   72 1    
   139   70  191 1    
   140   71  192 1    
   141   71  193 1    
   142   71  194 1    
   143   72   73 2    
   144   72   74 am   BACKBONE|DICT|INTERRES
   145   74   75 1    
   146   74  195 1    
   147   75   76 1    
   148   75   77 1    
   149   75  196 1    
   150   76  197 1    
   151   76  198 1    
   152   76  199 1    
   153   77   78 2    
   154   77   79 am   BACKBONE|DICT|INTERRES
   155   79   80 1    
   156   79  200 1    
   157   80   81 1    
   158   80   82 1    
   159   80  201 1    
   160   81  202 1    
   161   81  203 1    
   162   81  204 1    
   163   82   83 2    
   164   82   84 am   BACKBONE|DICT|INTERRES
   165   84   85 1    
   166   84  205 1    
   167   85   86 1    
   168   85   87 1    
   169   85  206 1    
   170   86  207 1    
   171   86  208 1    
   172   86  209 1    
   173   87   88 2    
   174   87   89 am   BACKBONE|DICT|INTERRES
   175   89   90 1    
   176   89  210 1    
   177   90   91 1    
   178   90   92 1    
   179   90  211 1    
   180   91  212 1    
   181   91  213 1    
   182   91  214 1    
   183   92   93 2    
   184   92   94 am   BACKBONE|DICT|INTERRES
   185   94   95 1    
   186   94  215 1    
   187   95   96 1    
   188   95   97 1    
   189   95  216 1    
   190   96  217 1    
   191   96  218 1    
   192   96  219 1    
   193   97   98 2    
   194   97   99 am   BACKBONE|DICT|INTERRES
   195   99  100 1    
   196   99  220 1    
   197  100  101 1    
   198  100  102 1    
   199  100  221 1    
   200  101  222 1    
   201  101  223 1    
   202  101  224 1    
   203  102  103 2    
   204  102  104 am   BACKBONE|DICT|INTERRES
   205  104  105 1    
   206  104  225 1    
   207  105  106 1    
   208  105  107 1    
   209  105  226 1    
   210  106  227 1    
   211  106  228 1    
   212  106  229 1    
   213  107  108 2    
   214  107  109 am   BACKBONE|DICT|INTERRES
   215  109  110 1    
   216  109  230 1    
   217  110  111 1    
   218  110  112 1    
   219  110  231 1    
   220  111  232 1    
   221  111  233 1    
   222  111  234 1    
   223  112  113 2    
   224  112  114 am   BACKBONE|DICT|INTERRES
   225  114  115 1    
   226  114  235 1    
   227  115  116 1    
   228  115  117 1    
   229  115  236 1    
   230  116  237 1    
   231  116  238 1    
   232  116  239 1    
   233  117  118 2    
   234  117  119 am   BACKBONE|DICT|INTERRES
   235  119  120 1    
   236  119  240 1    
   237  120  121 1    
   238  120  124 1    
   239  120  241 1    
   240  121  122 am   BACKBONE|DICT|INTERRES
   241  121  123 2    
   242  122  242 1    
   243  122  243 1    
   244  124  125 1    
   245  124  244 1    
   246  124  245 1    
   247  125  126 1    
   248  126  246 1    
   249  126  247 1    
@<TRIPOS>SUBSTRUCTURE
     1 UNK         1 GROUP             0       ****    0 ROOT    
