@<TRIPOS>MOLECULE
3R540
247   249    1
SMALL
USER_CHARGES


@<TRIPOS>ATOM
      1 CA         -3.3049  -10.8140  -43.7715 C.3       0 UNK        -0.1800 
      2 C          -2.4133  -11.9974  -44.1153 C.2       0 UNK         0.5000 
      3 O          -1.1959  -11.9064  -43.9700 O.2       0 UNK        -0.5000 
      4 N          -3.0114  -13.1152  -44.5466 N.am      1 UNK        -0.5000 
      5 CA         -2.3338  -14.3540  -44.9589 C.3       1 UNK         0.1400 
      6 C6         -3.3661  -15.3566  -45.5344 C.3       23 UNK        -0.0398 
      7 S7         -2.6448  -16.7601  -46.4466 S.3       23 UNK        -0.2404 
      8 C8         -2.3947  -16.0328  -48.1010 C.3       23 UNK        -0.0205 
      9 C9         -1.9701  -17.0777  -49.1262 C.ar      23 UNK        -0.0193 
     10 C10        -2.6484  -17.1792  -50.3441 C.ar      23 UNK        -0.1150 
     11 C11        -2.3020  -18.1650  -51.2718 C.ar      23 UNK        -0.0193 
     12 C12        -1.2800  -19.0686  -50.9628 C.ar      23 UNK        -0.1150 
     13 C13        -0.5694  -18.9631  -49.7639 C.ar      23 UNK        -0.0193 
     14 C14        -0.9091  -17.9501  -48.8616 C.ar      23 UNK        -0.1150 
     15 C15         0.5562  -19.9522  -49.4619 C.3       23 UNK        -0.0205 
     16 S16         0.6180  -20.5170  -47.7238 S.3       23 UNK        -0.2404 
     17 C17        -1.0975  -21.0785  -47.4556 C.3       23 UNK        -0.0398 
     18 CA         -1.1845  -22.4305  -46.7130 C.3       11 UNK         0.1400 
     19 N          -0.6169  -22.3726  -45.3620 N.am      11 UNK        -0.5000 
     20 C          -0.4537  -23.4365  -44.5599 C.2       10 UNK         0.5000 
     21 O          -0.7191  -24.5869  -44.9057 O.2       10 UNK        -0.5000 
     22 CA          0.0320  -23.1901  -43.1183 C.3       10 UNK         0.1400 
     23 CB          1.5281  -23.5148  -42.9997 C.3       10 UNK        -0.1800 
     24 N          -0.1976  -21.8297  -42.6317 N.am      10 UNK        -0.5000 
     25 C          -1.3853  -21.2159  -42.5148 C.2       9 UNK         0.5000 
     26 O          -2.4619  -21.7569  -42.7684 O.2       9 UNK        -0.5000 
     27 CA         -1.3457  -19.7267  -42.1099 C.3       9 UNK         0.1400 
     28 CB         -1.5459  -19.5709  -40.5955 C.3       9 UNK        -0.1800 
     29 N          -0.0914  -19.0722  -42.5022 N.am      9 UNK        -0.5000 
     30 C           0.2864  -18.8881  -43.7743 C.2       8 UNK         0.5000 
     31 O          -0.4168  -19.1808  -44.7436 O.2       8 UNK        -0.5000 
     32 CA          1.7168  -18.3896  -43.9993 C.3       8 UNK         0.1400 
     33 CB          2.6999  -19.5761  -44.0110 C.3       8 UNK        -0.1800 
     34 N           1.7614  -17.6844  -45.2720 N.am      8 UNK        -0.5000 
     35 C           2.7011  -16.8075  -45.6336 C.2       7 UNK         0.5000 
     36 O           3.7191  -16.5941  -44.9693 O.2       7 UNK        -0.5000 
     37 CA          2.4664  -16.0632  -46.9614 C.3       7 UNK         0.1400 
     38 CB          1.1259  -15.3098  -46.9664 C.3       7 UNK        -0.1800 
     39 N           3.5233  -15.0810  -47.1730 N.am      7 UNK        -0.5000 
     40 C           4.3197  -14.9931  -48.2438 C.2       6 UNK         0.5000 
     41 O           4.2553  -15.7603  -49.2053 O.2       6 UNK        -0.5000 
     42 CA          5.3499  -13.8427  -48.2690 C.3       6 UNK         0.1400 
     43 CB          4.9909  -12.8227  -49.3620 C.3       6 UNK        -0.1800 
     44 N           5.4567  -13.1324  -46.9929 N.am      6 UNK        -0.5000 
     45 C           6.1426  -13.5641  -45.9266 C.2       5 UNK         0.5000 
     46 O           6.8351  -14.5823  -45.9275 O.2       5 UNK        -0.5000 
     47 CA          6.0307  -12.7213  -44.6397 C.3       5 UNK         0.1400 
     48 CB          7.2691  -11.8265  -44.4752 C.3       5 UNK        -0.1800 
     49 N           4.8270  -11.8832  -44.5703 N.am      5 UNK        -0.5000 
     50 C           3.5758  -12.3491  -44.4595 C.2       4 UNK         0.5000 
     51 O           3.2875  -13.5450  -44.4836 O.2       4 UNK        -0.5000 
     52 CA          2.4550  -11.3022  -44.3412 C.3       4 UNK         0.1400 
     53 CB          1.6726  -11.1977  -45.6598 C.3       4 UNK        -0.1800 
     54 N           1.5253  -11.6173  -43.2570 N.am      4 UNK        -0.5000 
     55 C           1.8335  -11.6005  -41.9532 C.2       3 UNK         0.5000 
     56 O           2.9512  -11.3167  -41.5196 O.2       3 UNK        -0.5000 
     57 CA          0.7058  -11.9256  -40.9603 C.3       3 UNK         0.1400 
     58 CB         -0.1730  -10.6855  -40.7279 C.3       3 UNK        -0.1800 
     59 N          -0.1429  -13.0288  -41.4134 N.am      3 UNK        -0.5000 
     60 C          -0.0809  -14.2815  -40.9400 C.2       2 UNK         0.5000 
     61 O           0.7674  -14.6610  -40.1316 O.2       2 UNK        -0.5000 
     62 CA         -1.1644  -15.2802  -41.4008 C.3       2 UNK         0.1400 
     63 CB         -2.1681  -15.5422  -40.2669 C.3       2 UNK        -0.1800 
     64 N          -1.9052  -14.8312  -42.5799 N.am      2 UNK        -0.5000 
     65 C          -1.4677  -14.9774  -43.8369 C.2       1 UNK         0.5000 
     66 O          -0.4096  -15.5365  -44.1178 O.2       1 UNK        -0.5000 
     67 C          -2.6434  -22.9339  -46.7197 C.2       11 UNK         0.5000 
     68 O          -3.0549  -23.5437  -47.7066 O.2       11 UNK        -0.5000 
     69 N          -3.3965  -22.6944  -45.6354 N.am      12 UNK        -0.5000 
     70 CA         -4.7572  -23.2047  -45.4662 C.3       12 UNK         0.1400 
     71 CB         -5.4695  -22.4171  -44.3572 C.3       12 UNK        -0.1800 
     72 C          -4.7723  -24.7139  -45.1654 C.2       12 UNK         0.5000 
     73 O          -5.6293  -25.4269  -45.6865 O.2       12 UNK        -0.5000 
     74 N          -3.8065  -25.1764  -44.3588 N.am      13 UNK        -0.5000 
     75 CA         -3.6232  -26.5847  -44.0018 C.3       13 UNK         0.1400 
     76 CB         -2.6903  -26.6859  -42.7849 C.3       13 UNK        -0.1800 
     77 C          -3.0835  -27.4176  -45.1785 C.2       13 UNK         0.5000 
     78 O          -3.5434  -28.5388  -45.3959 O.2       13 UNK        -0.5000 
     79 N          -2.1391  -26.8390  -45.9324 N.am      14 UNK        -0.5000 
     80 CA         -1.5496  -27.4214  -47.1400 C.3       14 UNK         0.1400 
     81 CB         -0.2443  -26.6728  -47.4542 C.3       14 UNK        -0.1800 
     82 C          -2.4878  -27.3837  -48.3637 C.2       14 UNK         0.5000 
     83 O          -2.2098  -28.0628  -49.3522 O.2       14 UNK        -0.5000 
     84 N          -3.5514  -26.5692  -48.2873 N.am      15 UNK        -0.5000 
     85 CA         -4.5309  -26.2593  -49.3360 C.3       15 UNK         0.1400 
     86 CB         -5.2960  -27.5187  -49.7908 C.3       15 UNK        -0.1800 
     87 C          -3.9392  -25.4584  -50.5163 C.2       15 UNK         0.5000 
     88 O          -4.5550  -25.3834  -51.5796 O.2       15 UNK        -0.5000 
     89 N          -2.7835  -24.8186  -50.2944 N.am      16 UNK        -0.5000 
     90 CA         -2.1496  -23.8789  -51.2178 C.3       16 UNK         0.1400 
     91 CB         -0.7100  -23.6083  -50.7567 C.3       16 UNK        -0.1800 
     92 C          -2.9393  -22.5632  -51.3288 C.2       16 UNK         0.5000 
     93 O          -2.9453  -21.9512  -52.3944 O.2       16 UNK        -0.5000 
     94 N          -3.6282  -22.1782  -50.2435 N.am      17 UNK        -0.5000 
     95 CA         -4.5111  -21.0114  -50.1830 C.3       17 UNK         0.1400 
     96 CB         -4.8863  -20.7330  -48.7200 C.3       17 UNK        -0.1800 
     97 C          -5.7774  -21.1490  -51.0508 C.2       17 UNK         0.5000 
     98 O          -6.3625  -20.1338  -51.4282 O.2       17 UNK        -0.5000 
     99 N          -6.1803  -22.3924  -51.3490 N.am      18 UNK        -0.5000 
    100 CA        -7.3312  -22.7079  -52.1947 C.3       18 UNK         0.1400 
    101 CB        -7.8400  -24.1153  -51.8446 C.3       18 UNK        -0.1800 
    102 C         -7.0166  -22.6023  -53.6997 C.2       18 UNK         0.5000 
    103 O         -7.9481  -22.4818  -54.4969 O.2       18 UNK        -0.5000 
    104 N         -5.7298  -22.6538  -54.0724 N.am      19 UNK        -0.5000 
    105 CA        -5.2690  -22.4917  -55.4480 C.3       19 UNK         0.1400 
    106 CB        -3.8769  -23.1268  -55.5986 C.3       19 UNK        -0.1800 
    107 C         -5.2245  -21.0004  -55.8122 C.2       19 UNK         0.5000 
    108 O         -4.6203  -20.2172  -55.0787 O.2       19 UNK        -0.5000 
    109 N         -5.8207  -20.6353  -56.9543 N.am      20 UNK        -0.5000 
    110 CA        -5.8616  -19.2586  -57.4627 C.3       20 UNK         0.1400 
    111 CB        -6.8299  -19.1903  -58.6535 C.3       20 UNK        -0.1800 
    112 C         -4.4766  -18.7085  -57.8593 C.2       20 UNK         0.5000 
    113 O         -4.2524  -17.5008  -57.7745 O.2       20 UNK        -0.5000 
    114 N         -3.5725  -19.6089  -58.2675 N.am      21 UNK        -0.5000 
    115 CA        -2.1745  -19.3107  -58.5801 C.3       21 UNK         0.1400 
    116 CB        -1.6588  -20.3732  -59.5642 C.3       21 UNK        -0.1800 
    117 C         -1.2734  -19.2546  -57.3286 C.2       21 UNK         0.5000 
    118 O         -0.1340  -18.8000  -57.4365 O.2       21 UNK        -0.5000 
    119 N         -1.7786  -19.7324  -56.1814 N.am      22 UNK        -0.5000 
    120 CA        -1.0886  -19.8109  -54.8808 C.3       22 UNK         0.1400 
    121 C          0.1340  -20.7786  -54.8291 C.2       22 UNK         0.5000 
    122 N          0.3030  -21.6854  -55.7840 N.am      22 UNK        -0.7600 
    123 O          0.9253  -20.7377  -53.8910 O.2       22 UNK        -0.5000 
    124 C124       -0.7781  -18.4108  -54.2745 C.3       23 UNK        -0.0398 
    125 S125       -2.2729  -17.4053  -53.9642 S.3       23 UNK        -0.2404 
    126 C126       -3.0729  -18.2858  -52.5799 C.3       23 UNK        -0.0205 
    127 H127       -3.0300   -9.9510  -44.3778 H         1 UNK         0.0600 
    128 H128       -3.1836  -10.5467  -42.7218 H         1 UNK         0.0600 
    129 H129       -4.3579  -11.0336  -43.9485 H         1 UNK         0.0600 
    130 H130       -4.0182  -13.1217  -44.6300 H         1 UNK         0.3000 
    131 H131       -1.6499  -14.0753  -45.7633 H         1 UNK         0.0600 
    132 H132       -3.9916  -15.7578  -44.7351 H         1 UNK         0.0800 
    133 H133       -4.0506  -14.8414  -46.2098 H         1 UNK         0.0800 
    134 H134       -3.3216  -15.5513  -48.4162 H         1 UNK         0.0800 
    135 H135       -1.6388  -15.2493  -48.0515 H         1 UNK         0.0800 
    136 H136       -3.4587  -16.4993  -50.5669 H         1 UNK         0.1150 
    137 H137       -1.0361  -19.8566  -51.6615 H         1 UNK         0.1150 
    138 H138       -0.3735  -17.8679  -47.9281 H         1 UNK         0.1150 
    139 H139        0.4715  -20.8297  -50.1042 H         1 UNK         0.0800 
    140 H140        1.5078  -19.4809  -49.7099 H         1 UNK         0.0800 
    141 H141       -1.5879  -21.1552  -48.4273 H         1 UNK         0.0800 
    142 H142       -1.6316  -20.2994  -46.9083 H         1 UNK         0.0800 
    143 H143       -0.5992  -23.1604  -47.2754 H         1 UNK         0.0600 
    144 H144       -0.3878  -21.4486  -45.0177 H         1 UNK         0.3000 
    145 H145       -0.5217  -23.8712  -42.4691 H         1 UNK         0.0600 
    146 H146        1.8711  -23.4294  -41.9685 H         1 UNK         0.0600 
    147 H147        1.7335  -24.5358  -43.3248 H         1 UNK         0.0600 
    148 H148        2.1345  -22.8471  -43.6132 H         1 UNK         0.0600 
    149 H149        0.6266  -21.2982  -42.3970 H         1 UNK         0.3000 
    150 H150       -2.1684  -19.2216  -42.6208 H         1 UNK         0.0600 
    151 H151       -0.7475  -20.0541  -40.0310 H         1 UNK         0.0600 
    152 H152       -2.4891  -20.0186  -40.2794 H         1 UNK         0.0600 
    153 H153       -1.5734  -18.5206  -40.3063 H         1 UNK         0.0600 
    154 H154        0.5405  -18.8201  -41.7559 H         1 UNK         0.3000 
    155 H155        1.9759  -17.6956  -43.1968 H         1 UNK         0.0600 
    156 H156        2.4631  -20.2831  -44.8076 H         1 UNK         0.0600 
    157 H157        2.6713  -20.1210  -43.0670 H         1 UNK         0.0600 
    158 H158        3.7273  -19.2427  -44.1566 H         1 UNK         0.0600 
    159 H159        0.9299  -17.8127  -45.8352 H         1 UNK         0.3000 
    160 H160        2.4592  -16.8103  -47.7576 H         1 UNK         0.0600 
    161 H161        1.0997  -14.5417  -46.1930 H         1 UNK         0.0600 
    162 H162        0.2894  -15.9807  -46.7815 H         1 UNK         0.0600 
    163 H163        0.9489  -14.8257  -47.9268 H         1 UNK         0.0600 
    164 H164        3.6974  -14.4784  -46.3762 H         1 UNK         0.3000 
    165 H165        6.3207  -14.2783  -48.5145 H         1 UNK         0.0600 
    166 H166        5.7389  -12.0321  -49.4253 H         1 UNK         0.0600 
    167 H167        4.9414  -13.2989  -50.3421 H         1 UNK         0.0600 
    168 H168        4.0228  -12.3565  -49.1746 H         1 UNK         0.0600 
    169 H169        4.9225  -12.2810  -46.9024 H         1 UNK         0.3000 
    170 H170        6.0001  -13.4187  -43.7997 H         1 UNK         0.0600 
    171 H171        8.1849  -12.4191  -44.4901 H         1 UNK         0.0600 
    172 H172        7.3422  -11.0896  -45.2760 H         1 UNK         0.0600 
    173 H173        7.2467  -11.2915  -43.5255 H         1 UNK         0.0600 
    174 H174        4.9803  -10.8850  -44.5517 H         1 UNK         0.3000 
    175 H175        2.8999  -10.3279  -44.1289 H         1 UNK         0.0600 
    176 H176        2.3346  -10.9602  -46.4934 H         1 UNK         0.0600 
    177 H177        1.1622  -12.1313  -45.8990 H         1 UNK         0.0600 
    178 H178        0.9185  -10.4120  -45.6081 H         1 UNK         0.0600 
    179 H179        0.5722  -11.8411  -43.5338 H         1 UNK         0.3000 
    180 H180        1.1723  -12.1787  -40.0058 H         1 UNK         0.0600 
    181 H181       -0.6732  -10.3655  -41.6427 H         1 UNK         0.0600 
    182 H182        0.4238   -9.8457  -40.3696 H         1 UNK         0.0600 
    183 H183       -0.9399  -10.8817  -39.9784 H         1 UNK         0.0600 
    184 H184       -0.8094  -12.8122  -42.1439 H         1 UNK         0.3000 
    185 H185       -0.6640  -16.2236  -41.6299 H         1 UNK         0.0600 
    186 H186       -1.6639  -15.9225  -39.3774 H         1 UNK         0.0600 
    187 H187       -2.6981  -14.6331  -39.9802 H         1 UNK         0.0600 
    188 H188       -2.9096  -16.2856  -40.5604 H         1 UNK         0.0600 
    189 H189       -2.7762  -14.3467  -42.4185 H         1 UNK         0.3000 
    190 H190       -2.9932  -22.2032  -44.8460 H         1 UNK         0.3000 
    191 H191       -5.3072  -23.0467  -46.3957 H         1 UNK         0.0600 
    192 H192       -5.4866  -21.3502  -44.5805 H         1 UNK         0.0600 
    193 H193       -6.5045  -22.7443  -44.2511 H         1 UNK         0.0600 
    194 H194       -4.9837  -22.5497  -43.3900 H         1 UNK         0.0600 
    195 H195       -3.1239  -24.5246  -44.0010 H         1 UNK         0.3000 
    196 H196       -4.5947  -26.9956  -43.7187 H         1 UNK         0.0600 
    197 H197       -2.5676  -27.7244  -42.4747 H         1 UNK         0.0600 
    198 H198       -3.0928  -26.1381  -41.9327 H         1 UNK         0.0600 
    199 H199       -1.6974  -26.2897  -42.9997 H         1 UNK         0.0600 
    200 H200       -1.7603  -25.9435  -45.6321 H         1 UNK         0.3000 
    201 H201       -1.3084  -28.4673  -46.9398 H         1 UNK         0.0600 
    202 H202        0.2567  -27.1025  -48.3226 H         1 UNK         0.0600 
    203 H203        0.4527  -26.7270  -46.6176 H         1 UNK         0.0600 
    204 H204       -0.4274  -25.6193  -47.6683 H         1 UNK         0.0600 
    205 H205       -3.6656  -26.0458  -47.4302 H         1 UNK         0.3000 
    206 H206       -5.2562  -25.5933  -48.8662 H         1 UNK         0.0600 
    207 H207       -5.7007  -28.0632  -48.9377 H         1 UNK         0.0600 
    208 H208       -6.1364  -27.2532  -50.4333 H         1 UNK         0.0600 
    209 H209       -4.6598  -28.2006  -50.3553 H         1 UNK         0.0600 
    210 H210       -2.4015  -24.8658  -49.3598 H         1 UNK         0.3000 
    211 H211       -2.1161  -24.3358  -52.2091 H         1 UNK         0.0600 
    212 H212       -0.6813  -23.1541  -49.7664 H         1 UNK         0.0600 
    213 H213       -0.2025  -22.9307  -51.4449 H         1 UNK         0.0600 
    214 H214       -0.1284  -24.5295  -50.7197 H         1 UNK         0.0600 
    215 H215       -3.5563  -22.7421  -49.4020 H         1 UNK         0.3000 
    216 H216       -3.9591  -20.1513  -50.5554 H         1 UNK         0.0600 
    217 H217       -5.5423  -19.8649  -48.6433 H         1 UNK         0.0600 
    218 H218       -4.0042  -20.5189  -48.1177 H         1 UNK         0.0600 
    219 H219       -5.4076  -21.5791  -48.2726 H         1 UNK         0.0600 
    220 H220       -5.6296  -23.1741  -51.0248 H         1 UNK         0.3000 
    221 H221       -8.1325  -21.9987  -51.9762 H         1 UNK         0.0600 
    222 H222       -7.1053  -24.8833  -52.0866 H         1 UNK         0.0600 
    223 H223       -8.0780  -24.1987  -50.7841 H         1 UNK         0.0600 
    224 H224       -8.7490  -24.3489  -52.4003 H         1 UNK         0.0600 
    225 H225       -5.0136  -22.6724  -53.3592 H         1 UNK         0.3000 
    226 H226       -5.9550  -23.0121  -56.1199 H         1 UNK         0.0600 
    227 H227       -3.5311  -23.0676  -56.6312 H         1 UNK         0.0600 
    228 H228       -3.1327  -22.6285  -54.9765 H         1 UNK         0.0600 
    229 H229       -3.8923  -24.1807  -55.3202 H         1 UNK         0.0600 
    230 H230       -6.3007  -21.3329  -57.5052 H         1 UNK         0.3000 
    231 H231       -6.2518  -18.6188  -56.6682 H         1 UNK         0.0600 
    232 H232       -6.5045  -19.8303  -59.4747 H         1 UNK         0.0600 
    233 H233       -6.9029  -18.1727  -59.0396 H         1 UNK         0.0600 
    234 H234       -7.8345  -19.4988  -58.3637 H         1 UNK         0.0600 
    235 H235       -3.8539  -20.5765  -58.3237 H         1 UNK         0.3000 
    236 H236       -2.1168  -18.3363  -59.0700 H         1 UNK         0.0600 
    237 H237       -2.2515  -20.3834  -60.4791 H         1 UNK         0.0600 
    238 H238       -0.6257  -20.1731  -59.8516 H         1 UNK         0.0600 
    239 H239       -1.6912  -21.3739  -59.1315 H         1 UNK         0.0600 
    240 H240       -2.7473  -20.0232  -56.1631 H         1 UNK         0.3000 
    241 H241       -1.8041  -20.3002  -54.2233 H         1 UNK         0.0600 
    242 H242       -0.3374  -21.7424  -56.5584 H         1 UNK         0.3800 
    243 H243        1.0898  -22.3132  -55.7353 H         1 UNK         0.3800 
    244 H244       -0.2189  -18.4882  -53.3437 H         1 UNK         0.0800 
    245 H245       -0.1276  -17.8485  -54.9448 H         1 UNK         0.0800 
    246 H246       -4.0763  -17.8769  -52.4524 H         1 UNK         0.0800 
    247 H247       -3.2254  -19.3338  -52.8336 H         1 UNK         0.0800 
@<TRIPOS>BOND
     1    1    2 1    
     2    1  127 1    
     3    1  128 1    
     4    1  129 1    
     5    2    3 2    
     6    2    4 am   BACKBONE|DICT|INTERRES
     7    4    5 1    
     8    4  130 1    
     9    5    6 1    
    10    5   65 1    
    11    5  131 1    
    12    6    7 1    
    13    6  132 1    
    14    6  133 1    
    15    7    8 1    
    16    8    9 1    
    17    8  134 1    
    18    8  135 1    
    19    9   10 ar   
    20    9   14 ar   
    21   10   11 ar   
    22   10  136 1    
    23   11   12 ar   
    24   11  126 1    
    25   12   13 ar   
    26   12  137 1    
    27   13   14 ar   
    28   13   15 1    
    29   14  138 1    
    30   15   16 1    
    31   15  139 1    
    32   15  140 1    
    33   16   17 1    
    34   17   18 1    
    35   17  141 1    
    36   17  142 1    
    37   18   19 1    
    38   18   67 1    
    39   18  143 1    
    40   19   20 am   BACKBONE|DICT|INTERRES
    41   19  144 1    
    42   20   21 2    
    43   20   22 1    
    44   22   23 1    
    45   22   24 1    
    46   22  145 1    
    47   23  146 1    
    48   23  147 1    
    49   23  148 1    
    50   24   25 am   BACKBONE|DICT|INTERRES
    51   24  149 1    
    52   25   26 2    
    53   25   27 1    
    54   27   28 1    
    55   27   29 1    
    56   27  150 1    
    57   28  151 1    
    58   28  152 1    
    59   28  153 1    
    60   29   30 am   BACKBONE|DICT|INTERRES
    61   29  154 1    
    62   30   31 2    
    63   30   32 1    
    64   32   33 1    
    65   32   34 1    
    66   32  155 1    
    67   33  156 1    
    68   33  157 1    
    69   33  158 1    
    70   34   35 am   BACKBONE|DICT|INTERRES
    71   34  159 1    
    72   35   36 2    
    73   35   37 1    
    74   37   38 1    
    75   37   39 1    
    76   37  160 1    
    77   38  161 1    
    78   38  162 1    
    79   38  163 1    
    80   39   40 am   BACKBONE|DICT|INTERRES
    81   39  164 1    
    82   40   41 2    
    83   40   42 1    
    84   42   43 1    
    85   42   44 1    
    86   42  165 1    
    87   43  166 1    
    88   43  167 1    
    89   43  168 1    
    90   44   45 am   BACKBONE|DICT|INTERRES
    91   44  169 1    
    92   45   46 2    
    93   45   47 1    
    94   47   48 1    
    95   47   49 1    
    96   47  170 1    
    97   48  171 1    
    98   48  172 1    
    99   48  173 1    
   100   49   50 am   BACKBONE|DICT|INTERRES
   101   49  174 1    
   102   50   51 2    
   103   50   52 1    
   104   52   53 1    
   105   52   54 1    
   106   52  175 1    
   107   53  176 1    
   108   53  177 1    
   109   53  178 1    
   110   54   55 am   BACKBONE|DICT|INTERRES
   111   54  179 1    
   112   55   56 2    
   113   55   57 1    
   114   57   58 1    
   115   57   59 1    
   116   57  180 1    
   117   58  181 1    
   118   58  182 1    
   119   58  183 1    
   120   59   60 am   BACKBONE|DICT|INTERRES
   121   59  184 1    
   122   60   61 2    
   123   60   62 1    
   124   62   63 1    
   125   62   64 1    
   126   62  185 1    
   127   63  186 1    
   128   63  187 1    
   129   63  188 1    
   130   64   65 am   BACKBONE|DICT|INTERRES
   131   64  189 1    
   132   65   66 2    
   133   67   68 2    
   134   67   69 am   BACKBONE|DICT|INTERRES
   135   69   70 1    
   136   69  190 1    
   137   70   71 1    
   138   70   72 1    
   139   70  191 1    
   140   71  192 1    
   141   71  193 1    
   142   71  194 1    
   143   72   73 2    
   144   72   74 am   BACKBONE|DICT|INTERRES
   145   74   75 1    
   146   74  195 1    
   147   75   76 1    
   148   75   77 1    
   149   75  196 1    
   150   76  197 1    
   151   76  198 1    
   152   76  199 1    
   153   77   78 2    
   154   77   79 am   BACKBONE|DICT|INTERRES
   155   79   80 1    
   156   79  200 1    
   157   80   81 1    
   158   80   82 1    
   159   80  201 1    
   160   81  202 1    
   161   81  203 1    
   162   81  204 1    
   163   82   83 2    
   164   82   84 am   BACKBONE|DICT|INTERRES
   165   84   85 1    
   166   84  205 1    
   167   85   86 1    
   168   85   87 1    
   169   85  206 1    
   170   86  207 1    
   171   86  208 1    
   172   86  209 1    
   173   87   88 2    
   174   87   89 am   BACKBONE|DICT|INTERRES
   175   89   90 1    
   176   89  210 1    
   177   90   91 1    
   178   90   92 1    
   179   90  211 1    
   180   91  212 1    
   181   91  213 1    
   182   91  214 1    
   183   92   93 2    
   184   92   94 am   BACKBONE|DICT|INTERRES
   185   94   95 1    
   186   94  215 1    
   187   95   96 1    
   188   95   97 1    
   189   95  216 1    
   190   96  217 1    
   191   96  218 1    
   192   96  219 1    
   193   97   98 2    
   194   97   99 am   BACKBONE|DICT|INTERRES
   195   99  100 1    
   196   99  220 1    
   197  100  101 1    
   198  100  102 1    
   199  100  221 1    
   200  101  222 1    
   201  101  223 1    
   202  101  224 1    
   203  102  103 2    
   204  102  104 am   BACKBONE|DICT|INTERRES
   205  104  105 1    
   206  104  225 1    
   207  105  106 1    
   208  105  107 1    
   209  105  226 1    
   210  106  227 1    
   211  106  228 1    
   212  106  229 1    
   213  107  108 2    
   214  107  109 am   BACKBONE|DICT|INTERRES
   215  109  110 1    
   216  109  230 1    
   217  110  111 1    
   218  110  112 1    
   219  110  231 1    
   220  111  232 1    
   221  111  233 1    
   222  111  234 1    
   223  112  113 2    
   224  112  114 am   BACKBONE|DICT|INTERRES
   225  114  115 1    
   226  114  235 1    
   227  115  116 1    
   228  115  117 1    
   229  115  236 1    
   230  116  237 1    
   231  116  238 1    
   232  116  239 1    
   233  117  118 2    
   234  117  119 am   BACKBONE|DICT|INTERRES
   235  119  120 1    
   236  119  240 1    
   237  120  121 1    
   238  120  124 1    
   239  120  241 1    
   240  121  122 am   BACKBONE|DICT|INTERRES
   241  121  123 2    
   242  122  242 1    
   243  122  243 1    
   244  124  125 1    
   245  124  244 1    
   246  124  245 1    
   247  125  126 1    
   248  126  246 1    
   249  126  247 1    
@<TRIPOS>SUBSTRUCTURE
     1 UNK         1 GROUP             0       ****    0 ROOT    
