@<TRIPOS>MOLECULE
3R540
247   249    1
SMALL
USER_CHARGES


@<TRIPOS>ATOM
      1 CA         -3.1453  -12.3523  -47.5676 C.3       0 UNK        -0.1800 
      2 C          -1.9026  -13.1546  -47.2105 C.2       0 UNK         0.5000 
      3 O          -2.0203  -14.2874  -46.7505 O.2       0 UNK        -0.5000 
      4 N          -0.7153  -12.5661  -47.4128 N.am      1 UNK        -0.5000 
      5 CA          0.6101  -13.1536  -47.1552 C.3       1 UNK         0.1400 
      6 C6          0.8549  -14.4741  -47.9422 C.3       23 UNK        -0.0398 
      7 S7          2.5404  -14.5742  -48.6370 S.3       23 UNK        -0.2404 
      8 C8          3.1050  -16.1950  -48.0159 C.3       23 UNK        -0.0205 
      9 C9          2.7902  -17.4188  -48.8844 C.ar      23 UNK        -0.0193 
     10 C10         2.1877  -17.3317  -50.1469 C.ar      23 UNK        -0.1150 
     11 C11         1.9577  -18.4768  -50.9169 C.ar      23 UNK        -0.0193 
     12 C12         2.3502  -19.7252  -50.4196 C.ar      23 UNK        -0.1150 
     13 C13         2.9483  -19.8352  -49.1614 C.ar      23 UNK        -0.0193 
     14 C14         3.1601  -18.6796  -48.4035 C.ar      23 UNK        -0.1150 
     15 C15         3.4319  -21.1891  -48.6502 C.3       23 UNK        -0.0205 
     16 S16         2.0834  -22.3515  -48.2521 S.3       23 UNK        -0.2404 
     17 C17         1.3348  -21.5849  -46.7716 C.3       23 UNK        -0.0398 
     18 CA         -0.2138  -21.6494  -46.7444 C.3       11 UNK         0.1400 
     19 N          -0.7657  -21.1062  -45.5006 N.am      11 UNK        -0.5000 
     20 C          -2.0490  -21.2018  -45.1199 C.2       10 UNK         0.5000 
     21 O          -2.8922  -21.8712  -45.7156 O.2       10 UNK        -0.5000 
     22 CA         -2.4781  -20.3668  -43.8967 C.3       10 UNK         0.1400 
     23 CB         -2.2273  -21.1301  -42.5881 C.3       10 UNK        -0.1800 
     24 N          -1.8185  -19.0598  -43.8458 N.am      10 UNK        -0.5000 
     25 C          -1.9793  -18.1010  -44.7700 C.2       9 UNK         0.5000 
     26 O          -2.7562  -18.1961  -45.7188 O.2       9 UNK        -0.5000 
     27 CA         -1.0880  -16.8530  -44.6444 C.3       9 UNK         0.1400 
     28 CB         -1.7043  -15.8453  -43.6662 C.3       9 UNK        -0.1800 
     29 N           0.2859  -17.1787  -44.2523 N.am      9 UNK        -0.5000 
     30 C           1.1217  -17.8990  -45.0144 C.2       8 UNK         0.5000 
     31 O           0.8438  -18.2623  -46.1546 O.2       8 UNK        -0.5000 
     32 CA          2.4462  -18.3658  -44.3799 C.3       8 UNK         0.1400 
     33 CB          3.5527  -17.3095  -44.4965 C.3       8 UNK        -0.1800 
     34 N           2.2627  -18.7175  -42.9754 N.am      8 UNK        -0.5000 
     35 C           1.6571  -19.8336  -42.5506 C.2       7 UNK         0.5000 
     36 O           1.2388  -20.7087  -43.3081 O.2       7 UNK        -0.5000 
     37 CA          1.4569  -19.9742  -41.0291 C.3       7 UNK         0.1400 
     38 CB          2.6485  -20.7078  -40.3969 C.3       7 UNK        -0.1800 
     39 N           1.2809  -18.6803  -40.3647 N.am      7 UNK        -0.5000 
     40 C           0.2140  -17.8842  -40.5267 C.2       6 UNK         0.5000 
     41 O          -0.7690  -18.1963  -41.1981 O.2       6 UNK        -0.5000 
     42 CA          0.2947  -16.4828  -39.8871 C.3       6 UNK         0.1400 
     43 CB         -0.1944  -16.5220  -38.4321 C.3       6 UNK        -0.1800 
     44 N           1.6494  -15.9191  -39.9341 N.am      6 UNK        -0.5000 
     45 C           2.2881  -15.6003  -41.0675 C.2       5 UNK         0.5000 
     46 O           1.7699  -15.6903  -42.1826 O.2       5 UNK        -0.5000 
     47 CA          3.7667  -15.2053  -40.9435 C.3       5 UNK         0.1400 
     48 CB          4.6113  -16.4647  -40.6465 C.3       5 UNK        -0.1800 
     49 N           4.1913  -14.5621  -42.1876 N.am      5 UNK        -0.5000 
     50 C           5.3912  -14.0220  -42.4396 C.2       4 UNK         0.5000 
     51 O           6.3283  -14.0192  -41.6405 O.2       4 UNK        -0.5000 
     52 CA          5.5613  -13.3201  -43.7993 C.3       4 UNK         0.1400 
     53 CB          5.5203  -14.3075  -44.9766 C.3       4 UNK        -0.1800 
     54 N           4.5450  -12.2871  -43.9825 N.am      4 UNK        -0.5000 
     55 C           4.5867  -11.0828  -43.3920 C.2       3 UNK         0.5000 
     56 O           5.5432  -10.6783  -42.7299 O.2       3 UNK        -0.5000 
     57 CA          3.3504  -10.1755  -43.5528 C.3       3 UNK         0.1400 
     58 CB          3.5462   -9.1999  -44.7234 C.3       3 UNK        -0.1800 
     59 N           2.1099  -10.9227  -43.7592 N.am      3 UNK        -0.5000 
     60 C           1.5479  -11.7487  -42.8654 C.2       2 UNK         0.5000 
     61 O           1.9714  -11.9071  -41.7202 O.2       2 UNK        -0.5000 
     62 CA          0.3201  -12.5504  -43.3333 C.3       2 UNK         0.1400 
     63 CB         -0.9662  -11.9857  -42.7112 C.3       2 UNK        -0.1800 
     64 N           0.1579  -12.6052  -44.7905 N.am      2 UNK        -0.5000 
     65 C           0.9617  -13.2541  -45.6475 C.2       1 UNK         0.5000 
     66 O           1.9734  -13.8569  -45.2863 O.2       1 UNK        -0.5000 
     67 C          -0.8629  -20.9778  -47.9728 C.2       11 UNK         0.5000 
     68 O          -1.4006  -21.6842  -48.8256 O.2       11 UNK        -0.5000 
     69 N          -0.8516  -19.6379  -48.0149 N.am      12 UNK        -0.5000 
     70 CA         -1.4136  -18.8273  -49.0982 C.3       12 UNK         0.1400 
     71 CB         -1.1521  -17.3431  -48.8132 C.3       12 UNK        -0.1800 
     72 C          -2.9136  -19.0694  -49.3414 C.2       12 UNK         0.5000 
     73 O          -3.3490  -19.1147  -50.4922 O.2       12 UNK        -0.5000 
     74 N          -3.6703  -19.2518  -48.2539 N.am      13 UNK        -0.5000 
     75 CA         -5.0988  -19.5586  -48.2652 C.3       13 UNK         0.1400 
     76 CB         -5.6585  -19.3240  -46.8530 C.3       13 UNK        -0.1800 
     77 C          -5.4379  -20.9848  -48.7461 C.2       13 UNK         0.5000 
     78 O          -6.6134  -21.2553  -48.9950 O.2       13 UNK        -0.5000 
     79 N          -4.4379  -21.8706  -48.8480 N.am      14 UNK        -0.5000 
     80 CA         -4.6111  -23.2757  -49.2027 C.3       14 UNK         0.1400 
     81 CB         -4.0339  -24.1515  -48.0777 C.3       14 UNK        -0.1800 
     82 C          -3.9482  -23.6171  -50.5435 C.2       14 UNK         0.5000 
     83 O          -4.6106  -24.1903  -51.4090 O.2       14 UNK        -0.5000 
     84 N          -2.6473  -23.3175  -50.6738 N.am      15 UNK        -0.5000 
     85 CA         -1.7226  -23.7850  -51.7130 C.3       15 UNK         0.1400 
     86 CB         -2.0014  -23.0919  -53.0617 C.3       15 UNK        -0.1800 
     87 C          -1.7152  -25.3264  -51.8032 C.2       15 UNK         0.5000 
     88 O          -1.0718  -25.9792  -50.9813 O.2       15 UNK        -0.5000 
     89 N          -2.4674  -25.8763  -52.7653 N.am      16 UNK        -0.5000 
     90 CA         -2.7085  -27.3097  -52.9502 C.3       16 UNK         0.1400 
     91 CB         -3.0959  -27.5441  -54.4202 C.3       16 UNK        -0.1800 
     92 C          -3.7941  -27.8804  -52.0082 C.2       16 UNK         0.5000 
     93 O          -4.0707  -29.0782  -52.0778 O.2       16 UNK        -0.5000 
     94 N          -4.4009  -27.0182  -51.1780 N.am      17 UNK        -0.5000 
     95 CA         -5.5787  -27.2391  -50.3325 C.3       17 UNK         0.1400 
     96 CB         -5.3766  -28.3979  -49.3335 C.3       17 UNK        -0.1800 
     97 C          -6.8427  -27.3652  -51.2008 C.2       17 UNK         0.5000 
     98 O          -7.5954  -28.3342  -51.0848 O.2       17 UNK        -0.5000 
     99 N          -7.0256  -26.3767  -52.0832 N.am      18 UNK        -0.5000 
    100 CA        -8.0906  -26.2984  -53.0762 C.3       18 UNK         0.1400 
    101 CB        -7.7507  -27.2245  -54.2646 C.3       18 UNK        -0.1800 
    102 C         -8.2611  -24.8329  -53.5145 C.2       18 UNK         0.5000 
    103 O         -7.6553  -23.9340  -52.9256 O.2       18 UNK        -0.5000 
    104 N         -9.0434  -24.6148  -54.5808 N.am      19 UNK        -0.5000 
    105 CA        -9.2697  -23.3156  -55.2303 C.3       19 UNK         0.1400 
    106 CB       -10.3923  -23.4760  -56.2679 C.3       19 UNK        -0.1800 
    107 C         -8.0111  -22.6954  -55.8821 C.2       19 UNK         0.5000 
    108 O         -8.0472  -21.5348  -56.2902 O.2       19 UNK        -0.5000 
    109 N         -6.9185  -23.4680  -55.9482 N.am      20 UNK        -0.5000 
    110 CA        -5.5868  -23.0737  -56.4091 C.3       20 UNK         0.1400 
    111 CB        -4.7630  -24.3543  -56.6287 C.3       20 UNK        -0.1800 
    112 C         -4.8375  -22.1057  -55.4641 C.2       20 UNK         0.5000 
    113 O         -3.7225  -21.7095  -55.8047 O.2       20 UNK        -0.5000 
    114 N         -5.4357  -21.7705  -54.3073 N.am      21 UNK        -0.5000 
    115 CA        -4.9622  -20.8496  -53.2659 C.3       21 UNK         0.1400 
    116 CB        -6.1465  -20.4982  -52.3534 C.3       21 UNK        -0.1800 
    117 C         -4.2957  -19.5720  -53.8179 C.2       21 UNK         0.5000 
    118 O         -4.9535  -18.7725  -54.4881 O.2       21 UNK        -0.5000 
    119 N         -2.9908  -19.4445  -53.5620 N.am      22 UNK        -0.5000 
    120 CA        -2.1100  -18.3985  -54.0972 C.3       22 UNK         0.1400 
    121 C         -2.1995  -17.0210  -53.3795 C.2       22 UNK         0.5000 
    122 N         -2.8404  -16.9113  -52.2237 N.am      22 UNK        -0.7600 
    123 O         -1.6933  -16.0280  -53.8949 O.2       22 UNK        -0.5000 
    124 C124       -0.6507  -18.9117  -54.2151 C.3       23 UNK        -0.0398 
    125 S125        0.0338  -19.5607  -52.6479 S.3       23 UNK        -0.2404 
    126 C126        1.3362  -18.3343  -52.3036 C.3       23 UNK        -0.0205 
    127 H127       -3.7274  -12.8810  -48.3224 H         1 UNK         0.0600 
    128 H128       -2.8943  -11.3666  -47.9600 H         1 UNK         0.0600 
    129 H129       -3.7711  -12.2186  -46.6852 H         1 UNK         0.0600 
    130 H130       -0.6981  -11.6301  -47.7949 H         1 UNK         0.3000 
    131 H131        1.2989  -12.4026  -47.5448 H         1 UNK         0.0600 
    132 H132        0.1757  -14.5409  -48.7929 H         1 UNK         0.0800 
    133 H133        0.6311  -15.3447  -47.3236 H         1 UNK         0.0800 
    134 H134        2.6779  -16.3400  -47.0261 H         1 UNK         0.0800 
    135 H135        4.1861  -16.1416  -47.8813 H         1 UNK         0.0800 
    136 H136        1.9009  -16.3713  -50.5479 H         1 UNK         0.1150 
    137 H137        2.1997  -20.6141  -51.0157 H         1 UNK         0.1150 
    138 H138        3.6360  -18.7590  -47.4369 H         1 UNK         0.1150 
    139 H139        4.0640  -21.6431  -49.4145 H         1 UNK         0.0800 
    140 H140        4.0660  -21.0675  -47.7705 H         1 UNK         0.0800 
    141 H141        1.6749  -20.5549  -46.6986 H         1 UNK         0.0800 
    142 H142        1.7377  -22.0928  -45.8943 H         1 UNK         0.0800 
    143 H143       -0.4925  -22.7051  -46.7753 H         1 UNK         0.0600 
    144 H144       -0.1279  -20.5860  -44.9102 H         1 UNK         0.3000 
    145 H145       -3.5522  -20.1887  -43.9804 H         1 UNK         0.0600 
    146 H146       -2.5475  -20.5485  -41.7233 H         1 UNK         0.0600 
    147 H147       -1.1743  -21.3749  -42.4564 H         1 UNK         0.0600 
    148 H148       -2.7835  -22.0681  -42.5745 H         1 UNK         0.0600 
    149 H149       -1.2174  -18.8740  -43.0499 H         1 UNK         0.3000 
    150 H150       -1.0439  -16.3861  -45.6288 H         1 UNK         0.0600 
    151 H151       -2.7375  -15.6233  -43.9365 H         1 UNK         0.0600 
    152 H152       -1.1627  -14.9054  -43.6933 H         1 UNK         0.0600 
    153 H153       -1.7025  -16.2109  -42.6405 H         1 UNK         0.0600 
    154 H154        0.6087  -16.8440  -43.3512 H         1 UNK         0.3000 
    155 H155        2.7833  -19.2593  -44.9095 H         1 UNK         0.0600 
    156 H156        3.9728  -17.2938  -45.4998 H         1 UNK         0.0600 
    157 H157        4.3824  -17.5169  -43.8215 H         1 UNK         0.0600 
    158 H158        3.1780  -16.3113  -44.2757 H         1 UNK         0.0600 
    159 H159        2.5282  -18.0210  -42.2968 H         1 UNK         0.3000 
    160 H160        0.5579  -20.5712  -40.8629 H         1 UNK         0.0600 
    161 H161        3.5770  -20.1477  -40.5159 H         1 UNK         0.0600 
    162 H162        2.7933  -21.6858  -40.8579 H         1 UNK         0.0600 
    163 H163        2.4895  -20.8729  -39.3311 H         1 UNK         0.0600 
    164 H164        2.0405  -18.3583  -39.7838 H         1 UNK         0.3000 
    165 H165       -0.3667  -15.8224  -40.4521 H         1 UNK         0.0600 
    166 H166       -0.2128  -15.5231  -37.9957 H         1 UNK         0.0600 
    167 H167       -1.2083  -16.9200  -38.3724 H         1 UNK         0.0600 
    168 H168        0.4424  -17.1501  -37.8080 H         1 UNK         0.0600 
    169 H169        2.1299  -15.8215  -39.0510 H         1 UNK         0.3000 
    170 H170        3.8668  -14.4869  -40.1279 H         1 UNK         0.0600 
    171 H171        4.5852  -17.1730  -41.4741 H         1 UNK         0.0600 
    172 H172        5.6549  -16.2184  -40.4548 H         1 UNK         0.0600 
    173 H173        4.2508  -16.9859  -39.7592 H         1 UNK         0.0600 
    174 H174        3.4605  -14.5110  -42.8876 H         1 UNK         0.3000 
    175 H175        6.5478  -12.8511  -43.8046 H         1 UNK         0.0600 
    176 H176        4.5158  -14.6850  -45.1573 H         1 UNK         0.0600 
    177 H177        5.8567  -13.8287  -45.8961 H         1 UNK         0.0600 
    178 H178        6.1718  -15.1639  -44.7983 H         1 UNK         0.0600 
    179 H179        3.7115  -12.5556  -44.4896 H         1 UNK         0.3000 
    180 H180        3.2451   -9.5947  -42.6341 H         1 UNK         0.0600 
    181 H181        2.7108   -8.5038  -44.8016 H         1 UNK         0.0600 
    182 H182        3.6373   -9.7256  -45.6748 H         1 UNK         0.0600 
    183 H183        4.4510   -8.6056  -44.5889 H         1 UNK         0.0600 
    184 H184        1.6804  -10.8461  -44.6688 H         1 UNK         0.3000 
    185 H185        0.4616  -13.5674  -42.9681 H         1 UNK         0.0600 
    186 H186       -1.1582  -10.9647  -43.0432 H         1 UNK         0.0600 
    187 H187       -1.8329  -12.5928  -42.9731 H         1 UNK         0.0600 
    188 H188       -0.9001  -11.9706  -41.6225 H         1 UNK         0.0600 
    189 H189       -0.6453  -12.1275  -45.1720 H         1 UNK         0.3000 
    190 H190       -0.3603  -19.1301  -47.2826 H         1 UNK         0.3000 
    191 H191       -0.8800  -19.0996  -50.0073 H         1 UNK         0.0600 
    192 H192       -1.7166  -16.9882  -47.9508 H         1 UNK         0.0600 
    193 H193       -1.4292  -16.7246  -49.6669 H         1 UNK         0.0600 
    194 H194       -0.0977  -17.1684  -48.6122 H         1 UNK         0.0600 
    195 H195       -3.2407  -19.1256  -47.3409 H         1 UNK         0.3000 
    196 H196       -5.5900  -18.8619  -48.9476 H         1 UNK         0.0600 
    197 H197       -5.4962  -18.2953  -46.5304 H         1 UNK         0.0600 
    198 H198       -5.1862  -19.9822  -46.1226 H         1 UNK         0.0600 
    199 H199       -6.7329  -19.5088  -46.8179 H         1 UNK         0.0600 
    200 H200       -3.4917  -21.5659  -48.6503 H         1 UNK         0.3000 
    201 H201       -5.6701  -23.5236  -49.2997 H         1 UNK         0.0600 
    202 H202       -4.5822  -24.0018  -47.1474 H         1 UNK         0.0600 
    203 H203       -2.9858  -23.9217  -47.8814 H         1 UNK         0.0600 
    204 H204       -4.0956  -25.2115  -48.3255 H         1 UNK         0.0600 
    205 H205       -2.1961  -22.8093  -49.9133 H         1 UNK         0.3000 
    206 H206       -0.7231  -23.4873  -51.3919 H         1 UNK         0.0600 
    207 H207       -1.3062  -23.4337  -53.8295 H         1 UNK         0.0600 
    208 H208       -3.0107  -23.2812  -53.4241 H         1 UNK         0.0600 
    209 H209       -1.8725  -22.0146  -52.9754 H         1 UNK         0.0600 
    210 H210       -2.9913  -25.2547  -53.3640 H         1 UNK         0.3000 
    211 H211       -1.7825  -27.8520  -52.7487 H         1 UNK         0.0600 
    212 H212       -4.0467  -27.0695  -54.6652 H         1 UNK         0.0600 
    213 H213       -3.1983  -28.6088  -54.6340 H         1 UNK         0.0600 
    214 H214       -2.3379  -27.1511  -55.0980 H         1 UNK         0.0600 
    215 H215       -4.1396  -26.0425  -51.2759 H         1 UNK         0.3000 
    216 H216       -5.7085  -26.3297  -49.7452 H         1 UNK         0.0600 
    217 H217       -6.2015  -28.4399  -48.6215 H         1 UNK         0.0600 
    218 H218       -4.4587  -28.2678  -48.7603 H         1 UNK         0.0600 
    219 H219       -5.3301  -29.3677  -49.8288 H         1 UNK         0.0600 
    220 H220       -6.4091  -25.5702  -52.0675 H         1 UNK         0.3000 
    221 H221       -9.0302  -26.6168  -52.6205 H         1 UNK         0.0600 
    222 H222       -6.8434  -26.9018  -54.7770 H         1 UNK         0.0600 
    223 H223       -7.5942  -28.2518  -53.9353 H         1 UNK         0.0600 
    224 H224       -8.5560  -27.2518  -54.9990 H         1 UNK         0.0600 
    225 H225       -9.5021  -25.4055  -55.0103 H         1 UNK         0.3000 
    226 H226       -9.6091  -22.6150  -54.4647 H         1 UNK         0.0600 
    227 H227      -11.3109  -23.8357  -55.8039 H         1 UNK         0.0600 
    228 H228      -10.6250  -22.5235  -56.7459 H         1 UNK         0.0600 
    229 H229      -10.1144  -24.1785  -57.0546 H         1 UNK         0.0600 
    230 H230       -6.9985  -24.4055  -55.5857 H         1 UNK         0.3000 
    231 H231       -5.6972  -22.5654  -57.3689 H         1 UNK         0.0600 
    232 H232       -3.7775  -24.1252  -57.0363 H         1 UNK         0.0600 
    233 H233       -5.2537  -25.0257  -57.3337 H         1 UNK         0.0600 
    234 H234       -4.6130  -24.8970  -55.6950 H         1 UNK         0.0600 
    235 H235       -6.3289  -22.2030  -54.1182 H         1 UNK         0.3000 
    236 H236       -4.2352  -21.3874  -52.6580 H         1 UNK         0.0600 
    237 H237       -6.9613  -20.0362  -52.9119 H         1 UNK         0.0600 
    238 H238       -6.5391  -21.3878  -51.8597 H         1 UNK         0.0600 
    239 H239       -5.8450  -19.7987  -51.5731 H         1 UNK         0.0600 
    240 H240       -2.5384  -20.1131  -52.9565 H         1 UNK         0.3000 
    241 H241       -2.4446  -18.1999  -55.1174 H         1 UNK         0.0600 
    242 H242       -2.9125  -16.0104  -51.7810 H         1 UNK         0.3800 
    243 H243       -3.2000  -17.7398  -51.7568 H         1 UNK         0.3800 
    244 H244        0.0019  -18.1375  -54.6224 H         1 UNK         0.0800 
    245 H245       -0.6187  -19.7247  -54.9417 H         1 UNK         0.0800 
    246 H246        0.9079  -17.3373  -52.4208 H         1 UNK         0.0800 
    247 H247        2.1231  -18.4279  -53.0529 H         1 UNK         0.0800 
@<TRIPOS>BOND
     1    1    2 1    
     2    1  127 1    
     3    1  128 1    
     4    1  129 1    
     5    2    3 2    
     6    2    4 am   BACKBONE|DICT|INTERRES
     7    4    5 1    
     8    4  130 1    
     9    5    6 1    
    10    5   65 1    
    11    5  131 1    
    12    6    7 1    
    13    6  132 1    
    14    6  133 1    
    15    7    8 1    
    16    8    9 1    
    17    8  134 1    
    18    8  135 1    
    19    9   10 ar   
    20    9   14 ar   
    21   10   11 ar   
    22   10  136 1    
    23   11   12 ar   
    24   11  126 1    
    25   12   13 ar   
    26   12  137 1    
    27   13   14 ar   
    28   13   15 1    
    29   14  138 1    
    30   15   16 1    
    31   15  139 1    
    32   15  140 1    
    33   16   17 1    
    34   17   18 1    
    35   17  141 1    
    36   17  142 1    
    37   18   19 1    
    38   18   67 1    
    39   18  143 1    
    40   19   20 am   BACKBONE|DICT|INTERRES
    41   19  144 1    
    42   20   21 2    
    43   20   22 1    
    44   22   23 1    
    45   22   24 1    
    46   22  145 1    
    47   23  146 1    
    48   23  147 1    
    49   23  148 1    
    50   24   25 am   BACKBONE|DICT|INTERRES
    51   24  149 1    
    52   25   26 2    
    53   25   27 1    
    54   27   28 1    
    55   27   29 1    
    56   27  150 1    
    57   28  151 1    
    58   28  152 1    
    59   28  153 1    
    60   29   30 am   BACKBONE|DICT|INTERRES
    61   29  154 1    
    62   30   31 2    
    63   30   32 1    
    64   32   33 1    
    65   32   34 1    
    66   32  155 1    
    67   33  156 1    
    68   33  157 1    
    69   33  158 1    
    70   34   35 am   BACKBONE|DICT|INTERRES
    71   34  159 1    
    72   35   36 2    
    73   35   37 1    
    74   37   38 1    
    75   37   39 1    
    76   37  160 1    
    77   38  161 1    
    78   38  162 1    
    79   38  163 1    
    80   39   40 am   BACKBONE|DICT|INTERRES
    81   39  164 1    
    82   40   41 2    
    83   40   42 1    
    84   42   43 1    
    85   42   44 1    
    86   42  165 1    
    87   43  166 1    
    88   43  167 1    
    89   43  168 1    
    90   44   45 am   BACKBONE|DICT|INTERRES
    91   44  169 1    
    92   45   46 2    
    93   45   47 1    
    94   47   48 1    
    95   47   49 1    
    96   47  170 1    
    97   48  171 1    
    98   48  172 1    
    99   48  173 1    
   100   49   50 am   BACKBONE|DICT|INTERRES
   101   49  174 1    
   102   50   51 2    
   103   50   52 1    
   104   52   53 1    
   105   52   54 1    
   106   52  175 1    
   107   53  176 1    
   108   53  177 1    
   109   53  178 1    
   110   54   55 am   BACKBONE|DICT|INTERRES
   111   54  179 1    
   112   55   56 2    
   113   55   57 1    
   114   57   58 1    
   115   57   59 1    
   116   57  180 1    
   117   58  181 1    
   118   58  182 1    
   119   58  183 1    
   120   59   60 am   BACKBONE|DICT|INTERRES
   121   59  184 1    
   122   60   61 2    
   123   60   62 1    
   124   62   63 1    
   125   62   64 1    
   126   62  185 1    
   127   63  186 1    
   128   63  187 1    
   129   63  188 1    
   130   64   65 am   BACKBONE|DICT|INTERRES
   131   64  189 1    
   132   65   66 2    
   133   67   68 2    
   134   67   69 am   BACKBONE|DICT|INTERRES
   135   69   70 1    
   136   69  190 1    
   137   70   71 1    
   138   70   72 1    
   139   70  191 1    
   140   71  192 1    
   141   71  193 1    
   142   71  194 1    
   143   72   73 2    
   144   72   74 am   BACKBONE|DICT|INTERRES
   145   74   75 1    
   146   74  195 1    
   147   75   76 1    
   148   75   77 1    
   149   75  196 1    
   150   76  197 1    
   151   76  198 1    
   152   76  199 1    
   153   77   78 2    
   154   77   79 am   BACKBONE|DICT|INTERRES
   155   79   80 1    
   156   79  200 1    
   157   80   81 1    
   158   80   82 1    
   159   80  201 1    
   160   81  202 1    
   161   81  203 1    
   162   81  204 1    
   163   82   83 2    
   164   82   84 am   BACKBONE|DICT|INTERRES
   165   84   85 1    
   166   84  205 1    
   167   85   86 1    
   168   85   87 1    
   169   85  206 1    
   170   86  207 1    
   171   86  208 1    
   172   86  209 1    
   173   87   88 2    
   174   87   89 am   BACKBONE|DICT|INTERRES
   175   89   90 1    
   176   89  210 1    
   177   90   91 1    
   178   90   92 1    
   179   90  211 1    
   180   91  212 1    
   181   91  213 1    
   182   91  214 1    
   183   92   93 2    
   184   92   94 am   BACKBONE|DICT|INTERRES
   185   94   95 1    
   186   94  215 1    
   187   95   96 1    
   188   95   97 1    
   189   95  216 1    
   190   96  217 1    
   191   96  218 1    
   192   96  219 1    
   193   97   98 2    
   194   97   99 am   BACKBONE|DICT|INTERRES
   195   99  100 1    
   196   99  220 1    
   197  100  101 1    
   198  100  102 1    
   199  100  221 1    
   200  101  222 1    
   201  101  223 1    
   202  101  224 1    
   203  102  103 2    
   204  102  104 am   BACKBONE|DICT|INTERRES
   205  104  105 1    
   206  104  225 1    
   207  105  106 1    
   208  105  107 1    
   209  105  226 1    
   210  106  227 1    
   211  106  228 1    
   212  106  229 1    
   213  107  108 2    
   214  107  109 am   BACKBONE|DICT|INTERRES
   215  109  110 1    
   216  109  230 1    
   217  110  111 1    
   218  110  112 1    
   219  110  231 1    
   220  111  232 1    
   221  111  233 1    
   222  111  234 1    
   223  112  113 2    
   224  112  114 am   BACKBONE|DICT|INTERRES
   225  114  115 1    
   226  114  235 1    
   227  115  116 1    
   228  115  117 1    
   229  115  236 1    
   230  116  237 1    
   231  116  238 1    
   232  116  239 1    
   233  117  118 2    
   234  117  119 am   BACKBONE|DICT|INTERRES
   235  119  120 1    
   236  119  240 1    
   237  120  121 1    
   238  120  124 1    
   239  120  241 1    
   240  121  122 am   BACKBONE|DICT|INTERRES
   241  121  123 2    
   242  122  242 1    
   243  122  243 1    
   244  124  125 1    
   245  124  244 1    
   246  124  245 1    
   247  125  126 1    
   248  126  246 1    
   249  126  247 1    
@<TRIPOS>SUBSTRUCTURE
     1 UNK         1 GROUP             0       ****    0 ROOT    
