@<TRIPOS>MOLECULE
3R540
247   249    1
SMALL
USER_CHARGES


@<TRIPOS>ATOM
      1 CA          0.9154  -15.8197  -47.9982 C.3       0 UNK        -0.1800 
      2 C           0.8142  -14.5584  -48.8429 C.2       0 UNK         0.5000 
      3 O           0.2593  -13.5577  -48.3931 O.2       0 UNK        -0.5000 
      4 N           1.3598  -14.5966  -50.0648 N.am      1 UNK        -0.5000 
      5 CA          1.3868  -13.4763  -51.0168 C.3       1 UNK         0.1400 
      6 C6          1.6766  -13.9381  -52.4696 C.3       23 UNK        -0.0398 
      7 S7          3.1165  -15.0559  -52.6453 S.3       23 UNK        -0.2404 
      8 C8          2.3348  -16.5975  -53.2281 C.3       23 UNK        -0.0205 
      9 C9          1.6129  -17.3321  -52.1081 C.ar      23 UNK        -0.0193 
     10 C10         0.2587  -17.0891  -51.8620 C.ar      23 UNK        -0.1150 
     11 C11        -0.3954  -17.7400  -50.8161 C.ar      23 UNK        -0.0193 
     12 C12         0.3033  -18.6649  -50.0404 C.ar      23 UNK        -0.1150 
     13 C13         1.6510  -18.9539  -50.2900 C.ar      23 UNK        -0.0193 
     14 C14         2.2978  -18.2668  -51.3239 C.ar      23 UNK        -0.1150 
     15 C15         2.4263  -20.0306  -49.5193 C.3       23 UNK        -0.0205 
     16 S16         1.9606  -20.2658  -47.7636 S.3       23 UNK        -0.2404 
     17 C17         0.4070  -21.2064  -47.9096 C.3       23 UNK        -0.0398 
     18 CA          0.2990  -22.4781  -47.0380 C.3       11 UNK         0.1400 
     19 N           0.1893  -22.1869  -45.6044 N.am      11 UNK        -0.5000 
     20 C           0.0616  -23.1045  -44.6331 C.2       10 UNK         0.5000 
     21 O           0.1351  -24.3185  -44.8240 O.2       10 UNK        -0.5000 
     22 CA         -0.2710  -22.5879  -43.2204 C.3       10 UNK         0.1400 
     23 CB          0.9950  -22.1282  -42.4824 C.3       10 UNK        -0.1800 
     24 N          -1.2677  -21.5139  -43.2328 N.am      10 UNK        -0.5000 
     25 C          -2.5390  -21.6690  -43.6333 C.2       9 UNK         0.5000 
     26 O          -3.0137  -22.7486  -43.9850 O.2       9 UNK        -0.5000 
     27 CA         -3.4194  -20.4060  -43.6917 C.3       9 UNK         0.1400 
     28 CB         -3.9806  -20.0621  -42.3042 C.3       9 UNK        -0.1800 
     29 N          -2.7098  -19.2499  -44.2372 N.am      9 UNK        -0.5000 
     30 C          -2.2478  -19.1719  -45.4930 C.2       8 UNK         0.5000 
     31 O          -2.4286  -20.0448  -46.3420 O.2       8 UNK        -0.5000 
     32 CA         -1.3745  -17.9484  -45.8361 C.3       8 UNK         0.1400 
     33 CB         -2.2434  -16.7279  -46.1731 C.3       8 UNK        -0.1800 
     34 N          -0.4331  -17.6069  -44.7658 N.am      8 UNK        -0.5000 
     35 C           0.5242  -18.4298  -44.3121 C.2       7 UNK         0.5000 
     36 O           0.7447  -19.5415  -44.7837 O.2       7 UNK        -0.5000 
     37 CA          1.3217  -17.9726  -43.0810 C.3       7 UNK         0.1400 
     38 CB          2.4680  -17.0329  -43.4770 C.3       7 UNK        -0.1800 
     39 N           0.4560  -17.3268  -42.0967 N.am      7 UNK        -0.5000 
     40 C          -0.4277  -17.9847  -41.3325 C.2       6 UNK         0.5000 
     41 O          -0.5546  -19.2092  -41.3382 O.2       6 UNK        -0.5000 
     42 CA         -1.3509  -17.1281  -40.4453 C.3       6 UNK         0.1400 
     43 CB         -0.6707  -16.8113  -39.1053 C.3       6 UNK        -0.1800 
     44 N          -1.7497  -15.8769  -41.0925 N.am      6 UNK        -0.5000 
     45 C          -2.5300  -15.8016  -42.1803 C.2       5 UNK         0.5000 
     46 O          -3.0531  -16.7812  -42.7096 O.2       5 UNK        -0.5000 
     47 CA         -2.7118  -14.4064  -42.8123 C.3       5 UNK         0.1400 
     48 CB         -3.9416  -13.7035  -42.2195 C.3       5 UNK        -0.1800 
     49 N          -1.5372  -13.5399  -42.6616 N.am      5 UNK        -0.5000 
     50 C          -0.3231  -13.8092  -43.1606 C.2       4 UNK         0.5000 
     51 O          -0.0713  -14.8222  -43.8170 O.2       4 UNK        -0.5000 
     52 CA          0.7995  -12.8229  -42.7821 C.3       4 UNK         0.1400 
     53 CB          1.1967  -13.0178  -41.3088 C.3       4 UNK        -0.1800 
     54 N           2.0019  -12.9806  -43.6019 N.am      4 UNK        -0.5000 
     55 C           2.1077  -12.6392  -44.8913 C.2       3 UNK         0.5000 
     56 O           1.2002  -12.1080  -45.5365 O.2       3 UNK        -0.5000 
     57 CA          3.4715  -12.9066  -45.5527 C.3       3 UNK         0.1400 
     58 CB          3.8734  -14.3931  -45.4948 C.3       3 UNK        -0.1800 
     59 N           3.4408  -12.4643  -46.9433 N.am      3 UNK        -0.5000 
     60 C           4.5037  -12.0713  -47.6553 C.2       2 UNK         0.5000 
     61 O           5.6495  -12.0365  -47.2027 O.2       2 UNK        -0.5000 
     62 CA          4.2380  -11.6862  -49.1213 C.3       2 UNK         0.1400 
     63 CB          5.5156  -11.6257  -49.9804 C.3       2 UNK        -0.1800 
     64 N           3.2952  -12.6333  -49.7102 N.am      2 UNK        -0.5000 
     65 C           2.3307  -12.3307  -50.5858 C.2       1 UNK         0.5000 
     66 O           2.1551  -11.1997  -51.0420 O.2       1 UNK        -0.5000 
     67 C          -0.9064  -23.3046  -47.5255 C.2       11 UNK         0.5000 
     68 O          -0.7073  -24.3680  -48.1084 O.2       11 UNK        -0.5000 
     69 N          -2.1270  -22.8178  -47.2543 N.am      12 UNK        -0.5000 
     70 CA         -3.3815  -23.4614  -47.6456 C.3       12 UNK         0.1400 
     71 CB         -4.5633  -22.5490  -47.2872 C.3       12 UNK        -0.1800 
     72 C          -3.5596  -24.8657  -47.0387 C.2       12 UNK         0.5000 
     73 O          -3.9881  -25.7762  -47.7475 O.2       12 UNK        -0.5000 
     74 N          -3.1772  -25.0327  -45.7645 N.am      13 UNK        -0.5000 
     75 CA         -3.1621  -26.3162  -45.0579 C.3       13 UNK         0.1400 
     76 CB         -2.8725  -26.0763  -43.5686 C.3       13 UNK        -0.1800 
     77 C          -2.1573  -27.3234  -45.6523 C.2       13 UNK         0.5000 
     78 O          -2.4569  -28.5163  -45.7122 O.2       13 UNK        -0.5000 
     79 N          -1.0005  -26.8246  -46.1079 N.am      14 UNK        -0.5000 
     80 CA          0.0316  -27.5961  -46.8055 C.3       14 UNK         0.1400 
     81 CB          1.3747  -26.8620  -46.6573 C.3       14 UNK        -0.1800 
     82 C          -0.2862  -27.8411  -48.2969 C.2       14 UNK         0.5000 
     83 O           0.4329  -28.6040  -48.9433 O.2       14 UNK        -0.5000 
     84 N          -1.3304  -27.1787  -48.8171 N.am      15 UNK        -0.5000 
     85 CA         -1.7546  -27.1141  -50.2195 C.3       15 UNK         0.1400 
     86 CB         -2.1973  -28.4990  -50.7354 C.3       15 UNK        -0.1800 
     87 C          -0.7200  -26.4229  -51.1362 C.2       15 UNK         0.5000 
     88 O          -0.6429  -26.7346  -52.3261 O.2       15 UNK        -0.5000 
     89 N           0.0465  -25.4820  -50.5714 N.am      16 UNK        -0.5000 
     90 CA          0.9718  -24.6114  -51.2864 C.3       16 UNK         0.1400 
     91 CB          2.1126  -24.2026  -50.3418 C.3       16 UNK        -0.1800 
     92 C           0.2060  -23.3765  -51.7815 C.2       16 UNK         0.5000 
     93 O          -0.5251  -22.7663  -50.9982 O.2       16 UNK        -0.5000 
     94 N           0.3887  -23.0362  -53.0642 N.am      17 UNK        -0.5000 
     95 CA         -0.2940  -21.9783  -53.8192 C.3       17 UNK         0.1400 
     96 CB          0.0169  -20.5766  -53.2545 C.3       17 UNK        -0.1800 
     97 C          -1.8076  -22.2355  -53.9530 C.2       17 UNK         0.5000 
     98 O          -2.2606  -22.6074  -55.0359 O.2       17 UNK        -0.5000 
     99 N          -2.5442  -22.0509  -52.8470 N.am      18 UNK        -0.5000 
    100 CA        -3.9820  -22.2817  -52.6671 C.3       18 UNK         0.1400 
    101 CB        -4.2773  -23.7953  -52.6606 C.3       18 UNK        -0.1800 
    102 C         -4.8637  -21.4987  -53.6647 C.2       18 UNK         0.5000 
    103 O         -5.9196  -21.9815  -54.0775 O.2       18 UNK        -0.5000 
    104 N         -4.4167  -20.2915  -54.0334 N.am      19 UNK        -0.5000 
    105 CA        -4.9861  -19.4322  -55.0742 C.3       19 UNK         0.1400 
    106 CB        -3.8744  -18.4924  -55.5759 C.3       19 UNK        -0.1800 
    107 C         -6.2479  -18.6650  -54.6196 C.2       19 UNK         0.5000 
    108 O         -6.3712  -17.4697  -54.8940 O.2       19 UNK        -0.5000 
    109 N         -7.1518  -19.3583  -53.9121 N.am      20 UNK        -0.5000 
    110 CA        -8.4151  -18.9140  -53.3035 C.3       20 UNK         0.1400 
    111 CB        -9.4071  -18.4067  -54.3671 C.3       20 UNK        -0.1800 
    112 C         -8.2405  -17.8888  -52.1656 C.2       20 UNK         0.5000 
    113 O         -8.7503  -18.1056  -51.0651 O.2       20 UNK        -0.5000 
    114 N         -7.4844  -16.8170  -52.4320 N.am      21 UNK        -0.5000 
    115 CA        -7.1384  -15.7359  -51.5062 C.3       21 UNK         0.1400 
    116 CB        -6.3823  -14.6477  -52.2836 C.3       21 UNK        -0.1800 
    117 C         -6.3146  -16.1963  -50.2875 C.2       21 UNK         0.5000 
    118 O         -6.3011  -15.5009  -49.2711 O.2       21 UNK        -0.5000 
    119 N         -5.6615  -17.3600  -50.4032 N.am      22 UNK        -0.5000 
    120 CA        -4.9513  -18.0385  -49.3102 C.3       22 UNK         0.1400 
    121 C         -5.8854  -18.5963  -48.1939 C.2       22 UNK         0.5000 
    122 N         -7.1841  -18.7574  -48.4276 N.am      22 UNK        -0.7600 
    123 O         -5.4257  -18.8772  -47.0927 O.2       22 UNK        -0.5000 
    124 C124       -3.9978  -19.1529  -49.8239 C.3       23 UNK        -0.0398 
    125 S125       -2.9587  -18.6759  -51.2512 S.3       23 UNK        -0.2404 
    126 C126       -1.8520  -17.4406  -50.5042 C.3       23 UNK        -0.0205 
    127 H127        0.9879  -15.5691  -46.9397 H         1 UNK         0.0600 
    128 H128        1.7872  -16.4158  -48.2694 H         1 UNK         0.0600 
    129 H129        0.0259  -16.4298  -48.1414 H         1 UNK         0.0600 
    130 H130        1.7855  -15.4518  -50.3973 H         1 UNK         0.3000 
    131 H131        0.3848  -13.0416  -51.0215 H         1 UNK         0.0600 
    132 H132        0.7904  -14.4277  -52.8700 H         1 UNK         0.0800 
    133 H133        1.8314  -13.0789  -53.1250 H         1 UNK         0.0800 
    134 H134        3.1079  -17.2427  -53.6481 H         1 UNK         0.0800 
    135 H135        1.6489  -16.3803  -54.0484 H         1 UNK         0.0800 
    136 H136       -0.2866  -16.3842  -52.4723 H         1 UNK         0.1150 
    137 H137       -0.2366  -19.1550  -49.2534 H         1 UNK         0.1150 
    138 H138        3.3388  -18.4707  -51.5323 H         1 UNK         0.1150 
    139 H139        2.3301  -20.9784  -50.0504 H         1 UNK         0.0800 
    140 H140        3.4889  -19.7843  -49.5350 H         1 UNK         0.0800 
    141 H141        0.2723  -21.4582  -48.9618 H         1 UNK         0.0800 
    142 H142       -0.4061  -20.5319  -47.6579 H         1 UNK         0.0800 
    143 H143        1.1974  -23.0807  -47.1836 H         1 UNK         0.0600 
    144 H144        0.1974  -21.2027  -45.3430 H         1 UNK         0.3000 
    145 H145       -0.6972  -23.4215  -42.6584 H         1 UNK         0.0600 
    146 H146        0.7632  -21.7943  -41.4709 H         1 UNK         0.0600 
    147 H147        1.7126  -22.9452  -42.3994 H         1 UNK         0.0600 
    148 H148        1.4936  -21.3094  -42.9993 H         1 UNK         0.0600 
    149 H149       -0.9585  -20.5998  -42.9239 H         1 UNK         0.3000 
    150 H150       -4.2615  -20.6188  -44.3537 H         1 UNK         0.0600 
    151 H151       -4.5417  -20.9015  -41.8918 H         1 UNK         0.0600 
    152 H152       -4.6585  -19.2099  -42.3544 H         1 UNK         0.0600 
    153 H153       -3.1885  -19.8171  -41.5968 H         1 UNK         0.0600 
    154 H154       -2.5789  -18.4563  -43.6174 H         1 UNK         0.3000 
    155 H155       -0.7843  -18.2018  -46.7187 H         1 UNK         0.0600 
    156 H156       -2.9247  -16.4806  -45.3600 H         1 UNK         0.0600 
    157 H157       -2.8521  -16.9212  -47.0552 H         1 UNK         0.0600 
    158 H158       -1.6360  -15.8465  -46.3796 H         1 UNK         0.0600 
    159 H159       -0.5156  -16.6847  -44.3495 H         1 UNK         0.3000 
    160 H160        1.7635  -18.8580  -42.6191 H         1 UNK         0.0600 
    161 H161        3.0445  -16.7212  -42.6061 H         1 UNK         0.0600 
    162 H162        2.1002  -16.1384  -43.9757 H         1 UNK         0.0600 
    163 H163        3.1553  -17.5282  -44.1641 H         1 UNK         0.0600 
    164 H164        0.4503  -16.3174  -42.0939 H         1 UNK         0.3000 
    165 H165       -2.2527  -17.7100  -40.2434 H         1 UNK         0.0600 
    166 H166       -1.3430  -16.2687  -38.4404 H         1 UNK         0.0600 
    167 H167       -0.3767  -17.7275  -38.5913 H         1 UNK         0.0600 
    168 H168        0.2278  -16.2079  -39.2408 H         1 UNK         0.0600 
    169 H169       -1.3691  -15.0232  -40.7126 H         1 UNK         0.3000 
    170 H170       -2.8829  -14.5487  -43.8809 H         1 UNK         0.0600 
    171 H171       -4.8362  -14.3164  -42.3385 H         1 UNK         0.0600 
    172 H172       -3.8186  -13.5054  -41.1540 H         1 UNK         0.0600 
    173 H173       -4.1322  -12.7533  -42.7188 H         1 UNK         0.0600 
    174 H174       -1.6696  -12.6956  -42.1235 H         1 UNK         0.3000 
    175 H175        0.4220  -11.8070  -42.9156 H         1 UNK         0.0600 
    176 H176        1.5724  -14.0250  -41.1224 H         1 UNK         0.0600 
    177 H177        1.9734  -12.3118  -41.0139 H         1 UNK         0.0600 
    178 H178        0.3489  -12.8551  -40.6424 H         1 UNK         0.0600 
    179 H179        2.7890  -13.4229  -43.1516 H         1 UNK         0.3000 
    180 H180        4.2111  -12.3155  -45.0085 H         1 UNK         0.0600 
    181 H181        3.1212  -15.0310  -45.9583 H         1 UNK         0.0600 
    182 H182        4.0082  -14.7260  -44.4660 H         1 UNK         0.0600 
    183 H183        4.8189  -14.5697  -46.0075 H         1 UNK         0.0600 
    184 H184        2.5116  -12.4021  -47.3436 H         1 UNK         0.3000 
    185 H185        3.7922  -10.6897  -49.0969 H         1 UNK         0.0600 
    186 H186        6.2243  -10.8991  -49.5814 H         1 UNK         0.0600 
    187 H187        6.0180  -12.5930  -50.0185 H         1 UNK         0.0600 
    188 H188        5.2884  -11.3264  -51.0037 H         1 UNK         0.0600 
    189 H189        3.3585  -13.5856  -49.3783 H         1 UNK         0.3000 
    190 H190       -2.2076  -21.9222  -46.7795 H         1 UNK         0.3000 
    191 H191       -3.3610  -23.5745  -48.7318 H         1 UNK         0.0600 
    192 H192       -4.6227  -22.3695  -46.2135 H         1 UNK         0.0600 
    193 H193       -5.5094  -22.9917  -47.6004 H         1 UNK         0.0600 
    194 H194       -4.4776  -21.5810  -47.7806 H         1 UNK         0.0600 
    195 H195       -2.8884  -24.2163  -45.2315 H         1 UNK         0.3000 
    196 H196       -4.1586  -26.7544  -45.1435 H         1 UNK         0.0600 
    197 H197       -2.8789  -27.0145  -43.0125 H         1 UNK         0.0600 
    198 H198       -3.6250  -25.4271  -43.1206 H         1 UNK         0.0600 
    199 H199       -1.8979  -25.6112  -43.4185 H         1 UNK         0.0600 
    200 H200       -0.8119  -25.8356  -45.9818 H         1 UNK         0.3000 
    201 H201        0.1245  -28.5730  -46.3267 H         1 UNK         0.0600 
    202 H202        1.6342  -26.7231  -45.6077 H         1 UNK         0.0600 
    203 H203        1.3497  -25.8783  -47.1275 H         1 UNK         0.0600 
    204 H204        2.1850  -27.4262  -47.1203 H         1 UNK         0.0600 
    205 H205       -1.8296  -26.5570  -48.1941 H         1 UNK         0.3000 
    206 H206       -2.6337  -26.4683  -50.2302 H         1 UNK         0.0600 
    207 H207       -2.9264  -28.9541  -50.0650 H         1 UNK         0.0600 
    208 H208       -2.6668  -28.4179  -51.7163 H         1 UNK         0.0600 
    209 H209       -1.3557  -29.1849  -50.8335 H         1 UNK         0.0600 
    210 H210       -0.1619  -25.2085  -49.6123 H         1 UNK         0.3000 
    211 H211        1.4013  -25.1474  -52.1354 H         1 UNK         0.0600 
    212 H212        1.7450  -23.6387  -49.4850 H         1 UNK         0.0600 
    213 H213        2.8405  -23.5760  -50.8585 H         1 UNK         0.0600 
    214 H214        2.6429  -25.0766  -49.9633 H         1 UNK         0.0600 
    215 H215        0.9993  -23.6188  -53.6199 H         1 UNK         0.3000 
    216 H216        0.1199  -22.0148  -54.8282 H         1 UNK         0.0600 
    217 H217       -0.4568  -19.7992  -53.8549 H         1 UNK         0.0600 
    218 H218        1.0889  -20.3808  -53.2586 H         1 UNK         0.0600 
    219 H219       -0.3358  -20.4513  -52.2314 H         1 UNK         0.0600 
    220 H220       -2.0261  -21.8324  -52.0018 H         1 UNK         0.3000 
    221 H221       -4.2298  -21.8962  -51.6779 H         1 UNK         0.0600 
    222 H222       -4.0919  -24.2459  -53.6362 H         1 UNK         0.0600 
    223 H223       -3.6565  -24.3135  -51.9292 H         1 UNK         0.0600 
    224 H224       -5.3176  -23.9925  -52.3994 H         1 UNK         0.0600 
    225 H225       -3.5673  -19.9575  -53.6002 H         1 UNK         0.3000 
    226 H226       -5.2887  -20.0633  -55.9122 H         1 UNK         0.0600 
    227 H227       -4.2209  -17.8793  -56.4088 H         1 UNK         0.0600 
    228 H228       -3.5336  -17.8186  -54.7884 H         1 UNK         0.0600 
    229 H229       -3.0115  -19.0567  -55.9303 H         1 UNK         0.0600 
    230 H230       -6.9337  -20.3408  -53.7736 H         1 UNK         0.3000 
    231 H231       -8.8521  -19.8067  -52.8533 H         1 UNK         0.0600 
    232 H232       -9.5842  -19.1631  -55.1317 H         1 UNK         0.0600 
    233 H233       -9.0511  -17.5045  -54.8650 H         1 UNK         0.0600 
    234 H234      -10.3712  -18.1691  -53.9159 H         1 UNK         0.0600 
    235 H235       -7.0773  -16.7679  -53.3637 H         1 UNK         0.3000 
    236 H236       -8.0698  -15.3096  -51.1288 H         1 UNK         0.0600 
    237 H237       -6.9867  -14.2550  -53.1015 H         1 UNK         0.0600 
    238 H238       -6.1276  -13.8076  -51.6361 H         1 UNK         0.0600 
    239 H239       -5.4530  -15.0310  -52.7072 H         1 UNK         0.0600 
    240 H240       -5.7078  -17.8513  -51.2824 H         1 UNK         0.3000 
    241 H241       -4.3344  -17.2795  -48.8285 H         1 UNK         0.0600 
    242 H242       -7.7732  -19.1121  -47.6915 H         1 UNK         0.3800 
    243 H243       -7.5950  -18.5113  -49.3200 H         1 UNK         0.3800 
    244 H244       -4.5773  -20.0259  -50.1272 H         1 UNK         0.0800 
    245 H245       -3.3438  -19.4943  -49.0187 H         1 UNK         0.0800 
    246 H246       -2.1266  -16.4502  -50.8701 H         1 UNK         0.0800 
    247 H247       -1.9856  -17.4113  -49.4225 H         1 UNK         0.0800 
@<TRIPOS>BOND
     1    1    2 1    
     2    1  127 1    
     3    1  128 1    
     4    1  129 1    
     5    2    3 2    
     6    2    4 am   BACKBONE|DICT|INTERRES
     7    4    5 1    
     8    4  130 1    
     9    5    6 1    
    10    5   65 1    
    11    5  131 1    
    12    6    7 1    
    13    6  132 1    
    14    6  133 1    
    15    7    8 1    
    16    8    9 1    
    17    8  134 1    
    18    8  135 1    
    19    9   10 ar   
    20    9   14 ar   
    21   10   11 ar   
    22   10  136 1    
    23   11   12 ar   
    24   11  126 1    
    25   12   13 ar   
    26   12  137 1    
    27   13   14 ar   
    28   13   15 1    
    29   14  138 1    
    30   15   16 1    
    31   15  139 1    
    32   15  140 1    
    33   16   17 1    
    34   17   18 1    
    35   17  141 1    
    36   17  142 1    
    37   18   19 1    
    38   18   67 1    
    39   18  143 1    
    40   19   20 am   BACKBONE|DICT|INTERRES
    41   19  144 1    
    42   20   21 2    
    43   20   22 1    
    44   22   23 1    
    45   22   24 1    
    46   22  145 1    
    47   23  146 1    
    48   23  147 1    
    49   23  148 1    
    50   24   25 am   BACKBONE|DICT|INTERRES
    51   24  149 1    
    52   25   26 2    
    53   25   27 1    
    54   27   28 1    
    55   27   29 1    
    56   27  150 1    
    57   28  151 1    
    58   28  152 1    
    59   28  153 1    
    60   29   30 am   BACKBONE|DICT|INTERRES
    61   29  154 1    
    62   30   31 2    
    63   30   32 1    
    64   32   33 1    
    65   32   34 1    
    66   32  155 1    
    67   33  156 1    
    68   33  157 1    
    69   33  158 1    
    70   34   35 am   BACKBONE|DICT|INTERRES
    71   34  159 1    
    72   35   36 2    
    73   35   37 1    
    74   37   38 1    
    75   37   39 1    
    76   37  160 1    
    77   38  161 1    
    78   38  162 1    
    79   38  163 1    
    80   39   40 am   BACKBONE|DICT|INTERRES
    81   39  164 1    
    82   40   41 2    
    83   40   42 1    
    84   42   43 1    
    85   42   44 1    
    86   42  165 1    
    87   43  166 1    
    88   43  167 1    
    89   43  168 1    
    90   44   45 am   BACKBONE|DICT|INTERRES
    91   44  169 1    
    92   45   46 2    
    93   45   47 1    
    94   47   48 1    
    95   47   49 1    
    96   47  170 1    
    97   48  171 1    
    98   48  172 1    
    99   48  173 1    
   100   49   50 am   BACKBONE|DICT|INTERRES
   101   49  174 1    
   102   50   51 2    
   103   50   52 1    
   104   52   53 1    
   105   52   54 1    
   106   52  175 1    
   107   53  176 1    
   108   53  177 1    
   109   53  178 1    
   110   54   55 am   BACKBONE|DICT|INTERRES
   111   54  179 1    
   112   55   56 2    
   113   55   57 1    
   114   57   58 1    
   115   57   59 1    
   116   57  180 1    
   117   58  181 1    
   118   58  182 1    
   119   58  183 1    
   120   59   60 am   BACKBONE|DICT|INTERRES
   121   59  184 1    
   122   60   61 2    
   123   60   62 1    
   124   62   63 1    
   125   62   64 1    
   126   62  185 1    
   127   63  186 1    
   128   63  187 1    
   129   63  188 1    
   130   64   65 am   BACKBONE|DICT|INTERRES
   131   64  189 1    
   132   65   66 2    
   133   67   68 2    
   134   67   69 am   BACKBONE|DICT|INTERRES
   135   69   70 1    
   136   69  190 1    
   137   70   71 1    
   138   70   72 1    
   139   70  191 1    
   140   71  192 1    
   141   71  193 1    
   142   71  194 1    
   143   72   73 2    
   144   72   74 am   BACKBONE|DICT|INTERRES
   145   74   75 1    
   146   74  195 1    
   147   75   76 1    
   148   75   77 1    
   149   75  196 1    
   150   76  197 1    
   151   76  198 1    
   152   76  199 1    
   153   77   78 2    
   154   77   79 am   BACKBONE|DICT|INTERRES
   155   79   80 1    
   156   79  200 1    
   157   80   81 1    
   158   80   82 1    
   159   80  201 1    
   160   81  202 1    
   161   81  203 1    
   162   81  204 1    
   163   82   83 2    
   164   82   84 am   BACKBONE|DICT|INTERRES
   165   84   85 1    
   166   84  205 1    
   167   85   86 1    
   168   85   87 1    
   169   85  206 1    
   170   86  207 1    
   171   86  208 1    
   172   86  209 1    
   173   87   88 2    
   174   87   89 am   BACKBONE|DICT|INTERRES
   175   89   90 1    
   176   89  210 1    
   177   90   91 1    
   178   90   92 1    
   179   90  211 1    
   180   91  212 1    
   181   91  213 1    
   182   91  214 1    
   183   92   93 2    
   184   92   94 am   BACKBONE|DICT|INTERRES
   185   94   95 1    
   186   94  215 1    
   187   95   96 1    
   188   95   97 1    
   189   95  216 1    
   190   96  217 1    
   191   96  218 1    
   192   96  219 1    
   193   97   98 2    
   194   97   99 am   BACKBONE|DICT|INTERRES
   195   99  100 1    
   196   99  220 1    
   197  100  101 1    
   198  100  102 1    
   199  100  221 1    
   200  101  222 1    
   201  101  223 1    
   202  101  224 1    
   203  102  103 2    
   204  102  104 am   BACKBONE|DICT|INTERRES
   205  104  105 1    
   206  104  225 1    
   207  105  106 1    
   208  105  107 1    
   209  105  226 1    
   210  106  227 1    
   211  106  228 1    
   212  106  229 1    
   213  107  108 2    
   214  107  109 am   BACKBONE|DICT|INTERRES
   215  109  110 1    
   216  109  230 1    
   217  110  111 1    
   218  110  112 1    
   219  110  231 1    
   220  111  232 1    
   221  111  233 1    
   222  111  234 1    
   223  112  113 2    
   224  112  114 am   BACKBONE|DICT|INTERRES
   225  114  115 1    
   226  114  235 1    
   227  115  116 1    
   228  115  117 1    
   229  115  236 1    
   230  116  237 1    
   231  116  238 1    
   232  116  239 1    
   233  117  118 2    
   234  117  119 am   BACKBONE|DICT|INTERRES
   235  119  120 1    
   236  119  240 1    
   237  120  121 1    
   238  120  124 1    
   239  120  241 1    
   240  121  122 am   BACKBONE|DICT|INTERRES
   241  121  123 2    
   242  122  242 1    
   243  122  243 1    
   244  124  125 1    
   245  124  244 1    
   246  124  245 1    
   247  125  126 1    
   248  126  246 1    
   249  126  247 1    
@<TRIPOS>SUBSTRUCTURE
     1 UNK         1 GROUP             0       ****    0 ROOT    
