@<TRIPOS>MOLECULE
3R540
247   249    1
SMALL
USER_CHARGES


@<TRIPOS>ATOM
      1 CA         -0.9615  -15.3180  -43.0842 C.3       0 UNK        -0.1800 
      2 C          -1.5185  -14.3664  -44.1291 C.2       0 UNK         0.5000 
      3 O          -2.5319  -13.7156  -43.8771 O.2       0 UNK        -0.5000 
      4 N          -0.8534  -14.2583  -45.2875 N.am      1 UNK        -0.5000 
      5 CA         -1.2444  -13.3984  -46.4166 C.3       1 UNK         0.1400 
      6 C6         -0.3275  -13.5969  -47.6463 C.3       23 UNK        -0.0398 
      7 S7         -0.3594  -15.2935  -48.3111 S.3       23 UNK        -0.2404 
      8 C8          1.0540  -15.1785  -49.4479 C.3       23 UNK        -0.0205 
      9 C9          1.0975  -16.3391  -50.4280 C.ar      23 UNK        -0.0193 
     10 C10         0.3376  -16.2903  -51.6009 C.ar      23 UNK        -0.1150 
     11 C11         0.4229  -17.3170  -52.5451 C.ar      23 UNK        -0.0193 
     12 C12         1.2683  -18.4038  -52.3029 C.ar      23 UNK        -0.1150 
     13 C13         2.0256  -18.4688  -51.1298 C.ar      23 UNK        -0.0193 
     14 C14         1.9345  -17.4341  -50.1933 C.ar      23 UNK        -0.1150 
     15 C15         2.9720  -19.6379  -50.9029 C.3       23 UNK        -0.0205 
     16 S16         2.0983  -21.1229  -50.3237 S.3       23 UNK        -0.2404 
     17 C17         1.8314  -20.7127  -48.5686 C.3       23 UNK        -0.0398 
     18 CA          0.8281  -21.6731  -47.8870 C.3       11 UNK         0.1400 
     19 N           1.0339  -21.7293  -46.4381 N.am      11 UNK        -0.5000 
     20 C           0.5217  -22.6713  -45.6346 C.2       10 UNK         0.5000 
     21 O          -0.1368  -23.6289  -46.0382 O.2       10 UNK        -0.5000 
     22 CA          0.7626  -22.5043  -44.1234 C.3       10 UNK         0.1400 
     23 CB          2.1216  -23.0973  -43.7223 C.3       10 UNK        -0.1800 
     24 N           0.6921  -21.1085  -43.6914 N.am      10 UNK        -0.5000 
     25 C          -0.4164  -20.3558  -43.7276 C.2       9 UNK         0.5000 
     26 O          -1.5190  -20.7767  -44.0751 O.2       9 UNK        -0.5000 
     27 CA         -0.2580  -18.8715  -43.3530 C.3       9 UNK         0.1400 
     28 CB         -0.2593  -18.6929  -41.8271 C.3       9 UNK        -0.1800 
     29 N           0.9479  -18.2640  -43.9208 N.am      9 UNK        -0.5000 
     30 C           1.1997  -18.1501  -45.2332 C.2       8 UNK         0.5000 
     31 O           0.4330  -18.5320  -46.1136 O.2       8 UNK        -0.5000 
     32 CA          2.5645  -17.5683  -45.6311 C.3       8 UNK         0.1400 
     33 CB          2.5564  -16.0339  -45.5601 C.3       8 UNK        -0.1800 
     34 N           3.6354  -18.1048  -44.7934 N.am      8 UNK        -0.5000 
     35 C           4.0586  -19.3765  -44.8418 C.2       7 UNK         0.5000 
     36 O           3.6229  -20.2123  -45.6339 O.2       7 UNK        -0.5000 
     37 CA          5.1099  -19.7930  -43.7974 C.3       7 UNK         0.1400 
     38 CB          6.5199  -19.3918  -44.2556 C.3       7 UNK        -0.1800 
     39 N           4.8439  -19.2173  -42.4779 N.am      7 UNK        -0.5000 
     40 C           3.7809  -19.5242  -41.7207 C.2       6 UNK         0.5000 
     41 O           2.9375  -20.3613  -42.0376 O.2       6 UNK        -0.5000 
     42 CA          3.6055  -18.7331  -40.4114 C.3       6 UNK         0.1400 
     43 CB          4.3365  -19.4348  -39.2572 C.3       6 UNK        -0.1800 
     44 N           4.0595  -17.3422  -40.4998 N.am      6 UNK        -0.5000 
     45 C           3.5459  -16.4175  -41.3224 C.2       5 UNK         0.5000 
     46 O           2.6430  -16.6507  -42.1280 O.2       5 UNK        -0.5000 
     47 CA          4.1722  -15.0151  -41.2315 C.3       5 UNK         0.1400 
     48 CB          4.7596  -14.5531  -42.5803 C.3       5 UNK        -0.1800 
     49 N           3.2448  -14.0376  -40.6526 N.am      5 UNK        -0.5000 
     50 C           2.1632  -13.4722  -41.2064 C.2       4 UNK         0.5000 
     51 O           1.7969  -13.6305  -42.3754 O.2       4 UNK        -0.5000 
     52 CA          1.3663  -12.5322  -40.2867 C.3       4 UNK         0.1400 
     53 CB          2.1556  -11.2407  -39.9938 C.3       4 UNK        -0.1800 
     54 N           0.1134  -12.2046  -40.9510 N.am      4 UNK        -0.5000 
     55 C          -0.9811  -11.6622  -40.4068 C.2       3 UNK         0.5000 
     56 O          -1.0932  -11.4109  -39.2057 O.2       3 UNK        -0.5000 
     57 CA         -2.1390  -11.3534  -41.3836 C.3       3 UNK         0.1400 
     58 CB         -3.0818  -10.2416  -40.8773 C.3       3 UNK        -0.1800 
     59 N          -1.6652  -11.0776  -42.7478 N.am      3 UNK        -0.5000 
     60 C          -0.8810  -10.0617  -43.1486 C.2       2 UNK         0.5000 
     61 O          -0.5611   -9.1210  -42.4209 O.2       2 UNK        -0.5000 
     62 CA         -0.3154  -10.1296  -44.5835 C.3       2 UNK         0.1400 
     63 CB          1.1590   -9.6884  -44.6263 C.3       2 UNK        -0.1800 
     64 N          -0.4008  -11.4833  -45.1351 N.am      2 UNK        -0.5000 
     65 C          -1.2907  -11.8989  -46.0453 C.2       1 UNK         0.5000 
     66 O          -2.1311  -11.1668  -46.5690 O.2       1 UNK        -0.5000 
     67 C          -0.6329  -21.3231  -48.2441 C.2       11 UNK         0.5000 
     68 O          -1.2092  -21.9537  -49.1282 O.2       11 UNK        -0.5000 
     69 N          -1.2070  -20.3439  -47.5315 N.am      12 UNK        -0.5000 
     70 CA         -2.5654  -19.8324  -47.7200 C.3       12 UNK         0.1400 
     71 CB         -2.6660  -18.4506  -47.0551 C.3       12 UNK        -0.1800 
     72 C          -3.6795  -20.7596  -47.1936 C.2       12 UNK         0.5000 
     73 O          -4.8507  -20.4981  -47.4768 O.2       12 UNK        -0.5000 
     74 N          -3.3222  -21.8093  -46.4417 N.am      13 UNK        -0.5000 
     75 CA         -4.2388  -22.7877  -45.8522 C.3       13 UNK         0.1400 
     76 CB         -3.4245  -23.8269  -45.0682 C.3       13 UNK        -0.1800 
     77 C          -5.1340  -23.4849  -46.8960 C.2       13 UNK         0.5000 
     78 O          -4.6714  -23.7849  -47.9990 O.2       13 UNK        -0.5000 
     79 N          -6.4005  -23.7219  -46.5233 N.am      14 UNK        -0.5000 
     80 CA         -7.4579  -24.3292  -47.3438 C.3       14 UNK         0.1400 
     81 CB         -7.1622  -25.8243  -47.5880 C.3       14 UNK        -0.1800 
     82 C          -7.7246  -23.5465  -48.6485 C.2       14 UNK         0.5000 
     83 O          -7.8476  -24.1477  -49.7171 O.2       14 UNK        -0.5000 
     84 N          -7.7664  -22.2091  -48.5338 N.am      15 UNK        -0.5000 
     85 CA         -7.8946  -21.2349  -49.6259 C.3       15 UNK         0.1400 
     86 CB         -9.2923  -21.3188  -50.2751 C.3       15 UNK        -0.1800 
     87 C          -6.7460  -21.3703  -50.6459 C.2       15 UNK         0.5000 
     88 O          -6.9873  -21.4883  -51.8476 O.2       15 UNK        -0.5000 
     89 N          -5.5145  -21.4084  -50.1211 N.am      16 UNK        -0.5000 
     90 CA         -4.2559  -21.6748  -50.8209 C.3       16 UNK         0.1400 
     91 CB         -3.8721  -20.4851  -51.7223 C.3       16 UNK        -0.1800 
     92 C          -4.2644  -23.0286  -51.5571 C.2       16 UNK         0.5000 
     93 O          -3.9023  -23.0957  -52.7321 O.2       16 UNK        -0.5000 
     94 N          -4.7210  -24.0747  -50.8528 N.am      17 UNK        -0.5000 
     95 CA         -4.9614  -25.4363  -51.3410 C.3       17 UNK         0.1400 
     96 CB         -3.6210  -26.1458  -51.6252 C.3       17 UNK        -0.1800 
     97 C          -5.9240  -25.4594  -52.5480 C.2       17 UNK         0.5000 
     98 O          -5.6101  -26.0558  -53.5780 O.2       17 UNK        -0.5000 
     99 N          -7.0585  -24.7565  -52.4142 N.am      18 UNK        -0.5000 
    100 CA        -8.0434  -24.4662  -53.4643 C.3       18 UNK         0.1400 
    101 CB        -8.8225  -25.7408  -53.8485 C.3       18 UNK        -0.1800 
    102 C         -7.4038  -23.7519  -54.6772 C.2       18 UNK         0.5000 
    103 O         -7.5983  -24.1609  -55.8230 O.2       18 UNK        -0.5000 
    104 N         -6.6119  -22.7155  -54.3726 N.am      19 UNK        -0.5000 
    105 CA        -5.7981  -21.8739  -55.2553 C.3       19 UNK         0.1400 
    106 CB        -6.6797  -21.1404  -56.2861 C.3       19 UNK        -0.1800 
    107 C         -4.5942  -22.5735  -55.9246 C.2       19 UNK         0.5000 
    108 O         -3.8586  -21.9059  -56.6535 O.2       19 UNK        -0.5000 
    109 N         -4.3757  -23.8726  -55.6708 N.am      20 UNK        -0.5000 
    110 CA        -3.2961  -24.6592  -56.2708 C.3       20 UNK         0.1400 
    111 CB        -3.5342  -26.1544  -56.0184 C.3       20 UNK        -0.1800 
    112 C         -1.8927  -24.2534  -55.7868 C.2       20 UNK         0.5000 
    113 O         -0.9464  -24.3273  -56.5724 O.2       20 UNK        -0.5000 
    114 N         -1.7716  -23.8000  -54.5294 N.am      21 UNK        -0.5000 
    115 CA        -0.5044  -23.3487  -53.9412 C.3       21 UNK         0.1400 
    116 CB        -0.6520  -23.2241  -52.4175 C.3       21 UNK        -0.1800 
    117 C          0.0047  -22.0274  -54.5509 C.2       21 UNK         0.5000 
    118 O          1.2046  -21.7561  -54.4942 O.2       21 UNK        -0.5000 
    119 N         -0.9094  -21.2544  -55.1485 N.am      22 UNK        -0.5000 
    120 CA        -0.6226  -20.0386  -55.9214 C.3       22 UNK         0.1400 
    121 C         -0.4359  -20.3051  -57.4452 C.2       22 UNK         0.5000 
    122 N         -0.4604  -21.5444  -57.9242 N.am      22 UNK        -0.7600 
    123 O         -0.2403  -19.3671  -58.2133 O.2       22 UNK        -0.5000 
    124 C124       -1.6758  -18.9312  -55.6521 C.3       23 UNK        -0.0398 
    125 S125       -1.7209  -18.4367  -53.8951 S.3       23 UNK        -0.2404 
    126 C126       -0.3549  -17.2351  -53.8494 C.3       23 UNK        -0.0205 
    127 H127        0.0177  -15.7019  -43.3682 H         1 UNK         0.0600 
    128 H128       -1.6424  -16.1566  -42.9459 H         1 UNK         0.0600 
    129 H129       -0.8545  -14.8074  -42.1275 H         1 UNK         0.0600 
    130 H130       -0.0366  -14.8301  -45.4417 H         1 UNK         0.3000 
    131 H131       -2.2590  -13.6853  -46.7013 H         1 UNK         0.0600 
    132 H132       -0.6262  -12.9273  -48.4556 H         1 UNK         0.0800 
    133 H133        0.7029  -13.3359  -47.3966 H         1 UNK         0.0800 
    134 H134        1.9782  -15.1339  -48.8696 H         1 UNK         0.0800 
    135 H135        0.9976  -14.2425  -50.0059 H         1 UNK         0.0800 
    136 H136       -0.3039  -15.4401  -51.7864 H         1 UNK         0.1150 
    137 H137        1.3414  -19.1986  -53.0328 H         1 UNK         0.1150 
    138 H138        2.5294  -17.4703  -49.2917 H         1 UNK         0.1150 
    139 H139        3.4785  -19.8755  -51.8396 H         1 UNK         0.0800 
    140 H140        3.7569  -19.3718  -50.1931 H         1 UNK         0.0800 
    141 H141        1.5167  -19.6733  -48.4634 H         1 UNK         0.0800 
    142 H142        2.8055  -20.7835  -48.0837 H         1 UNK         0.0800 
    143 H143        1.0200  -22.6806  -48.2638 H         1 UNK         0.0600 
    144 H144        1.5978  -20.9940  -46.0292 H         1 UNK         0.3000 
    145 H145       -0.0191  -23.0581  -43.5994 H         1 UNK         0.0600 
    146 H146        2.1979  -24.1421  -44.0258 H         1 UNK         0.0600 
    147 H147        2.9486  -22.5580  -44.1854 H         1 UNK         0.0600 
    148 H148        2.2630  -23.0614  -42.6420 H         1 UNK         0.0600 
    149 H149        1.5470  -20.7039  -43.3196 H         1 UNK         0.3000 
    150 H150       -1.1168  -18.3370  -43.7625 H         1 UNK         0.0600 
    151 H151       -1.2081  -19.0197  -41.4002 H         1 UNK         0.0600 
    152 H152       -0.1152  -17.6504  -41.5441 H         1 UNK         0.0600 
    153 H153        0.5286  -19.2772  -41.3531 H         1 UNK         0.0600 
    154 H154        1.6218  -17.8816  -43.2636 H         1 UNK         0.3000 
    155 H155        2.7647  -17.8565  -46.6654 H         1 UNK         0.0600 
    156 H156        1.8351  -15.6199  -46.2635 H         1 UNK         0.0600 
    157 H157        3.5315  -15.6206  -45.8177 H         1 UNK         0.0600 
    158 H158        2.2891  -15.6717  -44.5675 H         1 UNK         0.0600 
    159 H159        3.9954  -17.4975  -44.0723 H         1 UNK         0.3000 
    160 H160        5.0761  -20.8809  -43.7068 H         1 UNK         0.0600 
    161 H161        6.6256  -18.3094  -44.3396 H         1 UNK         0.0600 
    162 H162        6.7490  -19.8210  -45.2319 H         1 UNK         0.0600 
    163 H163        7.2775  -19.7503  -43.5586 H         1 UNK         0.0600 
    164 H164        5.4919  -18.5212  -42.1404 H         1 UNK         0.3000 
    165 H165        2.5397  -18.7172  -40.1769 H         1 UNK         0.0600 
    166 H166        4.1443  -18.9363  -38.3070 H         1 UNK         0.0600 
    167 H167        4.0012  -20.4678  -39.1538 H         1 UNK         0.0600 
    168 H168        5.4155  -19.4542  -39.4153 H         1 UNK         0.0600 
    169 H169        4.8006  -17.0757  -39.8675 H         1 UNK         0.3000 
    170 H170        5.0080  -15.0677  -40.5320 H         1 UNK         0.0600 
    171 H171        5.5335  -15.2417  -42.9210 H         1 UNK         0.0600 
    172 H172        4.0071  -14.5029  -43.3660 H         1 UNK         0.0600 
    173 H173        5.2166  -13.5675  -42.4931 H         1 UNK         0.0600 
    174 H174        3.4279  -13.8205  -39.6829 H         1 UNK         0.3000 
    175 H175        1.1496  -13.0583  -39.3549 H         1 UNK         0.0600 
    176 H176        1.6001  -10.5751  -39.3332 H         1 UNK         0.0600 
    177 H177        3.1054  -11.4568  -39.5037 H         1 UNK         0.0600 
    178 H178        2.3752  -10.6916  -40.9105 H         1 UNK         0.0600 
    179 H179        0.1190  -12.4300  -41.9372 H         1 UNK         0.3000 
    180 H180       -2.7254  -12.2708  -41.4494 H         1 UNK         0.0600 
    181 H181       -2.5503   -9.3080  -40.6923 H         1 UNK         0.0600 
    182 H182       -3.5597  -10.5331  -39.9414 H         1 UNK         0.0600 
    183 H183       -3.8757  -10.0403  -41.5964 H         1 UNK         0.0600 
    184 H184       -1.8944  -11.7982  -43.4240 H         1 UNK         0.3000 
    185 H185       -0.8960   -9.4317  -45.1900 H         1 UNK         0.0600 
    186 H186        1.2728   -8.6556  -44.2947 H         1 UNK         0.0600 
    187 H187        1.7835  -10.3115  -43.9843 H         1 UNK         0.0600 
    188 H188        1.5577   -9.7455  -45.6393 H         1 UNK         0.0600 
    189 H189        0.2436  -12.1623  -44.7541 H         1 UNK         0.3000 
    190 H190       -0.6369  -19.8390  -46.8561 H         1 UNK         0.3000 
    191 H191       -2.7317  -19.7030  -48.7909 H         1 UNK         0.0600 
    192 H192       -1.9337  -17.7599  -47.4725 H         1 UNK         0.0600 
    193 H193       -3.6511  -18.0082  -47.2081 H         1 UNK         0.0600 
    194 H194       -2.4938  -18.5106  -45.9798 H         1 UNK         0.0600 
    195 H195       -2.3393  -21.9390  -46.2487 H         1 UNK         0.3000 
    196 H196       -4.8759  -22.2464  -45.1502 H         1 UNK         0.0600 
    197 H197       -4.0790  -24.5380  -44.5628 H         1 UNK         0.0600 
    198 H198       -2.8068  -23.3530  -44.3048 H         1 UNK         0.0600 
    199 H199       -2.7667  -24.3966  -45.7259 H         1 UNK         0.0600 
    200 H200       -6.6861  -23.4378  -45.5963 H         1 UNK         0.3000 
    201 H201       -8.3783  -24.2679  -46.7615 H         1 UNK         0.0600 
    202 H202       -7.0210  -26.3556  -46.6469 H         1 UNK         0.0600 
    203 H203       -6.2655  -25.9691  -48.1904 H         1 UNK         0.0600 
    204 H204       -7.9888  -26.3070  -48.1107 H         1 UNK         0.0600 
    205 H205       -7.6157  -21.8136  -47.6162 H         1 UNK         0.3000 
    206 H206       -7.7952  -20.2453  -49.1776 H         1 UNK         0.0600 
    207 H207      -10.0798  -21.2009  -49.5310 H         1 UNK         0.0600 
    208 H208       -9.4246  -20.5294  -51.0158 H         1 UNK         0.0600 
    209 H209       -9.4508  -22.2707  -50.7828 H         1 UNK         0.0600 
    210 H210       -5.4285  -21.2877  -49.1156 H         1 UNK         0.3000 
    211 H211       -3.4984  -21.7649  -50.0477 H         1 UNK         0.0600 
    212 H212       -4.5976  -20.3264  -52.5190 H         1 UNK         0.0600 
    213 H213       -2.9016  -20.6473  -52.1906 H         1 UNK         0.0600 
    214 H214       -3.8012  -19.5621  -51.1475 H         1 UNK         0.0600 
    215 H215       -4.9361  -23.9201  -49.8703 H         1 UNK         0.3000 
    216 H216       -5.4609  -25.9735  -50.5342 H         1 UNK         0.0600 
    217 H217       -3.7814  -27.1922  -51.8869 H         1 UNK         0.0600 
    218 H218       -2.9717  -26.1249  -50.7500 H         1 UNK         0.0600 
    219 H219       -3.0826  -25.6816  -52.4520 H         1 UNK         0.0600 
    220 H220       -7.2474  -24.3331  -51.5081 H         1 UNK         0.3000 
    221 H221       -8.7541  -23.7609  -53.0309 H         1 UNK         0.0600 
    222 H222       -8.1798  -26.4834  -54.3221 H         1 UNK         0.0600 
    223 H223       -9.2782  -26.2017  -52.9722 H         1 UNK         0.0600 
    224 H224       -9.6260  -25.5097  -54.5486 H         1 UNK         0.0600 
    225 H225       -6.5620  -22.4519  -53.3903 H         1 UNK         0.3000 
    226 H226       -5.3648  -21.1144  -54.6046 H         1 UNK         0.0600 
    227 H227       -7.5023  -20.6164  -55.7994 H         1 UNK         0.0600 
    228 H228       -6.1023  -20.3954  -56.8347 H         1 UNK         0.0600 
    229 H229       -7.1035  -21.8263  -57.0198 H         1 UNK         0.0600 
    230 H230       -4.9853  -24.3538  -55.0214 H         1 UNK         0.3000 
    231 H231       -3.3320  -24.4942  -57.3497 H         1 UNK         0.0600 
    232 H232       -3.4186  -26.4070  -54.9641 H         1 UNK         0.0600 
    233 H233       -2.8197  -26.7604  -56.5767 H         1 UNK         0.0600 
    234 H234       -4.5338  -26.4570  -56.3309 H         1 UNK         0.0600 
    235 H235       -2.6046  -23.7016  -53.9515 H         1 UNK         0.3000 
    236 H236        0.2480  -24.1141  -54.1424 H         1 UNK         0.0600 
    237 H237       -1.0477  -24.1390  -51.9765 H         1 UNK         0.0600 
    238 H238        0.3135  -23.0298  -51.9501 H         1 UNK         0.0600 
    239 H239       -1.3128  -22.4034  -52.1411 H         1 UNK         0.0600 
    240 H240       -1.8672  -21.5749  -55.1728 H         1 UNK         0.3000 
    241 H241        0.3413  -19.6450  -55.5954 H         1 UNK         0.0600 
    242 H242       -0.3306  -21.6913  -58.9126 H         1 UNK         0.3800 
    243 H243       -0.6050  -22.3410  -57.3174 H         1 UNK         0.3800 
    244 H244       -1.4802  -18.0431  -56.2556 H         1 UNK         0.0800 
    245 H245       -2.6697  -19.2792  -55.9382 H         1 UNK         0.0800 
    246 H246       -0.7594  -16.2333  -54.0012 H         1 UNK         0.0800 
    247 H247        0.3363  -17.4114  -54.6743 H         1 UNK         0.0800 
@<TRIPOS>BOND
     1    1    2 1    
     2    1  127 1    
     3    1  128 1    
     4    1  129 1    
     5    2    3 2    
     6    2    4 am   BACKBONE|DICT|INTERRES
     7    4    5 1    
     8    4  130 1    
     9    5    6 1    
    10    5   65 1    
    11    5  131 1    
    12    6    7 1    
    13    6  132 1    
    14    6  133 1    
    15    7    8 1    
    16    8    9 1    
    17    8  134 1    
    18    8  135 1    
    19    9   10 ar   
    20    9   14 ar   
    21   10   11 ar   
    22   10  136 1    
    23   11   12 ar   
    24   11  126 1    
    25   12   13 ar   
    26   12  137 1    
    27   13   14 ar   
    28   13   15 1    
    29   14  138 1    
    30   15   16 1    
    31   15  139 1    
    32   15  140 1    
    33   16   17 1    
    34   17   18 1    
    35   17  141 1    
    36   17  142 1    
    37   18   19 1    
    38   18   67 1    
    39   18  143 1    
    40   19   20 am   BACKBONE|DICT|INTERRES
    41   19  144 1    
    42   20   21 2    
    43   20   22 1    
    44   22   23 1    
    45   22   24 1    
    46   22  145 1    
    47   23  146 1    
    48   23  147 1    
    49   23  148 1    
    50   24   25 am   BACKBONE|DICT|INTERRES
    51   24  149 1    
    52   25   26 2    
    53   25   27 1    
    54   27   28 1    
    55   27   29 1    
    56   27  150 1    
    57   28  151 1    
    58   28  152 1    
    59   28  153 1    
    60   29   30 am   BACKBONE|DICT|INTERRES
    61   29  154 1    
    62   30   31 2    
    63   30   32 1    
    64   32   33 1    
    65   32   34 1    
    66   32  155 1    
    67   33  156 1    
    68   33  157 1    
    69   33  158 1    
    70   34   35 am   BACKBONE|DICT|INTERRES
    71   34  159 1    
    72   35   36 2    
    73   35   37 1    
    74   37   38 1    
    75   37   39 1    
    76   37  160 1    
    77   38  161 1    
    78   38  162 1    
    79   38  163 1    
    80   39   40 am   BACKBONE|DICT|INTERRES
    81   39  164 1    
    82   40   41 2    
    83   40   42 1    
    84   42   43 1    
    85   42   44 1    
    86   42  165 1    
    87   43  166 1    
    88   43  167 1    
    89   43  168 1    
    90   44   45 am   BACKBONE|DICT|INTERRES
    91   44  169 1    
    92   45   46 2    
    93   45   47 1    
    94   47   48 1    
    95   47   49 1    
    96   47  170 1    
    97   48  171 1    
    98   48  172 1    
    99   48  173 1    
   100   49   50 am   BACKBONE|DICT|INTERRES
   101   49  174 1    
   102   50   51 2    
   103   50   52 1    
   104   52   53 1    
   105   52   54 1    
   106   52  175 1    
   107   53  176 1    
   108   53  177 1    
   109   53  178 1    
   110   54   55 am   BACKBONE|DICT|INTERRES
   111   54  179 1    
   112   55   56 2    
   113   55   57 1    
   114   57   58 1    
   115   57   59 1    
   116   57  180 1    
   117   58  181 1    
   118   58  182 1    
   119   58  183 1    
   120   59   60 am   BACKBONE|DICT|INTERRES
   121   59  184 1    
   122   60   61 2    
   123   60   62 1    
   124   62   63 1    
   125   62   64 1    
   126   62  185 1    
   127   63  186 1    
   128   63  187 1    
   129   63  188 1    
   130   64   65 am   BACKBONE|DICT|INTERRES
   131   64  189 1    
   132   65   66 2    
   133   67   68 2    
   134   67   69 am   BACKBONE|DICT|INTERRES
   135   69   70 1    
   136   69  190 1    
   137   70   71 1    
   138   70   72 1    
   139   70  191 1    
   140   71  192 1    
   141   71  193 1    
   142   71  194 1    
   143   72   73 2    
   144   72   74 am   BACKBONE|DICT|INTERRES
   145   74   75 1    
   146   74  195 1    
   147   75   76 1    
   148   75   77 1    
   149   75  196 1    
   150   76  197 1    
   151   76  198 1    
   152   76  199 1    
   153   77   78 2    
   154   77   79 am   BACKBONE|DICT|INTERRES
   155   79   80 1    
   156   79  200 1    
   157   80   81 1    
   158   80   82 1    
   159   80  201 1    
   160   81  202 1    
   161   81  203 1    
   162   81  204 1    
   163   82   83 2    
   164   82   84 am   BACKBONE|DICT|INTERRES
   165   84   85 1    
   166   84  205 1    
   167   85   86 1    
   168   85   87 1    
   169   85  206 1    
   170   86  207 1    
   171   86  208 1    
   172   86  209 1    
   173   87   88 2    
   174   87   89 am   BACKBONE|DICT|INTERRES
   175   89   90 1    
   176   89  210 1    
   177   90   91 1    
   178   90   92 1    
   179   90  211 1    
   180   91  212 1    
   181   91  213 1    
   182   91  214 1    
   183   92   93 2    
   184   92   94 am   BACKBONE|DICT|INTERRES
   185   94   95 1    
   186   94  215 1    
   187   95   96 1    
   188   95   97 1    
   189   95  216 1    
   190   96  217 1    
   191   96  218 1    
   192   96  219 1    
   193   97   98 2    
   194   97   99 am   BACKBONE|DICT|INTERRES
   195   99  100 1    
   196   99  220 1    
   197  100  101 1    
   198  100  102 1    
   199  100  221 1    
   200  101  222 1    
   201  101  223 1    
   202  101  224 1    
   203  102  103 2    
   204  102  104 am   BACKBONE|DICT|INTERRES
   205  104  105 1    
   206  104  225 1    
   207  105  106 1    
   208  105  107 1    
   209  105  226 1    
   210  106  227 1    
   211  106  228 1    
   212  106  229 1    
   213  107  108 2    
   214  107  109 am   BACKBONE|DICT|INTERRES
   215  109  110 1    
   216  109  230 1    
   217  110  111 1    
   218  110  112 1    
   219  110  231 1    
   220  111  232 1    
   221  111  233 1    
   222  111  234 1    
   223  112  113 2    
   224  112  114 am   BACKBONE|DICT|INTERRES
   225  114  115 1    
   226  114  235 1    
   227  115  116 1    
   228  115  117 1    
   229  115  236 1    
   230  116  237 1    
   231  116  238 1    
   232  116  239 1    
   233  117  118 2    
   234  117  119 am   BACKBONE|DICT|INTERRES
   235  119  120 1    
   236  119  240 1    
   237  120  121 1    
   238  120  124 1    
   239  120  241 1    
   240  121  122 am   BACKBONE|DICT|INTERRES
   241  121  123 2    
   242  122  242 1    
   243  122  243 1    
   244  124  125 1    
   245  124  244 1    
   246  124  245 1    
   247  125  126 1    
   248  126  246 1    
   249  126  247 1    
@<TRIPOS>SUBSTRUCTURE
     1 UNK         1 GROUP             0       ****    0 ROOT    
