@<TRIPOS>MOLECULE
3R540
247   249    1
SMALL
USER_CHARGES


@<TRIPOS>ATOM
      1 CA          5.2518  -14.5596  -48.9993 C.3       0 UNK        -0.1800 
      2 C           4.0722  -13.8268  -48.3758 C.2       0 UNK         0.5000 
      3 O           3.7309  -12.7311  -48.8196 O.2       0 UNK        -0.5000 
      4 N           3.4546  -14.4304  -47.3488 N.am      1 UNK        -0.5000 
      5 CA          2.2969  -13.9130  -46.5984 C.3       1 UNK         0.1400 
      6 C6          0.9967  -13.7902  -47.4415 C.3       23 UNK        -0.0398 
      7 S7          0.4550  -15.4055  -48.1041 S.3       23 UNK        -0.2404 
      8 C8          0.9557  -15.2874  -49.8498 C.3       23 UNK        -0.0205 
      9 C9          1.4965  -16.6111  -50.3697 C.ar      23 UNK        -0.0193 
     10 C10         0.8322  -17.3073  -51.3827 C.ar      23 UNK        -0.1150 
     11 C11         1.3580  -18.5003  -51.8991 C.ar      23 UNK        -0.0193 
     12 C12         2.5622  -18.9878  -51.3791 C.ar      23 UNK        -0.1150 
     13 C13         3.2304  -18.3077  -50.3570 C.ar      23 UNK        -0.0193 
     14 C14         2.6898  -17.1230  -49.8579 C.ar      23 UNK        -0.1150 
     15 C15         4.5495  -18.8289  -49.8047 C.3       23 UNK        -0.0205 
     16 S16         4.4012  -20.4832  -49.0638 S.3       23 UNK        -0.2404 
     17 C17         3.2363  -20.1928  -47.6844 C.3       23 UNK        -0.0398 
     18 CA          2.7410  -21.5283  -47.0652 C.3       11 UNK         0.1400 
     19 N           2.4529  -21.3763  -45.6377 N.am      11 UNK        -0.5000 
     20 C           2.6690  -22.3139  -44.7058 C.2       10 UNK         0.5000 
     21 O           3.1318  -23.4300  -44.9471 O.2       10 UNK        -0.5000 
     22 CA          2.3305  -21.9376  -43.2523 C.3       10 UNK         0.1400 
     23 CB          3.4669  -21.1196  -42.6186 C.3       10 UNK        -0.1800 
     24 N           1.0799  -21.1876  -43.1596 N.am      10 UNK        -0.5000 
     25 C          -0.1345  -21.7530  -43.1611 C.2       9 UNK         0.5000 
     26 O          -0.3182  -22.9707  -43.1675 O.2       9 UNK        -0.5000 
     27 CA         -1.3538  -20.8103  -43.1305 C.3       9 UNK         0.1400 
     28 CB         -1.8659  -20.6546  -41.6906 C.3       9 UNK        -0.1800 
     29 N          -1.0860  -19.4856  -43.6926 N.am      9 UNK        -0.5000 
     30 C          -0.8438  -19.2389  -44.9882 C.2       8 UNK         0.5000 
     31 O          -0.8581  -20.0995  -45.8644 O.2       8 UNK        -0.5000 
     32 CA         -0.4717  -17.7928  -45.3612 C.3       8 UNK         0.1400 
     33 CB         -1.7339  -16.9323  -45.5147 C.3       8 UNK        -0.1800 
     34 N           0.4366  -17.1773  -44.3917 N.am      8 UNK        -0.5000 
     35 C           1.6726  -17.6255  -44.1293 C.2       7 UNK         0.5000 
     36 O           2.1871  -18.5804  -44.7120 O.2       7 UNK        -0.5000 
     37 CA          2.4458  -16.9304  -42.9969 C.3       7 UNK         0.1400 
     38 CB          3.2135  -15.7028  -43.5053 C.3       7 UNK        -0.1800 
     39 N           1.5637  -16.5393  -41.8988 N.am      7 UNK        -0.5000 
     40 C           1.1372  -17.3803  -40.9477 C.2       6 UNK         0.5000 
     41 O           1.4807  -18.5600  -40.8717 O.2       6 UNK        -0.5000 
     42 CA          0.1340  -16.8118  -39.9277 C.3       6 UNK         0.1400 
     43 CB          0.8685  -16.0845  -38.7918 C.3       6 UNK        -0.1800 
     44 N          -0.8430  -15.9058  -40.5353 N.am      6 UNK        -0.5000 
     45 C          -1.7829  -16.2938  -41.4095 C.2       5 UNK         0.5000 
     46 O          -1.9106  -17.4518  -41.8024 O.2       5 UNK        -0.5000 
     47 CA         -2.7184  -15.2078  -41.9713 C.3       5 UNK         0.1400 
     48 CB         -3.9457  -15.0385  -41.0638 C.3       5 UNK        -0.1800 
     49 N          -2.0824  -13.9047  -42.1660 N.am      5 UNK        -0.5000 
     50 C          -0.9909  -13.6627  -42.9040 C.2       4 UNK         0.5000 
     51 O          -0.3444  -14.5392  -43.4840 O.2       4 UNK        -0.5000 
     52 CA         -0.5156  -12.1998  -42.9955 C.3       4 UNK         0.1400 
     53 CB         -1.3802  -11.1880  -42.2090 C.3       4 UNK        -0.1800 
     54 N           0.8909  -12.0821  -42.6122 N.am      4 UNK        -0.5000 
     55 C           1.4464  -12.4172  -41.4370 C.2       3 UNK         0.5000 
     56 O           0.8035  -12.8611  -40.4840 O.2       3 UNK        -0.5000 
     57 CA          2.9776  -12.2607  -41.3136 C.3       3 UNK         0.1400 
     58 CB          3.5990  -13.3904  -40.4726 C.3       3 UNK        -0.1800 
     59 N           3.6305  -12.2219  -42.6261 N.am      3 UNK        -0.5000 
     60 C           3.9231  -11.1080  -43.3102 C.2       2 UNK         0.5000 
     61 O           3.7417   -9.9695  -42.8788 O.2       2 UNK        -0.5000 
     62 CA          4.4705  -11.3027  -44.7366 C.3       2 UNK         0.1400 
     63 CB          6.0029  -11.4075  -44.7167 C.3       2 UNK        -0.1800 
     64 N           3.9195  -12.4753  -45.4244 N.am      2 UNK        -0.5000 
     65 C           2.6401  -12.6265  -45.8043 C.2       1 UNK         0.5000 
     66 O           1.7594  -11.8093  -45.5341 O.2       1 UNK        -0.5000 
     67 C           1.5564  -22.1598  -47.8389 C.2       11 UNK         0.5000 
     68 O           0.5727  -22.6059  -47.2448 O.2       11 UNK        -0.5000 
     69 N           1.6837  -22.2018  -49.1728 N.am      12 UNK        -0.5000 
     70 CA          0.7516  -22.8329  -50.1117 C.3       12 UNK         0.1400 
     71 CB          1.3971  -22.8762  -51.5047 C.3       12 UNK        -0.1800 
     72 C          -0.6427  -22.1813  -50.1806 C.2       12 UNK         0.5000 
     73 O          -1.5796  -22.8291  -50.6443 O.2       12 UNK        -0.5000 
     74 N          -0.7841  -20.9425  -49.6866 N.am      13 UNK        -0.5000 
     75 CA         -2.0648  -20.2390  -49.5544 C.3       13 UNK         0.1400 
     76 CB         -1.8087  -18.7938  -49.1044 C.3       13 UNK        -0.1800 
     77 C          -3.0765  -20.9405  -48.6209 C.2       13 UNK         0.5000 
     78 O          -4.2738  -20.6747  -48.7239 O.2       13 UNK        -0.5000 
     79 N          -2.5927  -21.8491  -47.7617 N.am      14 UNK        -0.5000 
     80 CA         -3.3947  -22.7334  -46.9186 C.3       14 UNK         0.1400 
     81 CB         -2.4542  -23.4880  -45.9698 C.3       14 UNK        -0.1800 
     82 C          -4.2423  -23.7442  -47.7162 C.2       14 UNK         0.5000 
     83 O          -5.2845  -24.1778  -47.2216 O.2       14 UNK        -0.5000 
     84 N          -3.7951  -24.1095  -48.9272 N.am      15 UNK        -0.5000 
     85 CA         -4.4885  -25.0248  -49.8299 C.3       15 UNK         0.1400 
     86 CB         -3.4671  -25.6945  -50.7614 C.3       15 UNK        -0.1800 
     87 C          -5.6040  -24.2841  -50.5884 C.2       15 UNK         0.5000 
     88 O          -5.4605  -23.9614  -51.7709 O.2       15 UNK        -0.5000 
     89 N          -6.6998  -24.0123  -49.8689 N.am      16 UNK        -0.5000 
     90 CA         -7.8715  -23.2703  -50.3364 C.3       16 UNK         0.1400 
     91 CB         -8.8664  -23.1140  -49.1776 C.3       16 UNK        -0.1800 
     92 C          -8.5605  -23.8853  -51.5681 C.2       16 UNK         0.5000 
     93 O          -9.0931  -23.1440  -52.3935 O.2       16 UNK        -0.5000 
     94 N          -8.5147  -25.2185  -51.6768 N.am      17 UNK        -0.5000 
     95 CA         -8.9880  -25.9667  -52.8355 C.3       17 UNK         0.1400 
     96 CB         -9.5656  -27.3171  -52.3757 C.3       17 UNK        -0.1800 
     97 C          -7.8539  -26.1473  -53.8581 C.2       17 UNK         0.5000 
     98 O          -7.9272  -25.5891  -54.9526 O.2       17 UNK        -0.5000 
     99 N          -6.8276  -26.9263  -53.4844 N.am      18 UNK        -0.5000 
    100 CA        -5.8002  -27.4460  -54.3932 C.3       18 UNK         0.1400 
    101 CB        -4.9721  -28.5180  -53.6679 C.3       18 UNK        -0.1800 
    102 C         -4.8856  -26.3885  -55.0407 C.2       18 UNK         0.5000 
    103 O         -4.4381  -26.6064  -56.1675 O.2       18 UNK        -0.5000 
    104 N         -4.6363  -25.2705  -54.3465 N.am      19 UNK        -0.5000 
    105 CA        -3.8722  -24.1316  -54.8664 C.3       19 UNK         0.1400 
    106 CB        -2.7331  -23.7915  -53.8897 C.3       19 UNK        -0.1800 
    107 C         -4.7723  -22.9050  -55.0962 C.2       19 UNK         0.5000 
    108 O         -4.2477  -21.8237  -55.3642 O.2       19 UNK        -0.5000 
    109 N         -6.0978  -23.0674  -54.9473 N.am      20 UNK        -0.5000 
    110 CA        -7.1326  -22.0295  -55.0348 C.3       20 UNK         0.1400 
    111 CB        -7.3046  -21.5720  -56.4979 C.3       20 UNK        -0.1800 
    112 C         -6.8903  -20.8489  -54.0664 C.2       20 UNK         0.5000 
    113 O         -7.1627  -19.6989  -54.4165 O.2       20 UNK        -0.5000 
    114 N         -6.3116  -21.1467  -52.8910 N.am      21 UNK        -0.5000 
    115 CA        -5.8521  -20.1979  -51.8666 C.3       21 UNK         0.1400 
    116 CB        -7.0438  -19.4340  -51.2476 C.3       21 UNK        -0.1800 
    117 C         -4.7518  -19.2330  -52.3682 C.2       21 UNK         0.5000 
    118 O         -4.5935  -18.1451  -51.8133 O.2       21 UNK        -0.5000 
    119 N         -4.0225  -19.6381  -53.4173 N.am      22 UNK        -0.5000 
    120 CA        -3.0844  -18.8169  -54.1971 C.3       22 UNK         0.1400 
    121 C         -3.7715  -17.7747  -55.1363 C.2       22 UNK         0.5000 
    122 N         -5.0810  -17.8258  -55.3563 N.am      22 UNK        -0.7600 
    123 O         -3.1068  -16.9117  -55.7028 O.2       22 UNK        -0.5000 
    124 C124       -1.9375  -18.2063  -53.3377 C.3       23 UNK        -0.0398 
    125 S125       -0.3166  -18.2913  -54.1773 S.3       23 UNK        -0.2404 
    126 C126        0.6600  -19.2951  -53.0050 C.3       23 UNK        -0.0205 
    127 H127        5.0273  -14.8164  -50.0347 H         1 UNK         0.0600 
    128 H128        5.4886  -15.4794  -48.4641 H         1 UNK         0.0600 
    129 H129        6.1370  -13.9238  -48.9886 H         1 UNK         0.0600 
    130 H130        3.7910  -15.3322  -47.0435 H         1 UNK         0.3000 
    131 H131        2.0841  -14.6640  -45.8399 H         1 UNK         0.0600 
    132 H132        0.1778  -13.4220  -46.8210 H         1 UNK         0.0800 
    133 H133        1.1121  -13.0632  -48.2461 H         1 UNK         0.0800 
    134 H134        0.1001  -14.9547  -50.4391 H         1 UNK         0.0800 
    135 H135        1.7269  -14.5280  -49.9774 H         1 UNK         0.0800 
    136 H136       -0.0917  -16.9055  -51.7686 H         1 UNK         0.1150 
    137 H137        2.9880  -19.9008  -51.7704 H         1 UNK         0.1150 
    138 H138        3.2003  -16.5915  -49.0707 H         1 UNK         0.1150 
    139 H139        5.2772  -18.8712  -50.6162 H         1 UNK         0.0800 
    140 H140        4.9611  -18.1454  -49.0604 H         1 UNK         0.0800 
    141 H141        2.4001  -19.5679  -48.0035 H         1 UNK         0.0800 
    142 H142        3.7755  -19.6070  -46.9380 H         1 UNK         0.0800 
    143 H143        3.5593  -22.2470  -47.1484 H         1 UNK         0.0600 
    144 H144        2.0788  -20.4789  -45.3479 H         1 UNK         0.3000 
    145 H145        2.2318  -22.8630  -42.6806 H         1 UNK         0.0600 
    146 H146        3.2427  -20.8716  -41.5809 H         1 UNK         0.0600 
    147 H147        3.6455  -20.1869  -43.1534 H         1 UNK         0.0600 
    148 H148        4.4007  -21.6830  -42.6246 H         1 UNK         0.0600 
    149 H149        1.1478  -20.1799  -43.1508 H         1 UNK         0.3000 
    150 H150       -2.1472  -21.2711  -43.7211 H         1 UNK         0.0600 
    151 H151       -2.0795  -21.6256  -41.2420 H         1 UNK         0.0600 
    152 H152       -2.7887  -20.0750  -41.6613 H         1 UNK         0.0600 
    153 H153       -1.1334  -20.1522  -41.0572 H         1 UNK         0.0600 
    154 H154       -1.1220  -18.7065  -43.0411 H         1 UNK         0.3000 
    155 H155        0.0457  -17.8187  -46.3221 H         1 UNK         0.0600 
    156 H156       -2.3626  -17.3070  -46.3230 H         1 UNK         0.0600 
    157 H157       -1.4853  -15.8970  -45.7479 H         1 UNK         0.0600 
    158 H158       -2.3341  -16.9383  -44.6063 H         1 UNK         0.0600 
    159 H159        0.0980  -16.3486  -43.9110 H         1 UNK         0.3000 
    160 H160        3.1825  -17.6470  -42.6269 H         1 UNK         0.0600 
    161 H161        2.5524  -14.8468  -43.6344 H         1 UNK         0.0600 
    162 H162        3.7030  -15.9066  -44.4585 H         1 UNK         0.0600 
    163 H163        3.9976  -15.4204  -42.8040 H         1 UNK         0.0600 
    164 H164        1.1725  -15.6082  -41.9287 H         1 UNK         0.3000 
    165 H165       -0.4105  -17.6542  -39.4955 H         1 UNK         0.0600 
    166 H166        0.1713  -15.7421  -38.0270 H         1 UNK         0.0600 
    167 H167        1.5863  -16.7457  -38.3046 H         1 UNK         0.0600 
    168 H168        1.4177  -15.2163  -39.1569 H         1 UNK         0.0600 
    169 H169       -0.7749  -14.9264  -40.2931 H         1 UNK         0.3000 
    170 H170       -3.0681  -15.5452  -42.9474 H         1 UNK         0.0600 
    171 H171       -3.6691  -14.6594  -40.0791 H         1 UNK         0.0600 
    172 H172       -4.6676  -14.3477  -41.4998 H         1 UNK         0.0600 
    173 H173       -4.4576  -15.9906  -40.9173 H         1 UNK         0.0600 
    174 H174       -2.5239  -13.1216  -41.7068 H         1 UNK         0.3000 
    175 H175       -0.5727  -11.9314  -44.0510 H         1 UNK         0.0600 
    176 H176       -1.3931  -11.3967  -41.1386 H         1 UNK         0.0600 
    177 H177       -1.0017  -10.1740  -42.3393 H         1 UNK         0.0600 
    178 H178       -2.4115  -11.1882  -42.5641 H         1 UNK         0.0600 
    179 H179        1.5025  -11.7717  -43.3565 H         1 UNK         0.3000 
    180 H180        3.1588  -11.3215  -40.7872 H         1 UNK         0.0600 
    181 H181        4.6866  -13.3195  -40.4537 H         1 UNK         0.0600 
    182 H182        3.3306  -14.3759  -40.8507 H         1 UNK         0.0600 
    183 H183        3.2559  -13.3378  -39.4387 H         1 UNK         0.0600 
    184 H184        3.8127  -13.1104  -43.0672 H         1 UNK         0.3000 
    185 H185        4.1973  -10.4184  -45.3162 H         1 UNK         0.0600 
    186 H186        6.4079  -11.4574  -45.7276 H         1 UNK         0.0600 
    187 H187        6.4477  -10.5368  -44.2329 H         1 UNK         0.0600 
    188 H188        6.3399  -12.2921  -44.1749 H         1 UNK         0.0600 
    189 H189        4.5813  -13.1864  -45.6986 H         1 UNK         0.3000 
    190 H190        2.5222  -21.8055  -49.5773 H         1 UNK         0.3000 
    191 H191        0.5998  -23.8617  -49.7791 H         1 UNK         0.0600 
    192 H192        2.3275  -23.4442  -51.4907 H         1 UNK         0.0600 
    193 H193        1.6205  -21.8773  -51.8764 H         1 UNK         0.0600 
    194 H194        0.7367  -23.3556  -52.2290 H         1 UNK         0.0600 
    195 H195        0.0289  -20.4827  -49.3058 H         1 UNK         0.3000 
    196 H196       -2.5236  -20.2085  -50.5439 H         1 UNK         0.0600 
    197 H197       -1.2373  -18.2448  -49.8500 H         1 UNK         0.0600 
    198 H198       -1.2561  -18.7567  -48.1671 H         1 UNK         0.0600 
    199 H199       -2.7454  -18.2542  -48.9587 H         1 UNK         0.0600 
    200 H200       -1.5872  -21.9559  -47.6901 H         1 UNK         0.3000 
    201 H201       -4.0692  -22.1128  -46.3256 H         1 UNK         0.0600 
    202 H202       -1.7971  -22.8007  -45.4411 H         1 UNK         0.0600 
    203 H203       -1.8191  -24.1923  -46.5090 H         1 UNK         0.0600 
    204 H204       -3.0151  -24.0511  -45.2232 H         1 UNK         0.0600 
    205 H205       -2.9647  -23.6623  -49.3001 H         1 UNK         0.3000 
    206 H206       -4.9590  -25.8196  -49.2472 H         1 UNK         0.0600 
    207 H207       -2.8764  -24.9650  -51.3096 H         1 UNK         0.0600 
    208 H208       -2.7763  -26.3221  -50.1986 H         1 UNK         0.0600 
    209 H209       -3.9639  -26.3298  -51.4922 H         1 UNK         0.0600 
    210 H210       -6.6863  -24.2622  -48.8870 H         1 UNK         0.3000 
    211 H211       -7.5247  -22.2790  -50.6193 H         1 UNK         0.0600 
    212 H212       -9.2215  -24.0810  -48.8192 H         1 UNK         0.0600 
    213 H213       -9.7388  -22.5365  -49.4865 H         1 UNK         0.0600 
    214 H214       -8.4123  -22.5895  -48.3366 H         1 UNK         0.0600 
    215 H215       -8.0523  -25.7402  -50.9473 H         1 UNK         0.3000 
    216 H216       -9.7942  -25.4185  -53.3282 H         1 UNK         0.0600 
    217 H217       -9.8823  -27.9174  -53.2297 H         1 UNK         0.0600 
    218 H218      -10.4408  -27.1696  -51.7428 H         1 UNK         0.0600 
    219 H219       -8.8439  -27.9056  -51.8084 H         1 UNK         0.0600 
    220 H220       -6.8375  -27.3233  -52.5573 H         1 UNK         0.3000 
    221 H221       -6.3259  -27.9417  -55.2123 H         1 UNK         0.0600 
    222 H222       -5.6028  -29.3389  -53.3262 H         1 UNK         0.0600 
    223 H223       -4.2196  -28.9458  -54.3319 H         1 UNK         0.0600 
    224 H224       -4.4501  -28.1142  -52.8021 H         1 UNK         0.0600 
    225 H225       -5.0445  -25.1435  -53.4264 H         1 UNK         0.3000 
    226 H226       -3.4210  -24.3735  -55.8303 H         1 UNK         0.0600 
    227 H227       -2.1364  -24.6717  -53.6512 H         1 UNK         0.0600 
    228 H228       -2.0575  -23.0510  -54.3195 H         1 UNK         0.0600 
    229 H229       -3.1137  -23.3738  -52.9575 H         1 UNK         0.0600 
    230 H230       -6.4412  -24.0014  -54.7592 H         1 UNK         0.3000 
    231 H231       -8.0672  -22.4977  -54.7264 H         1 UNK         0.0600 
    232 H232       -8.1568  -20.8993  -56.6006 H         1 UNK         0.0600 
    233 H233       -7.4828  -22.4215  -57.1572 H         1 UNK         0.0600 
    234 H234       -6.4237  -21.0426  -56.8627 H         1 UNK         0.0600 
    235 H235       -6.0879  -22.1199  -52.7115 H         1 UNK         0.3000 
    236 H236       -5.3982  -20.8063  -51.0847 H         1 UNK         0.0600 
    237 H237       -7.4417  -18.6851  -51.9332 H         1 UNK         0.0600 
    238 H238       -7.8632  -20.0978  -50.9778 H         1 UNK         0.0600 
    239 H239       -6.7382  -18.9126  -50.3398 H         1 UNK         0.0600 
    240 H240       -4.2410  -20.5316  -53.8458 H         1 UNK         0.3000 
    241 H241       -2.6385  -19.5377  -54.8833 H         1 UNK         0.0600 
    242 H242       -5.6710  -18.5276  -54.9208 H         1 UNK         0.3800 
    243 H243       -5.4985  -17.1479  -55.9736 H         1 UNK         0.3800 
    244 H244       -1.8563  -18.7310  -52.3861 H         1 UNK         0.0800 
    245 H245       -2.1515  -17.1696  -53.0725 H         1 UNK         0.0800 
    246 H246        0.0290  -20.0626  -52.5558 H         1 UNK         0.0800 
    247 H247        1.4113  -19.8273  -53.5905 H         1 UNK         0.0800 
@<TRIPOS>BOND
     1    1    2 1    
     2    1  127 1    
     3    1  128 1    
     4    1  129 1    
     5    2    3 2    
     6    2    4 am   BACKBONE|DICT|INTERRES
     7    4    5 1    
     8    4  130 1    
     9    5    6 1    
    10    5   65 1    
    11    5  131 1    
    12    6    7 1    
    13    6  132 1    
    14    6  133 1    
    15    7    8 1    
    16    8    9 1    
    17    8  134 1    
    18    8  135 1    
    19    9   10 ar   
    20    9   14 ar   
    21   10   11 ar   
    22   10  136 1    
    23   11   12 ar   
    24   11  126 1    
    25   12   13 ar   
    26   12  137 1    
    27   13   14 ar   
    28   13   15 1    
    29   14  138 1    
    30   15   16 1    
    31   15  139 1    
    32   15  140 1    
    33   16   17 1    
    34   17   18 1    
    35   17  141 1    
    36   17  142 1    
    37   18   19 1    
    38   18   67 1    
    39   18  143 1    
    40   19   20 am   BACKBONE|DICT|INTERRES
    41   19  144 1    
    42   20   21 2    
    43   20   22 1    
    44   22   23 1    
    45   22   24 1    
    46   22  145 1    
    47   23  146 1    
    48   23  147 1    
    49   23  148 1    
    50   24   25 am   BACKBONE|DICT|INTERRES
    51   24  149 1    
    52   25   26 2    
    53   25   27 1    
    54   27   28 1    
    55   27   29 1    
    56   27  150 1    
    57   28  151 1    
    58   28  152 1    
    59   28  153 1    
    60   29   30 am   BACKBONE|DICT|INTERRES
    61   29  154 1    
    62   30   31 2    
    63   30   32 1    
    64   32   33 1    
    65   32   34 1    
    66   32  155 1    
    67   33  156 1    
    68   33  157 1    
    69   33  158 1    
    70   34   35 am   BACKBONE|DICT|INTERRES
    71   34  159 1    
    72   35   36 2    
    73   35   37 1    
    74   37   38 1    
    75   37   39 1    
    76   37  160 1    
    77   38  161 1    
    78   38  162 1    
    79   38  163 1    
    80   39   40 am   BACKBONE|DICT|INTERRES
    81   39  164 1    
    82   40   41 2    
    83   40   42 1    
    84   42   43 1    
    85   42   44 1    
    86   42  165 1    
    87   43  166 1    
    88   43  167 1    
    89   43  168 1    
    90   44   45 am   BACKBONE|DICT|INTERRES
    91   44  169 1    
    92   45   46 2    
    93   45   47 1    
    94   47   48 1    
    95   47   49 1    
    96   47  170 1    
    97   48  171 1    
    98   48  172 1    
    99   48  173 1    
   100   49   50 am   BACKBONE|DICT|INTERRES
   101   49  174 1    
   102   50   51 2    
   103   50   52 1    
   104   52   53 1    
   105   52   54 1    
   106   52  175 1    
   107   53  176 1    
   108   53  177 1    
   109   53  178 1    
   110   54   55 am   BACKBONE|DICT|INTERRES
   111   54  179 1    
   112   55   56 2    
   113   55   57 1    
   114   57   58 1    
   115   57   59 1    
   116   57  180 1    
   117   58  181 1    
   118   58  182 1    
   119   58  183 1    
   120   59   60 am   BACKBONE|DICT|INTERRES
   121   59  184 1    
   122   60   61 2    
   123   60   62 1    
   124   62   63 1    
   125   62   64 1    
   126   62  185 1    
   127   63  186 1    
   128   63  187 1    
   129   63  188 1    
   130   64   65 am   BACKBONE|DICT|INTERRES
   131   64  189 1    
   132   65   66 2    
   133   67   68 2    
   134   67   69 am   BACKBONE|DICT|INTERRES
   135   69   70 1    
   136   69  190 1    
   137   70   71 1    
   138   70   72 1    
   139   70  191 1    
   140   71  192 1    
   141   71  193 1    
   142   71  194 1    
   143   72   73 2    
   144   72   74 am   BACKBONE|DICT|INTERRES
   145   74   75 1    
   146   74  195 1    
   147   75   76 1    
   148   75   77 1    
   149   75  196 1    
   150   76  197 1    
   151   76  198 1    
   152   76  199 1    
   153   77   78 2    
   154   77   79 am   BACKBONE|DICT|INTERRES
   155   79   80 1    
   156   79  200 1    
   157   80   81 1    
   158   80   82 1    
   159   80  201 1    
   160   81  202 1    
   161   81  203 1    
   162   81  204 1    
   163   82   83 2    
   164   82   84 am   BACKBONE|DICT|INTERRES
   165   84   85 1    
   166   84  205 1    
   167   85   86 1    
   168   85   87 1    
   169   85  206 1    
   170   86  207 1    
   171   86  208 1    
   172   86  209 1    
   173   87   88 2    
   174   87   89 am   BACKBONE|DICT|INTERRES
   175   89   90 1    
   176   89  210 1    
   177   90   91 1    
   178   90   92 1    
   179   90  211 1    
   180   91  212 1    
   181   91  213 1    
   182   91  214 1    
   183   92   93 2    
   184   92   94 am   BACKBONE|DICT|INTERRES
   185   94   95 1    
   186   94  215 1    
   187   95   96 1    
   188   95   97 1    
   189   95  216 1    
   190   96  217 1    
   191   96  218 1    
   192   96  219 1    
   193   97   98 2    
   194   97   99 am   BACKBONE|DICT|INTERRES
   195   99  100 1    
   196   99  220 1    
   197  100  101 1    
   198  100  102 1    
   199  100  221 1    
   200  101  222 1    
   201  101  223 1    
   202  101  224 1    
   203  102  103 2    
   204  102  104 am   BACKBONE|DICT|INTERRES
   205  104  105 1    
   206  104  225 1    
   207  105  106 1    
   208  105  107 1    
   209  105  226 1    
   210  106  227 1    
   211  106  228 1    
   212  106  229 1    
   213  107  108 2    
   214  107  109 am   BACKBONE|DICT|INTERRES
   215  109  110 1    
   216  109  230 1    
   217  110  111 1    
   218  110  112 1    
   219  110  231 1    
   220  111  232 1    
   221  111  233 1    
   222  111  234 1    
   223  112  113 2    
   224  112  114 am   BACKBONE|DICT|INTERRES
   225  114  115 1    
   226  114  235 1    
   227  115  116 1    
   228  115  117 1    
   229  115  236 1    
   230  116  237 1    
   231  116  238 1    
   232  116  239 1    
   233  117  118 2    
   234  117  119 am   BACKBONE|DICT|INTERRES
   235  119  120 1    
   236  119  240 1    
   237  120  121 1    
   238  120  124 1    
   239  120  241 1    
   240  121  122 am   BACKBONE|DICT|INTERRES
   241  121  123 2    
   242  122  242 1    
   243  122  243 1    
   244  124  125 1    
   245  124  244 1    
   246  124  245 1    
   247  125  126 1    
   248  126  246 1    
   249  126  247 1    
@<TRIPOS>SUBSTRUCTURE
     1 UNK         1 GROUP             0       ****    0 ROOT    
