@<TRIPOS>MOLECULE
3R540
247   249    1
SMALL
USER_CHARGES


@<TRIPOS>ATOM
      1 CA         -6.6675  -16.0986  -48.1221 C.3       0 UNK        -0.1800 
      2 C          -5.5118  -15.1084  -48.0781 C.2       0 UNK         0.5000 
      3 O          -5.6528  -13.9776  -48.5450 O.2       0 UNK        -0.5000 
      4 N          -4.3693  -15.5349  -47.5291 N.am      1 UNK        -0.5000 
      5 CA         -3.1550  -14.7287  -47.3656 C.3       1 UNK         0.1400 
      6 C6         -1.9194  -15.6062  -47.0343 C.3       23 UNK        -0.0398 
      7 S7         -1.6392  -16.9218  -48.2591 S.3       23 UNK        -0.2404 
      8 C8         -0.1715  -16.3198  -49.1462 C.3       23 UNK        -0.0205 
      9 C9          0.2208  -17.3311  -50.2073 C.ar      23 UNK        -0.0193 
     10 C10        -0.1782  -17.1627  -51.5356 C.ar      23 UNK        -0.1150 
     11 C11         0.0978  -18.1486  -52.4877 C.ar      23 UNK        -0.0193 
     12 C12         0.7697  -19.3127  -52.0981 C.ar      23 UNK        -0.1150 
     13 C13         1.1722  -19.4896  -50.7700 C.ar      23 UNK        -0.0193 
     14 C14         0.9252  -18.4784  -49.8395 C.ar      23 UNK        -0.1150 
     15 C15         1.8441  -20.7816  -50.3301 C.3       23 UNK        -0.0205 
     16 S16         0.6428  -21.9599  -49.6253 S.3       23 UNK        -0.2404 
     17 C17         0.4570  -21.3321  -47.9223 C.3       23 UNK        -0.0398 
     18 CA         -0.4668  -22.2066  -47.0367 C.3       11 UNK         0.1400 
     19 N          -0.0532  -22.1856  -45.6287 N.am      11 UNK        -0.5000 
     20 C          -0.5872  -22.9450  -44.6604 C.2       10 UNK         0.5000 
     21 O          -1.4796  -23.7702  -44.8512 O.2       10 UNK        -0.5000 
     22 CA         -0.0698  -22.7188  -43.2296 C.3       10 UNK         0.1400 
     23 CB          1.2712  -23.4364  -43.0167 C.3       10 UNK        -0.1800 
     24 N           0.0627  -21.3011  -42.8911 N.am      10 UNK        -0.5000 
     25 C          -0.9618  -20.4383  -42.8221 C.2       9 UNK         0.5000 
     26 O          -2.1354  -20.7567  -43.0082 O.2       9 UNK        -0.5000 
     27 CA         -0.6174  -18.9614  -42.5535 C.3       9 UNK         0.1400 
     28 CB         -0.3249  -18.7219  -41.0652 C.3       9 UNK        -0.1800 
     29 N           0.5108  -18.4919  -43.3560 N.am      9 UNK        -0.5000 
     30 C           0.5281  -18.4643  -44.6967 C.2       8 UNK         0.5000 
     31 O          -0.4218  -18.7953  -45.4066 O.2       8 UNK        -0.5000 
     32 CA          1.8553  -18.0491  -45.3506 C.3       8 UNK         0.1400 
     33 CB          2.0263  -16.5224  -45.3261 C.3       8 UNK        -0.1800 
     34 N           3.0061  -18.6865  -44.7081 N.am      8 UNK        -0.5000 
     35 C           3.2504  -20.0049  -44.7317 C.2       7 UNK         0.5000 
     36 O           2.5368  -20.8239  -45.3084 O.2       7 UNK        -0.5000 
     37 CA          4.4727  -20.4952  -43.9372 C.3       7 UNK         0.1400 
     38 CB          5.7724  -20.2209  -44.7087 C.3       7 UNK        -0.1800 
     39 N           4.5547  -19.8887  -42.6089 N.am      7 UNK        -0.5000 
     40 C           3.6579  -20.0804  -41.6311 C.2       6 UNK         0.5000 
     41 O           2.6689  -20.8032  -41.7387 O.2       6 UNK        -0.5000 
     42 CA          3.8821  -19.2974  -40.3265 C.3       6 UNK         0.1400 
     43 CB          4.8212  -20.0686  -39.3873 C.3       6 UNK        -0.1800 
     44 N           4.4109  -17.9491  -40.5466 N.am      6 UNK        -0.5000 
     45 C           3.7616  -16.9803  -41.2029 C.2       5 UNK         0.5000 
     46 O           2.6607  -17.1284  -41.7448 O.2       5 UNK        -0.5000 
     47 CA          4.4607  -15.6202  -41.2818 C.3       5 UNK         0.1400 
     48 CB          5.1940  -15.4559  -42.6245 C.3       5 UNK        -0.1800 
     49 N           3.4254  -14.6101  -41.1408 N.am      5 UNK        -0.5000 
     50 C           3.5827  -13.3343  -40.7748 C.2       4 UNK         0.5000 
     51 O           4.6785  -12.8290  -40.5257 O.2       4 UNK        -0.5000 
     52 CA          2.2917  -12.4946  -40.6318 C.3       4 UNK         0.1400 
     53 CB          2.4851  -11.0271  -41.0685 C.3       4 UNK        -0.1800 
     54 N           1.1194  -13.0980  -41.2856 N.am      4 UNK        -0.5000 
     55 C           0.9337  -13.2951  -42.5997 C.2       3 UNK         0.5000 
     56 O           1.7281  -12.9351  -43.4697 O.2       3 UNK        -0.5000 
     57 CA         -0.3275  -14.0693  -43.0294 C.3       3 UNK         0.1400 
     58 CB         -1.2623  -14.4952  -41.8746 C.3       3 UNK        -0.1800 
     59 N          -1.0591  -13.3463  -44.0686 N.am      3 UNK        -0.5000 
     60 C          -1.6773  -12.1589  -43.9708 C.2       2 UNK         0.5000 
     61 O          -1.7403  -11.4971  -42.9341 O.2       2 UNK        -0.5000 
     62 CA         -2.3422  -11.6148  -45.2562 C.3       2 UNK         0.1400 
     63 CB         -1.5424  -10.4259  -45.8123 C.3       2 UNK        -0.1800 
     64 N          -2.4816  -12.6246  -46.3127 N.am      2 UNK        -0.5000 
     65 C          -3.3328  -13.6588  -46.2677 C.2       1 UNK         0.5000 
     66 O          -4.1638  -13.8178  -45.3697 O.2       1 UNK        -0.5000 
     67 C          -1.9512  -21.8144  -47.2055 C.2       11 UNK         0.5000 
     68 O          -2.6730  -22.4645  -47.9647 O.2       11 UNK        -0.5000 
     69 N          -2.3873  -20.7856  -46.4635 N.am      12 UNK        -0.5000 
     70 CA         -3.7795  -20.3484  -46.3922 C.3       12 UNK         0.1400 
     71 CB         -3.8636  -19.0006  -45.6599 C.3       12 UNK        -0.1800 
     72 C          -4.6902  -21.3954  -45.7267 C.2       12 UNK         0.5000 
     73 O          -5.7277  -21.7373  -46.2940 O.2       12 UNK        -0.5000 
     74 N          -4.2790  -21.9030  -44.5552 N.am      13 UNK        -0.5000 
     75 CA         -5.0219  -22.8833  -43.7567 C.3       13 UNK         0.1400 
     76 CB         -4.3176  -23.0872  -42.4071 C.3       13 UNK        -0.1800 
     77 C          -5.2255  -24.2344  -44.4659 C.2       13 UNK         0.5000 
     78 O          -6.2987  -24.8268  -44.3479 O.2       13 UNK        -0.5000 
     79 N          -4.2069  -24.6832  -45.2104 N.am      14 UNK        -0.5000 
     80 CA         -4.2442  -25.8975  -46.0273 C.3       14 UNK         0.1400 
     81 CB         -2.7995  -26.3159  -46.3472 C.3       14 UNK        -0.1800 
     82 C          -5.0469  -25.7369  -47.3345 C.2       14 UNK         0.5000 
     83 O          -5.3006  -26.7391  -48.0032 O.2       14 UNK        -0.5000 
     84 N          -5.3825  -24.4890  -47.7004 N.am      15 UNK        -0.5000 
     85 CA         -5.9742  -24.0505  -48.9718 C.3       15 UNK         0.1400 
     86 CB         -7.3659  -24.6741  -49.1989 C.3       15 UNK        -0.1800 
     87 C          -5.0337  -24.2400  -50.1820 C.2       15 UNK         0.5000 
     88 O          -5.4725  -24.1361  -51.3287 O.2       15 UNK        -0.5000 
     89 N          -3.7406  -24.4601  -49.9112 N.am      16 UNK        -0.5000 
     90 CA         -2.6744  -24.5623  -50.9023 C.3       16 UNK         0.1400 
     91 CB         -1.3996  -25.0803  -50.2221 C.3       16 UNK        -0.1800 
     92 C          -2.4243  -23.2215  -51.6107 C.2       16 UNK         0.5000 
     93 O          -2.1212  -23.2170  -52.8018 O.2       16 UNK        -0.5000 
     94 N          -2.6212  -22.1104  -50.8870 N.am      17 UNK        -0.5000 
     95 CA         -2.5521  -20.7513  -51.4200 C.3       17 UNK         0.1400 
     96 CB         -2.6490  -19.7425  -50.2688 C.3       17 UNK        -0.1800 
     97 C          -3.6384  -20.4716  -52.4711 C.2       17 UNK         0.5000 
     98 O          -3.3559  -19.8291  -53.4813 O.2       17 UNK        -0.5000 
     99 N          -4.8503  -20.9929  -52.2338 N.am      18 UNK        -0.5000 
    100 CA        -5.9785  -20.9055  -53.1602 C.3       18 UNK         0.1400 
    101 CB        -7.2775  -21.2718  -52.4261 C.3       18 UNK        -0.1800 
    102 C         -5.7771  -21.7902  -54.4033 C.2       18 UNK         0.5000 
    103 O         -6.1459  -21.3781  -55.5031 O.2       18 UNK        -0.5000 
    104 N         -5.1756  -22.9732  -54.2104 N.am      19 UNK        -0.5000 
    105 CA        -4.8110  -23.9010  -55.2815 C.3       19 UNK         0.1400 
    106 CB        -4.4289  -25.2605  -54.6764 C.3       19 UNK        -0.1800 
    107 C         -3.6798  -23.3546  -56.1739 C.2       19 UNK         0.5000 
    108 O         -3.7707  -23.4570  -57.3980 O.2       19 UNK        -0.5000 
    109 N         -2.6464  -22.7721  -55.5489 N.am      20 UNK        -0.5000 
    110 CA        -1.5215  -22.1202  -56.2212 C.3       20 UNK         0.1400 
    111 CB        -0.4043  -21.8512  -55.2006 C.3       20 UNK        -0.1800 
    112 C         -1.9274  -20.8173  -56.9328 C.2       20 UNK         0.5000 
    113 O         -1.4128  -20.5336  -58.0153 O.2       20 UNK        -0.5000 
    114 N         -2.8352  -20.0537  -56.3080 N.am      21 UNK        -0.5000 
    115 CA        -3.4566  -18.7944  -56.7360 C.3       21 UNK         0.1400 
    116 CB        -4.2302  -18.9711  -58.0558 C.3       21 UNK        -0.1800 
    117 C         -2.5016  -17.5860  -56.8038 C.2       21 UNK         0.5000 
    118 O         -2.8918  -16.4941  -56.3894 O.2       21 UNK        -0.5000 
    119 N         -1.2787  -17.7961  -57.3059 N.am      22 UNK        -0.5000 
    120 CA        -0.1977  -16.8039  -57.4542 C.3       22 UNK         0.1400 
    121 C         -0.4905  -15.6712  -58.4884 C.2       22 UNK         0.5000 
    122 N         -1.4491  -15.8326  -59.3927 N.am      22 UNK        -0.7600 
    123 O          0.1796  -14.6418  -58.4999 O.2       22 UNK        -0.5000 
    124 C124        0.3140  -16.2551  -56.0910 C.3       23 UNK        -0.0398 
    125 S125        1.0286  -17.5517  -55.0201 S.3       23 UNK        -0.2404 
    126 C126       -0.3643  -17.9692  -53.9252 C.3       23 UNK        -0.0205 
    127 H127       -7.5196  -15.7053  -47.5676 H         1 UNK         0.0600 
    128 H128       -6.9782  -16.2675  -49.1532 H         1 UNK         0.0600 
    129 H129       -6.3942  -17.0610  -47.6879 H         1 UNK         0.0600 
    130 H130       -4.3168  -16.4725  -47.1613 H         1 UNK         0.3000 
    131 H131       -2.9669  -14.2138  -48.3105 H         1 UNK         0.0600 
    132 H132       -2.0354  -16.0849  -46.0598 H         1 UNK         0.0800 
    133 H133       -1.0167  -14.9974  -46.9658 H         1 UNK         0.0800 
    134 H134        0.6529  -16.1750  -48.4463 H         1 UNK         0.0800 
    135 H135       -0.3837  -15.3489  -49.5963 H         1 UNK         0.0800 
    136 H136       -0.7272  -16.2766  -51.8215 H         1 UNK         0.1150 
    137 H137        0.9613  -20.0881  -52.8264 H         1 UNK         0.1150 
    138 H138        1.2352  -18.6020  -48.8127 H         1 UNK         0.1150 
    139 H139        2.3335  -21.2525  -51.1838 H         1 UNK         0.0800 
    140 H140        2.6327  -20.5724  -49.6057 H         1 UNK         0.0800 
    141 H141        1.4636  -21.3124  -47.5088 H         1 UNK         0.0800 
    142 H142        0.1161  -20.2971  -47.9315 H         1 UNK         0.0800 
    143 H143       -0.3695  -23.2455  -47.3581 H         1 UNK         0.0600 
    144 H144        0.7075  -21.5562  -45.3894 H         1 UNK         0.3000 
    145 H145       -0.7970  -23.1565  -42.5429 H         1 UNK         0.0600 
    146 H146        2.0604  -23.0095  -43.6362 H         1 UNK         0.0600 
    147 H147        1.5909  -23.3710  -41.9766 H         1 UNK         0.0600 
    148 H148        1.1926  -24.4953  -43.2661 H         1 UNK         0.0600 
    149 H149        1.0008  -20.9735  -42.6777 H         1 UNK         0.3000 
    150 H150       -1.4886  -18.3631  -42.8284 H         1 UNK         0.0600 
    151 H151       -0.1401  -17.6665  -40.8646 H         1 UNK         0.0600 
    152 H152        0.5482  -19.2823  -40.7308 H         1 UNK         0.0600 
    153 H153       -1.1696  -19.0289  -40.4474 H         1 UNK         0.0600 
    154 H154        1.3351  -18.1866  -42.8483 H         1 UNK         0.3000 
    155 H155        1.8262  -18.3720  -46.3932 H         1 UNK         0.0600 
    156 H156        1.1756  -16.0266  -45.7952 H         1 UNK         0.0600 
    157 H157        2.9196  -16.2181  -45.8716 H         1 UNK         0.0600 
    158 H158        2.1105  -16.1398  -44.3084 H         1 UNK         0.0600 
    159 H159        3.6166  -18.0904  -44.1701 H         1 UNK         0.3000 
    160 H160        4.3740  -21.5753  -43.8091 H         1 UNK         0.0600 
    161 H161        5.9489  -19.1526  -44.8394 H         1 UNK         0.0600 
    162 H162        5.7389  -20.6722  -45.7013 H         1 UNK         0.0600 
    163 H163        6.6340  -20.6424  -44.1907 H         1 UNK         0.0600 
    164 H164        5.3354  -19.2744  -42.4317 H         1 UNK         0.3000 
    165 H165        2.9134  -19.1987  -39.8322 H         1 UNK         0.0600 
    166 H166        5.8204  -20.1738  -39.8120 H         1 UNK         0.0600 
    167 H167        4.9161  -19.5663  -38.4245 H         1 UNK         0.0600 
    168 H168        4.4400  -21.0720  -39.1923 H         1 UNK         0.0600 
    169 H169        5.3114  -17.7472  -40.1362 H         1 UNK         0.3000 
    170 H170        5.1703  -15.5283  -40.4569 H         1 UNK         0.0600 
    171 H171        5.9485  -16.2321  -42.7566 H         1 UNK         0.0600 
    172 H172        4.5055  -15.5162  -43.4683 H         1 UNK         0.0600 
    173 H173        5.7048  -14.4947  -42.6808 H         1 UNK         0.0600 
    174 H174        2.4911  -14.9619  -41.3027 H         1 UNK         0.3000 
    175 H175        2.0637  -12.4863  -39.5651 H         1 UNK         0.0600 
    176 H176        1.5594  -10.4604  -40.9683 H         1 UNK         0.0600 
    177 H177        3.2357  -10.5320  -40.4515 H         1 UNK         0.0600 
    178 H178        2.8159  -10.9500  -42.1043 H         1 UNK         0.0600 
    179 H179        0.3986  -13.4261  -40.6578 H         1 UNK         0.3000 
    180 H180        0.0332  -14.9858  -43.4981 H         1 UNK         0.0600 
    181 H181       -2.1171  -15.0542  -42.2560 H         1 UNK         0.0600 
    182 H182       -0.7469  -15.1487  -41.1698 H         1 UNK         0.0600 
    183 H183       -1.6504  -13.6415  -41.3182 H         1 UNK         0.0600 
    184 H184       -1.0258  -13.7623  -44.9851 H         1 UNK         0.3000 
    185 H185       -3.3384  -11.2600  -44.9837 H         1 UNK         0.0600 
    186 H186       -2.0328   -9.9929  -46.6843 H         1 UNK         0.0600 
    187 H187       -1.4499   -9.6341  -45.0677 H         1 UNK         0.0600 
    188 H188       -0.5335  -10.7206  -46.1039 H         1 UNK         0.0600 
    189 H189       -1.8406  -12.5441  -47.0894 H         1 UNK         0.3000 
    190 H190       -1.7200  -20.2700  -45.8976 H         1 UNK         0.3000 
    191 H191       -4.1366  -20.1984  -47.4125 H         1 UNK         0.0600 
    192 H192       -4.8906  -18.6350  -45.6287 H         1 UNK         0.0600 
    193 H193       -3.2621  -18.2458  -46.1623 H         1 UNK         0.0600 
    194 H194       -3.5081  -19.0734  -44.6320 H         1 UNK         0.0600 
    195 H195       -3.4197  -21.5478  -44.1419 H         1 UNK         0.3000 
    196 H196       -6.0111  -22.4643  -43.5617 H         1 UNK         0.0600 
    197 H197       -4.8564  -23.8053  -41.7876 H         1 UNK         0.0600 
    198 H198       -4.2612  -22.1538  -41.8470 H         1 UNK         0.0600 
    199 H199       -3.3019  -23.4615  -42.5381 H         1 UNK         0.0600 
    200 H200       -3.3288  -24.1696  -45.2015 H         1 UNK         0.3000 
    201 H201       -4.7128  -26.6959  -45.4484 H         1 UNK         0.0600 
    202 H202       -2.2294  -26.4921  -45.4349 H         1 UNK         0.0600 
    203 H203       -2.2784  -25.5503  -46.9240 H         1 UNK         0.0600 
    204 H204       -2.7747  -27.2389  -46.9278 H         1 UNK         0.0600 
    205 H205       -5.1445  -23.7365  -47.0652 H         1 UNK         0.3000 
    206 H206       -6.1135  -22.9731  -48.8734 H         1 UNK         0.0600 
    207 H207       -8.0081  -24.5317  -48.3298 H         1 UNK         0.0600 
    208 H208       -7.8657  -24.2104  -50.0502 H         1 UNK         0.0600 
    209 H209       -7.3059  -25.7433  -49.4028 H         1 UNK         0.0600 
    210 H210       -3.4542  -24.4312  -48.9426 H         1 UNK         0.3000 
    211 H211       -2.9794  -25.2885  -51.6581 H         1 UNK         0.0600 
    212 H212       -0.5728  -25.1376  -50.9312 H         1 UNK         0.0600 
    213 H213       -1.5504  -26.0798  -49.8140 H         1 UNK         0.0600 
    214 H214       -1.0882  -24.4304  -49.4048 H         1 UNK         0.0600 
    215 H215       -2.8159  -22.2111  -49.8953 H         1 UNK         0.3000 
    216 H216       -1.5837  -20.6352  -51.9060 H         1 UNK         0.0600 
    217 H217       -2.6052  -18.7195  -50.6441 H         1 UNK         0.0600 
    218 H218       -1.8228  -19.8622  -49.5690 H         1 UNK         0.0600 
    219 H219       -3.5809  -19.8490  -49.7140 H         1 UNK         0.0600 
    220 H220       -4.9861  -21.5439  -51.4000 H         1 UNK         0.3000 
    221 H221       -6.0622  -19.8703  -53.4985 H         1 UNK         0.0600 
    222 H222       -7.2655  -22.3005  -52.0657 H         1 UNK         0.0600 
    223 H223       -7.4451  -20.6180  -51.5701 H         1 UNK         0.0600 
    224 H224       -8.1388  -21.1682  -53.0872 H         1 UNK         0.0600 
    225 H225       -4.9538  -23.2562  -53.2636 H         1 UNK         0.3000 
    226 H226       -5.6911  -24.0487  -55.9110 H         1 UNK         0.0600 
    227 H227       -4.2212  -25.9897  -55.4603 H         1 UNK         0.0600 
    228 H228       -3.5385  -25.1899  -54.0521 H         1 UNK         0.0600 
    229 H229       -5.2365  -25.6611  -54.0633 H         1 UNK         0.0600 
    230 H230       -2.6094  -22.8000  -54.5322 H         1 UNK         0.3000 
    231 H231       -1.1333  -22.8041  -56.9787 H         1 UNK         0.0600 
    232 H232        0.4306  -21.3185  -55.6579 H         1 UNK         0.0600 
    233 H233       -0.0131  -22.7835  -54.7932 H         1 UNK         0.0600 
    234 H234       -0.7619  -21.2506  -54.3642 H         1 UNK         0.0600 
    235 H235       -3.1116  -20.3393  -55.3737 H         1 UNK         0.3000 
    236 H236       -4.1895  -18.5636  -55.9611 H         1 UNK         0.0600 
    237 H237       -3.5683  -19.1956  -58.8924 H         1 UNK         0.0600 
    238 H238       -4.9579  -19.7793  -57.9773 H         1 UNK         0.0600 
    239 H239       -4.7786  -18.0630  -58.3090 H         1 UNK         0.0600 
    240 H240       -1.0766  -18.7322  -57.6465 H         1 UNK         0.3000 
    241 H241        0.6298  -17.3553  -57.9017 H         1 UNK         0.0600 
    242 H242       -1.6260  -15.1027  -60.0652 H         1 UNK         0.3800 
    243 H243       -1.9989  -16.6764  -59.4108 H         1 UNK         0.3800 
    244 H244       -0.4706  -15.7108  -55.5650 H         1 UNK         0.0800 
    245 H245        1.1116  -15.5288  -56.2535 H         1 UNK         0.0800 
    246 H246       -1.1367  -17.2010  -53.9743 H         1 UNK         0.0800 
    247 H247       -0.8344  -18.8860  -54.2801 H         1 UNK         0.0800 
@<TRIPOS>BOND
     1    1    2 1    
     2    1  127 1    
     3    1  128 1    
     4    1  129 1    
     5    2    3 2    
     6    2    4 am   BACKBONE|DICT|INTERRES
     7    4    5 1    
     8    4  130 1    
     9    5    6 1    
    10    5   65 1    
    11    5  131 1    
    12    6    7 1    
    13    6  132 1    
    14    6  133 1    
    15    7    8 1    
    16    8    9 1    
    17    8  134 1    
    18    8  135 1    
    19    9   10 ar   
    20    9   14 ar   
    21   10   11 ar   
    22   10  136 1    
    23   11   12 ar   
    24   11  126 1    
    25   12   13 ar   
    26   12  137 1    
    27   13   14 ar   
    28   13   15 1    
    29   14  138 1    
    30   15   16 1    
    31   15  139 1    
    32   15  140 1    
    33   16   17 1    
    34   17   18 1    
    35   17  141 1    
    36   17  142 1    
    37   18   19 1    
    38   18   67 1    
    39   18  143 1    
    40   19   20 am   BACKBONE|DICT|INTERRES
    41   19  144 1    
    42   20   21 2    
    43   20   22 1    
    44   22   23 1    
    45   22   24 1    
    46   22  145 1    
    47   23  146 1    
    48   23  147 1    
    49   23  148 1    
    50   24   25 am   BACKBONE|DICT|INTERRES
    51   24  149 1    
    52   25   26 2    
    53   25   27 1    
    54   27   28 1    
    55   27   29 1    
    56   27  150 1    
    57   28  151 1    
    58   28  152 1    
    59   28  153 1    
    60   29   30 am   BACKBONE|DICT|INTERRES
    61   29  154 1    
    62   30   31 2    
    63   30   32 1    
    64   32   33 1    
    65   32   34 1    
    66   32  155 1    
    67   33  156 1    
    68   33  157 1    
    69   33  158 1    
    70   34   35 am   BACKBONE|DICT|INTERRES
    71   34  159 1    
    72   35   36 2    
    73   35   37 1    
    74   37   38 1    
    75   37   39 1    
    76   37  160 1    
    77   38  161 1    
    78   38  162 1    
    79   38  163 1    
    80   39   40 am   BACKBONE|DICT|INTERRES
    81   39  164 1    
    82   40   41 2    
    83   40   42 1    
    84   42   43 1    
    85   42   44 1    
    86   42  165 1    
    87   43  166 1    
    88   43  167 1    
    89   43  168 1    
    90   44   45 am   BACKBONE|DICT|INTERRES
    91   44  169 1    
    92   45   46 2    
    93   45   47 1    
    94   47   48 1    
    95   47   49 1    
    96   47  170 1    
    97   48  171 1    
    98   48  172 1    
    99   48  173 1    
   100   49   50 am   BACKBONE|DICT|INTERRES
   101   49  174 1    
   102   50   51 2    
   103   50   52 1    
   104   52   53 1    
   105   52   54 1    
   106   52  175 1    
   107   53  176 1    
   108   53  177 1    
   109   53  178 1    
   110   54   55 am   BACKBONE|DICT|INTERRES
   111   54  179 1    
   112   55   56 2    
   113   55   57 1    
   114   57   58 1    
   115   57   59 1    
   116   57  180 1    
   117   58  181 1    
   118   58  182 1    
   119   58  183 1    
   120   59   60 am   BACKBONE|DICT|INTERRES
   121   59  184 1    
   122   60   61 2    
   123   60   62 1    
   124   62   63 1    
   125   62   64 1    
   126   62  185 1    
   127   63  186 1    
   128   63  187 1    
   129   63  188 1    
   130   64   65 am   BACKBONE|DICT|INTERRES
   131   64  189 1    
   132   65   66 2    
   133   67   68 2    
   134   67   69 am   BACKBONE|DICT|INTERRES
   135   69   70 1    
   136   69  190 1    
   137   70   71 1    
   138   70   72 1    
   139   70  191 1    
   140   71  192 1    
   141   71  193 1    
   142   71  194 1    
   143   72   73 2    
   144   72   74 am   BACKBONE|DICT|INTERRES
   145   74   75 1    
   146   74  195 1    
   147   75   76 1    
   148   75   77 1    
   149   75  196 1    
   150   76  197 1    
   151   76  198 1    
   152   76  199 1    
   153   77   78 2    
   154   77   79 am   BACKBONE|DICT|INTERRES
   155   79   80 1    
   156   79  200 1    
   157   80   81 1    
   158   80   82 1    
   159   80  201 1    
   160   81  202 1    
   161   81  203 1    
   162   81  204 1    
   163   82   83 2    
   164   82   84 am   BACKBONE|DICT|INTERRES
   165   84   85 1    
   166   84  205 1    
   167   85   86 1    
   168   85   87 1    
   169   85  206 1    
   170   86  207 1    
   171   86  208 1    
   172   86  209 1    
   173   87   88 2    
   174   87   89 am   BACKBONE|DICT|INTERRES
   175   89   90 1    
   176   89  210 1    
   177   90   91 1    
   178   90   92 1    
   179   90  211 1    
   180   91  212 1    
   181   91  213 1    
   182   91  214 1    
   183   92   93 2    
   184   92   94 am   BACKBONE|DICT|INTERRES
   185   94   95 1    
   186   94  215 1    
   187   95   96 1    
   188   95   97 1    
   189   95  216 1    
   190   96  217 1    
   191   96  218 1    
   192   96  219 1    
   193   97   98 2    
   194   97   99 am   BACKBONE|DICT|INTERRES
   195   99  100 1    
   196   99  220 1    
   197  100  101 1    
   198  100  102 1    
   199  100  221 1    
   200  101  222 1    
   201  101  223 1    
   202  101  224 1    
   203  102  103 2    
   204  102  104 am   BACKBONE|DICT|INTERRES
   205  104  105 1    
   206  104  225 1    
   207  105  106 1    
   208  105  107 1    
   209  105  226 1    
   210  106  227 1    
   211  106  228 1    
   212  106  229 1    
   213  107  108 2    
   214  107  109 am   BACKBONE|DICT|INTERRES
   215  109  110 1    
   216  109  230 1    
   217  110  111 1    
   218  110  112 1    
   219  110  231 1    
   220  111  232 1    
   221  111  233 1    
   222  111  234 1    
   223  112  113 2    
   224  112  114 am   BACKBONE|DICT|INTERRES
   225  114  115 1    
   226  114  235 1    
   227  115  116 1    
   228  115  117 1    
   229  115  236 1    
   230  116  237 1    
   231  116  238 1    
   232  116  239 1    
   233  117  118 2    
   234  117  119 am   BACKBONE|DICT|INTERRES
   235  119  120 1    
   236  119  240 1    
   237  120  121 1    
   238  120  124 1    
   239  120  241 1    
   240  121  122 am   BACKBONE|DICT|INTERRES
   241  121  123 2    
   242  122  242 1    
   243  122  243 1    
   244  124  125 1    
   245  124  244 1    
   246  124  245 1    
   247  125  126 1    
   248  126  246 1    
   249  126  247 1    
@<TRIPOS>SUBSTRUCTURE
     1 UNK         1 GROUP             0       ****    0 ROOT    
