@<TRIPOS>MOLECULE
3R540
247   249    1
SMALL
USER_CHARGES


@<TRIPOS>ATOM
      1 CA         -5.8003  -19.4533  -47.9959 C.3       0 UNK        -0.1800 
      2 C          -5.2765  -18.1151  -47.4945 C.2       0 UNK         0.5000 
      3 O          -6.0601  -17.3093  -46.9926 O.2       0 UNK        -0.5000 
      4 N          -3.9599  -17.8804  -47.5895 N.am      1 UNK        -0.5000 
      5 CA         -3.2501  -16.6822  -47.1011 C.3       1 UNK         0.1400 
      6 C6         -1.8689  -16.5106  -47.7930 C.3       23 UNK        -0.0398 
      7 S7         -2.0257  -15.8643  -49.4892 S.3       23 UNK        -0.2404 
      8 C8         -0.2791  -15.7801  -50.0000 C.3       23 UNK        -0.0205 
      9 C9          0.1458  -17.0269  -50.7613 C.ar      23 UNK        -0.0193 
     10 C10         0.0353  -17.0653  -52.1530 C.ar      23 UNK        -0.1150 
     11 C11         0.4072  -18.2084  -52.8644 C.ar      23 UNK        -0.0193 
     12 C12         0.9011  -19.3161  -52.1721 C.ar      23 UNK        -0.1150 
     13 C13         1.0398  -19.2914  -50.7808 C.ar      23 UNK        -0.0193 
     14 C14         0.6583  -18.1353  -50.0822 C.ar      23 UNK        -0.1150 
     15 C15         1.6262  -20.5310  -50.1004 C.3       23 UNK        -0.0205 
     16 S16         1.6235  -20.5222  -48.2764 S.3       23 UNK        -0.2404 
     17 C17        -0.1549  -20.6950  -47.9120 C.3       23 UNK        -0.0398 
     18 CA         -0.4397  -21.8806  -46.9650 C.3       11 UNK         0.1400 
     19 N           0.2396  -21.7225  -45.6751 N.am      11 UNK        -0.5000 
     20 C           0.2361  -22.6073  -44.6689 C.2       10 UNK         0.5000 
     21 O          -0.2829  -23.7202  -44.7485 O.2       10 UNK        -0.5000 
     22 CA          0.8439  -22.1522  -43.3255 C.3       10 UNK         0.1400 
     23 CB          2.2480  -22.7427  -43.1344 C.3       10 UNK        -0.1800 
     24 N           0.8991  -20.6958  -43.1571 N.am      10 UNK        -0.5000 
     25 C          -0.1621  -19.8741  -43.1688 C.2       9 UNK         0.5000 
     26 O          -1.3223  -20.2590  -43.3129 O.2       9 UNK        -0.5000 
     27 CA          0.1286  -18.3699  -43.0598 C.3       9 UNK         0.1400 
     28 CB          0.2101  -17.9420  -41.5886 C.3       9 UNK        -0.1800 
     29 N           1.3537  -18.0016  -43.7756 N.am      9 UNK        -0.5000 
     30 C           1.4393  -17.9409  -45.1139 C.2       8 UNK         0.5000 
     31 O           0.4754  -18.0929  -45.8603 O.2       8 UNK        -0.5000 
     32 CA          2.8298  -17.7101  -45.7328 C.3       8 UNK         0.1400 
     33 CB          3.0793  -16.2213  -46.0088 C.3       8 UNK        -0.1800 
     34 N           3.9064  -18.2460  -44.9006 N.am      8 UNK        -0.5000 
     35 C           4.2056  -19.5511  -44.8269 C.2       7 UNK         0.5000 
     36 O           3.6360  -20.4183  -45.4864 O.2       7 UNK        -0.5000 
     37 CA          5.3020  -19.9731  -43.8305 C.3       7 UNK         0.1400 
     38 CB          6.6660  -20.0500  -44.5325 C.3       7 UNK        -0.1800 
     39 N           5.4134  -19.0972  -42.6632 N.am      7 UNK        -0.5000 
     40 C           4.4484  -18.8899  -41.7577 C.2       6 UNK         0.5000 
     41 O           3.3357  -19.4164  -41.8237 O.2       6 UNK        -0.5000 
     42 CA          4.7619  -17.9218  -40.5953 C.3       6 UNK         0.1400 
     43 CB          6.1819  -17.3129  -40.6456 C.3       6 UNK        -0.1800 
     44 N           3.7690  -16.8494  -40.4668 N.am      6 UNK        -0.5000 
     45 C           3.3828  -15.9860  -41.4163 C.2       5 UNK         0.5000 
     46 O           3.7723  -16.0197  -42.5868 O.2       5 UNK        -0.5000 
     47 CA          2.4119  -14.8855  -40.9654 C.3       5 UNK         0.1400 
     48 CB          3.1677  -13.7458  -40.2623 C.3       5 UNK        -0.1800 
     49 N           1.7038  -14.3444  -42.1234 N.am      5 UNK        -0.5000 
     50 C           0.4029  -14.0331  -42.1538 C.2       4 UNK         0.5000 
     51 O          -0.3381  -14.1597  -41.1759 O.2       4 UNK        -0.5000 
     52 CA         -0.1520  -13.4816  -43.4879 C.3       4 UNK         0.1400 
     53 CB          0.4505  -14.1789  -44.7201 C.3       4 UNK        -0.1800 
     54 N          -1.6094  -13.5937  -43.5570 N.am      4 UNK        -0.5000 
     55 C          -2.4731  -12.7248  -43.0109 C.2       3 UNK         0.5000 
     56 O          -2.1255  -11.6825  -42.4526 O.2       3 UNK        -0.5000 
     57 CA         -3.9798  -13.0461  -43.1151 C.3       3 UNK         0.1400 
     58 CB         -4.6640  -12.0989  -44.1140 C.3       3 UNK        -0.1800 
     59 N          -4.2636  -14.4246  -43.5155 N.am      3 UNK        -0.5000 
     60 C          -4.1326  -15.5042  -42.7326 C.2       2 UNK         0.5000 
     61 O          -3.8201  -15.4518  -41.5433 O.2       2 UNK        -0.5000 
     62 CA         -4.3890  -16.8763  -43.3907 C.3       2 UNK         0.1400 
     63 CB         -5.7869  -17.3914  -43.0137 C.3       2 UNK        -0.1800 
     64 N          -4.2663  -16.8764  -44.8531 N.am      2 UNK        -0.5000 
     65 C          -3.1534  -16.6161  -45.5517 C.2       1 UNK         0.5000 
     66 O          -2.1020  -16.2875  -45.0040 O.2       1 UNK        -0.5000 
     67 C          -1.9628  -22.0900  -46.8166 C.2       11 UNK         0.5000 
     68 O          -2.5525  -22.7990  -47.6318 O.2       11 UNK        -0.5000 
     69 N          -2.5707  -21.5131  -45.7667 N.am      12 UNK        -0.5000 
     70 CA         -3.9826  -21.7050  -45.4384 C.3       12 UNK         0.1400 
     71 CB         -4.4137  -20.6876  -44.3752 C.3       12 UNK        -0.1800 
     72 C          -4.2922  -23.1425  -44.9834 C.2       12 UNK         0.5000 
     73 O          -5.3294  -23.6873  -45.3610 O.2       12 UNK        -0.5000 
     74 N          -3.3740  -23.7392  -44.2110 N.am      13 UNK        -0.5000 
     75 CA         -3.4519  -25.1301  -43.7649 C.3       13 UNK         0.1400 
     76 CB         -2.5215  -25.3360  -42.5596 C.3       13 UNK        -0.1800 
     77 C          -3.1117  -26.1151  -44.8972 C.2       13 UNK         0.5000 
     78 O          -3.7550  -27.1597  -45.0100 O.2       13 UNK        -0.5000 
     79 N          -2.1298  -25.7552  -45.7349 N.am      14 UNK        -0.5000 
     80 CA         -1.6700  -26.5140  -46.8988 C.3       14 UNK         0.1400 
     81 CB         -0.2449  -26.0587  -47.2570 C.3       14 UNK        -0.1800 
     82 C          -2.6455  -26.4116  -48.0921 C.2       14 UNK         0.5000 
     83 O          -2.2820  -25.9031  -49.1537 O.2       14 UNK        -0.5000 
     84 N          -3.8713  -26.9112  -47.8849 N.am      15 UNK        -0.5000 
     85 CA         -4.9682  -27.0324  -48.8521 C.3       15 UNK         0.1400 
     86 CB         -4.5909  -28.0118  -49.9841 C.3       15 UNK        -0.1800 
     87 C          -5.5032  -25.6827  -49.3791 C.2       15 UNK         0.5000 
     88 O          -6.0082  -25.6251  -50.5018 O.2       15 UNK        -0.5000 
     89 N          -5.4164  -24.6355  -48.5448 N.am      16 UNK        -0.5000 
     90 CA         -5.9081  -23.2742  -48.7803 C.3       16 UNK         0.1400 
     91 CB         -7.4504  -23.2442  -48.7677 C.3       16 UNK        -0.1800 
     92 C          -5.2965  -22.6111  -50.0315 C.2       16 UNK         0.5000 
     93 O          -6.0240  -22.0968  -50.8837 O.2       16 UNK        -0.5000 
     94 N          -3.9613  -22.6357  -50.1164 N.am      17 UNK        -0.5000 
     95 CA         -3.1923  -21.9493  -51.1496 C.3       17 UNK         0.1400 
     96 CB         -1.7624  -22.5093  -51.1835 C.3       17 UNK        -0.1800 
     97 C          -3.2063  -20.4277  -50.9143 C.2       17 UNK         0.5000 
     98 O          -2.9788  -19.9723  -49.7899 O.2       17 UNK        -0.5000 
     99 N          -3.4855  -19.6785  -51.9820 N.am      18 UNK        -0.5000 
    100 CA        -3.5903  -18.2258  -51.9975 C.3       18 UNK         0.1400 
    101 CB        -5.0133  -17.8005  -51.5936 C.3       18 UNK        -0.1800 
    102 C         -3.2087  -17.7122  -53.3917 C.2       18 UNK         0.5000 
    103 O         -2.9029  -18.5208  -54.2707 O.2       18 UNK        -0.5000 
    104 N         -3.2270  -16.3818  -53.5619 N.am      19 UNK        -0.5000 
    105 CA        -2.7344  -15.6065  -54.7110 C.3       19 UNK         0.1400 
    106 CB        -3.2522  -14.1653  -54.5913 C.3       19 UNK        -0.1800 
    107 C         -3.0455  -16.1675  -56.1138 C.2       19 UNK         0.5000 
    108 O         -2.1885  -16.0937  -56.9938 O.2       19 UNK        -0.5000 
    109 N         -4.2415  -16.7442  -56.2878 N.am      20 UNK        -0.5000 
    110 CA        -4.7007  -17.3688  -57.5304 C.3       20 UNK         0.1400 
    111 CB        -6.2005  -17.6768  -57.4002 C.3       20 UNK        -0.1800 
    112 C         -3.9251  -18.6418  -57.9342 C.2       20 UNK         0.5000 
    113 O         -3.9201  -18.9857  -59.1170 O.2       20 UNK        -0.5000 
    114 N         -3.2986  -19.3255  -56.9658 N.am      21 UNK        -0.5000 
    115 CA        -2.5162  -20.5441  -57.1882 C.3       21 UNK         0.1400 
    116 CB        -2.5081  -21.3797  -55.8969 C.3       21 UNK        -0.1800 
    117 C         -1.0747  -20.2566  -57.6516 C.2       21 UNK         0.5000 
    118 O         -0.4377  -21.1456  -58.2186 O.2       21 UNK        -0.5000 
    119 N         -0.5800  -19.0402  -57.3945 N.am      22 UNK        -0.5000 
    120 CA         0.7503  -18.5708  -57.8047 C.3       22 UNK         0.1400 
    121 C          0.7635  -18.1293  -59.2946 C.2       22 UNK         0.5000 
    122 N          1.8852  -18.2942  -59.9828 N.am      22 UNK        -0.7600 
    123 O         -0.2139  -17.6065  -59.8256 O.2       22 UNK        -0.5000 
    124 C124        1.2533  -17.4291  -56.8829 C.3       23 UNK        -0.0398 
    125 S125        1.8218  -18.0121  -55.2461 S.3       23 UNK        -0.2404 
    126 C126        0.2472  -18.2579  -54.3753 C.3       23 UNK        -0.0205 
    127 H127       -4.9900  -20.1354  -48.2439 H         1 UNK         0.0600 
    128 H128       -6.4185  -19.3150  -48.8822 H         1 UNK         0.0600 
    129 H129       -6.4117  -19.9266  -47.2277 H         1 UNK         0.0600 
    130 H130       -3.3831  -18.5686  -48.0598 H         1 UNK         0.3000 
    131 H131       -3.8556  -15.8148  -47.3720 H         1 UNK         0.0600 
    132 H132       -1.3241  -17.4549  -47.8071 H         1 UNK         0.0800 
    133 H133       -1.2340  -15.8009  -47.2599 H         1 UNK         0.0800 
    134 H134        0.3645  -15.6266  -49.1323 H         1 UNK         0.0800 
    135 H135       -0.1444  -14.9008  -50.6317 H         1 UNK         0.0800 
    136 H136       -0.3517  -16.2056  -52.6805 H         1 UNK         0.1150 
    137 H137        1.1896  -20.1997  -52.7243 H         1 UNK         0.1150 
    138 H138        0.7555  -18.0805  -49.0082 H         1 UNK         0.1150 
    139 H139        1.0993  -21.4210  -50.4471 H         1 UNK         0.0800 
    140 H140        2.6601  -20.6400  -50.4305 H         1 UNK         0.0800 
    141 H141       -0.6936  -20.8134  -48.8504 H         1 UNK         0.0800 
    142 H142       -0.5215  -19.7628  -47.4839 H         1 UNK         0.0800 
    143 H143       -0.0376  -22.7806  -47.4304 H         1 UNK         0.0600 
    144 H144        0.7159  -20.8426  -45.5340 H         1 UNK         0.3000 
    145 H145        0.2016  -22.5442  -42.5345 H         1 UNK         0.0600 
    146 H146        2.6762  -22.4468  -42.1764 H         1 UNK         0.0600 
    147 H147        2.2165  -23.8328  -43.1548 H         1 UNK         0.0600 
    148 H148        2.9301  -22.4227  -43.9212 H         1 UNK         0.0600 
    149 H149        1.8127  -20.2921  -42.9828 H         1 UNK         0.3000 
    150 H150       -0.7113  -17.8404  -43.5107 H         1 UNK         0.0600 
    151 H151       -0.6919  -18.2341  -41.0494 H         1 UNK         0.0600 
    152 H152        0.2939  -16.8621  -41.5018 H         1 UNK         0.0600 
    153 H153        1.0582  -18.3921  -41.0738 H         1 UNK         0.0600 
    154 H154        2.1979  -17.9042  -43.2277 H         1 UNK         0.3000 
    155 H155        2.8453  -18.2254  -46.6954 H         1 UNK         0.0600 
    156 H156        3.1292  -15.6426  -45.0880 H         1 UNK         0.0600 
    157 H157        2.2827  -15.7999  -46.6236 H         1 UNK         0.0600 
    158 H158        4.0161  -16.0740  -46.5462 H         1 UNK         0.0600 
    159 H159        4.3840  -17.5928  -44.2931 H         1 UNK         0.3000 
    160 H160        5.0474  -20.9719  -43.4698 H         1 UNK         0.0600 
    161 H161        6.9901  -19.0717  -44.8900 H         1 UNK         0.0600 
    162 H162        6.6243  -20.7172  -45.3946 H         1 UNK         0.0600 
    163 H163        7.4345  -20.4355  -43.8623 H         1 UNK         0.0600 
    164 H164        6.2915  -18.6129  -42.5459 H         1 UNK         0.3000 
    165 H165        4.6913  -18.5182  -39.6847 H         1 UNK         0.0600 
    166 H166        6.3350  -16.7008  -41.5355 H         1 UNK         0.0600 
    167 H167        6.3612  -16.6775  -39.7782 H         1 UNK         0.0600 
    168 H168        6.9492  -18.0881  -40.6319 H         1 UNK         0.0600 
    169 H169        3.3628  -16.7559  -39.5465 H         1 UNK         0.3000 
    170 H170        1.7066  -15.3317  -40.2613 H         1 UNK         0.0600 
    171 H171        3.8957  -13.2776  -40.9261 H         1 UNK         0.0600 
    172 H172        2.4809  -12.9715  -39.9198 H         1 UNK         0.0600 
    173 H173        3.7071  -14.1104  -39.3872 H         1 UNK         0.0600 
    174 H174        2.2565  -14.2925  -42.9686 H         1 UNK         0.3000 
    175 H175        0.1214  -12.4258  -43.5381 H         1 UNK         0.0600 
    176 H176        1.5061  -13.9343  -44.8338 H         1 UNK         0.0600 
    177 H177       -0.0467  -13.8629  -45.6375 H         1 UNK         0.0600 
    178 H178        0.3587  -15.2624  -44.6507 H         1 UNK         0.0600 
    179 H179       -1.9672  -14.4499  -43.9647 H         1 UNK         0.3000 
    180 H180       -4.4172  -12.8765  -42.1290 H         1 UNK         0.0600 
    181 H181       -5.7400  -12.2710  -44.1483 H         1 UNK         0.0600 
    182 H182       -4.2699  -12.2260  -45.1231 H         1 UNK         0.0600 
    183 H183       -4.5130  -11.0561  -43.8318 H         1 UNK         0.0600 
    184 H184       -4.5369  -14.5688  -44.4760 H         1 UNK         0.3000 
    185 H185       -3.6452  -17.5719  -42.9961 H         1 UNK         0.0600 
    186 H186       -5.9658  -18.3892  -43.4122 H         1 UNK         0.0600 
    187 H187       -5.9036  -17.4503  -41.9308 H         1 UNK         0.0600 
    188 H188       -6.5709  -16.7353  -43.3939 H         1 UNK         0.0600 
    189 H189       -5.1061  -17.0863  -45.3863 H         1 UNK         0.3000 
    190 H190       -2.0213  -20.9776  -45.1020 H         1 UNK         0.3000 
    191 H191       -4.5616  -21.5035  -46.3376 H         1 UNK         0.0600 
    192 H192       -5.4886  -20.7426  -44.1998 H         1 UNK         0.0600 
    193 H193       -4.1844  -19.6716  -44.6931 H         1 UNK         0.0600 
    194 H194       -3.9168  -20.8610  -43.4204 H         1 UNK         0.0600 
    195 H195       -2.5266  -23.2371  -43.9881 H         1 UNK         0.3000 
    196 H196       -4.4744  -25.3343  -43.4399 H         1 UNK         0.0600 
    197 H197       -1.4774  -25.1532  -42.8148 H         1 UNK         0.0600 
    198 H198       -2.7873  -24.6701  -41.7385 H         1 UNK         0.0600 
    199 H199       -2.5920  -26.3579  -42.1849 H         1 UNK         0.0600 
    200 H200       -1.6246  -24.8972  -45.5351 H         1 UNK         0.3000 
    201 H201       -1.6135  -27.5683  -46.6199 H         1 UNK         0.0600 
    202 H202        0.1656  -26.6620  -48.0674 H         1 UNK         0.0600 
    203 H203       -0.2274  -25.0198  -47.5815 H         1 UNK         0.0600 
    204 H204        0.4284  -26.1555  -46.4050 H         1 UNK         0.0600 
    205 H205       -4.0680  -27.2544  -46.9487 H         1 UNK         0.3000 
    206 H206       -5.7973  -27.4798  -48.3023 H         1 UNK         0.0600 
    207 H207       -4.2337  -28.9603  -49.5829 H         1 UNK         0.0600 
    208 H208       -5.4524  -28.2336  -50.6150 H         1 UNK         0.0600 
    209 H209       -3.8112  -27.6045  -50.6285 H         1 UNK         0.0600 
    210 H210       -4.9671  -24.7833  -47.6515 H         1 UNK         0.3000 
    211 H211       -5.5714  -22.6796  -47.9345 H         1 UNK         0.0600 
    212 H212       -7.8435  -23.6684  -47.8438 H         1 UNK         0.0600 
    213 H213       -7.8749  -23.8033  -49.6021 H         1 UNK         0.0600 
    214 H214       -7.8208  -22.2206  -48.8367 H         1 UNK         0.0600 
    215 H215       -3.4314  -22.9969  -49.3272 H         1 UNK         0.3000 
    216 H216       -3.6537  -22.1585  -52.1173 H         1 UNK         0.0600 
    217 H217       -1.1297  -21.9370  -51.8633 H         1 UNK         0.0600 
    218 H218       -1.7597  -23.5439  -51.5271 H         1 UNK         0.0600 
    219 H219       -1.2965  -22.4940  -50.1997 H         1 UNK         0.0600 
    220 H220       -3.5777  -20.1054  -52.8945 H         1 UNK         0.3000 
    221 H221       -2.8666  -17.8172  -51.2942 H         1 UNK         0.0600 
    222 H222       -5.2674  -18.1806  -50.6061 H         1 UNK         0.0600 
    223 H223       -5.7586  -18.1738  -52.2968 H         1 UNK         0.0600 
    224 H224       -5.1105  -16.7155  -51.5491 H         1 UNK         0.0600 
    225 H225       -3.5169  -15.8229  -52.7726 H         1 UNK         0.3000 
    226 H226       -1.6486  -15.5653  -54.6222 H         1 UNK         0.0600 
    227 H227       -2.9121  -13.6981  -53.6669 H         1 UNK         0.0600 
    228 H228       -2.8915  -13.5481  -55.4155 H         1 UNK         0.0600 
    229 H229       -4.3422  -14.1282  -54.6057 H         1 UNK         0.0600 
    230 H230       -4.8711  -16.7846  -55.5001 H         1 UNK         0.3000 
    231 H231       -4.5710  -16.6427  -58.3357 H         1 UNK         0.0600 
    232 H232       -6.3965  -18.3816  -56.5911 H         1 UNK         0.0600 
    233 H233       -6.5916  -18.1151  -58.3194 H         1 UNK         0.0600 
    234 H234       -6.7746  -16.7709  -57.2046 H         1 UNK         0.0600 
    235 H235       -3.3163  -18.9706  -56.0119 H         1 UNK         0.3000 
    236 H236       -3.0000  -21.1382  -57.9664 H         1 UNK         0.0600 
    237 H237       -3.5218  -21.5958  -55.5592 H         1 UNK         0.0600 
    238 H238       -2.0078  -22.3357  -56.0558 H         1 UNK         0.0600 
    239 H239       -1.9853  -20.8707  -55.0871 H         1 UNK         0.0600 
    240 H240       -1.1997  -18.3434  -57.0064 H         1 UNK         0.3000 
    241 H241        1.4473  -19.4064  -57.7114 H         1 UNK         0.0600 
    242 H242        2.7041  -18.7144  -59.5700 H         1 UNK         0.3800 
    243 H243        1.9151  -18.0009  -60.9473 H         1 UNK         0.3800 
    244 H244        0.4922  -16.6569  -56.7608 H         1 UNK         0.0800 
    245 H245        2.1102  -16.9261  -57.3350 H         1 UNK         0.0800 
    246 H246       -0.1774  -19.2207  -54.6609 H         1 UNK         0.0800 
    247 H247       -0.4617  -17.5011  -54.7025 H         1 UNK         0.0800 
@<TRIPOS>BOND
     1    1    2 1    
     2    1  127 1    
     3    1  128 1    
     4    1  129 1    
     5    2    3 2    
     6    2    4 am   BACKBONE|DICT|INTERRES
     7    4    5 1    
     8    4  130 1    
     9    5    6 1    
    10    5   65 1    
    11    5  131 1    
    12    6    7 1    
    13    6  132 1    
    14    6  133 1    
    15    7    8 1    
    16    8    9 1    
    17    8  134 1    
    18    8  135 1    
    19    9   10 ar   
    20    9   14 ar   
    21   10   11 ar   
    22   10  136 1    
    23   11   12 ar   
    24   11  126 1    
    25   12   13 ar   
    26   12  137 1    
    27   13   14 ar   
    28   13   15 1    
    29   14  138 1    
    30   15   16 1    
    31   15  139 1    
    32   15  140 1    
    33   16   17 1    
    34   17   18 1    
    35   17  141 1    
    36   17  142 1    
    37   18   19 1    
    38   18   67 1    
    39   18  143 1    
    40   19   20 am   BACKBONE|DICT|INTERRES
    41   19  144 1    
    42   20   21 2    
    43   20   22 1    
    44   22   23 1    
    45   22   24 1    
    46   22  145 1    
    47   23  146 1    
    48   23  147 1    
    49   23  148 1    
    50   24   25 am   BACKBONE|DICT|INTERRES
    51   24  149 1    
    52   25   26 2    
    53   25   27 1    
    54   27   28 1    
    55   27   29 1    
    56   27  150 1    
    57   28  151 1    
    58   28  152 1    
    59   28  153 1    
    60   29   30 am   BACKBONE|DICT|INTERRES
    61   29  154 1    
    62   30   31 2    
    63   30   32 1    
    64   32   33 1    
    65   32   34 1    
    66   32  155 1    
    67   33  156 1    
    68   33  157 1    
    69   33  158 1    
    70   34   35 am   BACKBONE|DICT|INTERRES
    71   34  159 1    
    72   35   36 2    
    73   35   37 1    
    74   37   38 1    
    75   37   39 1    
    76   37  160 1    
    77   38  161 1    
    78   38  162 1    
    79   38  163 1    
    80   39   40 am   BACKBONE|DICT|INTERRES
    81   39  164 1    
    82   40   41 2    
    83   40   42 1    
    84   42   43 1    
    85   42   44 1    
    86   42  165 1    
    87   43  166 1    
    88   43  167 1    
    89   43  168 1    
    90   44   45 am   BACKBONE|DICT|INTERRES
    91   44  169 1    
    92   45   46 2    
    93   45   47 1    
    94   47   48 1    
    95   47   49 1    
    96   47  170 1    
    97   48  171 1    
    98   48  172 1    
    99   48  173 1    
   100   49   50 am   BACKBONE|DICT|INTERRES
   101   49  174 1    
   102   50   51 2    
   103   50   52 1    
   104   52   53 1    
   105   52   54 1    
   106   52  175 1    
   107   53  176 1    
   108   53  177 1    
   109   53  178 1    
   110   54   55 am   BACKBONE|DICT|INTERRES
   111   54  179 1    
   112   55   56 2    
   113   55   57 1    
   114   57   58 1    
   115   57   59 1    
   116   57  180 1    
   117   58  181 1    
   118   58  182 1    
   119   58  183 1    
   120   59   60 am   BACKBONE|DICT|INTERRES
   121   59  184 1    
   122   60   61 2    
   123   60   62 1    
   124   62   63 1    
   125   62   64 1    
   126   62  185 1    
   127   63  186 1    
   128   63  187 1    
   129   63  188 1    
   130   64   65 am   BACKBONE|DICT|INTERRES
   131   64  189 1    
   132   65   66 2    
   133   67   68 2    
   134   67   69 am   BACKBONE|DICT|INTERRES
   135   69   70 1    
   136   69  190 1    
   137   70   71 1    
   138   70   72 1    
   139   70  191 1    
   140   71  192 1    
   141   71  193 1    
   142   71  194 1    
   143   72   73 2    
   144   72   74 am   BACKBONE|DICT|INTERRES
   145   74   75 1    
   146   74  195 1    
   147   75   76 1    
   148   75   77 1    
   149   75  196 1    
   150   76  197 1    
   151   76  198 1    
   152   76  199 1    
   153   77   78 2    
   154   77   79 am   BACKBONE|DICT|INTERRES
   155   79   80 1    
   156   79  200 1    
   157   80   81 1    
   158   80   82 1    
   159   80  201 1    
   160   81  202 1    
   161   81  203 1    
   162   81  204 1    
   163   82   83 2    
   164   82   84 am   BACKBONE|DICT|INTERRES
   165   84   85 1    
   166   84  205 1    
   167   85   86 1    
   168   85   87 1    
   169   85  206 1    
   170   86  207 1    
   171   86  208 1    
   172   86  209 1    
   173   87   88 2    
   174   87   89 am   BACKBONE|DICT|INTERRES
   175   89   90 1    
   176   89  210 1    
   177   90   91 1    
   178   90   92 1    
   179   90  211 1    
   180   91  212 1    
   181   91  213 1    
   182   91  214 1    
   183   92   93 2    
   184   92   94 am   BACKBONE|DICT|INTERRES
   185   94   95 1    
   186   94  215 1    
   187   95   96 1    
   188   95   97 1    
   189   95  216 1    
   190   96  217 1    
   191   96  218 1    
   192   96  219 1    
   193   97   98 2    
   194   97   99 am   BACKBONE|DICT|INTERRES
   195   99  100 1    
   196   99  220 1    
   197  100  101 1    
   198  100  102 1    
   199  100  221 1    
   200  101  222 1    
   201  101  223 1    
   202  101  224 1    
   203  102  103 2    
   204  102  104 am   BACKBONE|DICT|INTERRES
   205  104  105 1    
   206  104  225 1    
   207  105  106 1    
   208  105  107 1    
   209  105  226 1    
   210  106  227 1    
   211  106  228 1    
   212  106  229 1    
   213  107  108 2    
   214  107  109 am   BACKBONE|DICT|INTERRES
   215  109  110 1    
   216  109  230 1    
   217  110  111 1    
   218  110  112 1    
   219  110  231 1    
   220  111  232 1    
   221  111  233 1    
   222  111  234 1    
   223  112  113 2    
   224  112  114 am   BACKBONE|DICT|INTERRES
   225  114  115 1    
   226  114  235 1    
   227  115  116 1    
   228  115  117 1    
   229  115  236 1    
   230  116  237 1    
   231  116  238 1    
   232  116  239 1    
   233  117  118 2    
   234  117  119 am   BACKBONE|DICT|INTERRES
   235  119  120 1    
   236  119  240 1    
   237  120  121 1    
   238  120  124 1    
   239  120  241 1    
   240  121  122 am   BACKBONE|DICT|INTERRES
   241  121  123 2    
   242  122  242 1    
   243  122  243 1    
   244  124  125 1    
   245  124  244 1    
   246  124  245 1    
   247  125  126 1    
   248  126  246 1    
   249  126  247 1    
@<TRIPOS>SUBSTRUCTURE
     1 UNK         1 GROUP             0       ****    0 ROOT    
