@<TRIPOS>MOLECULE
3R540
247   249    1
SMALL
USER_CHARGES


@<TRIPOS>ATOM
      1 CA          6.3878  -18.8667  -47.5271 C.3       0 UNK        -0.1800 
      2 C           5.0727  -18.2845  -47.0316 C.2       0 UNK         0.5000 
      3 O           4.2624  -19.0123  -46.4588 O.2       0 UNK        -0.5000 
      4 N           4.8582  -16.9801  -47.2488 N.am      1 UNK        -0.5000 
      5 CA          3.6392  -16.2552  -46.8612 C.3       1 UNK         0.1400 
      6 C6          3.3744  -15.0305  -47.7689 C.3       23 UNK        -0.0398 
      7 S7          3.0218  -15.5448  -49.4834 S.3       23 UNK        -0.2404 
      8 C8          1.2424  -15.8954  -49.3382 C.3       23 UNK        -0.0205 
      9 C9          0.6995  -16.6477  -50.5411 C.ar      23 UNK        -0.0193 
     10 C10        -0.2087  -16.0325  -51.4059 C.ar      23 UNK        -0.1150 
     11 C11        -0.7580  -16.7409  -52.4774 C.ar      23 UNK        -0.0193 
     12 C12        -0.3875  -18.0743  -52.6786 C.ar      23 UNK        -0.1150 
     13 C13         0.5266  -18.7050  -51.8286 C.ar      23 UNK        -0.0193 
     14 C14         1.0708  -17.9769  -50.7624 C.ar      23 UNK        -0.1150 
     15 C15         0.9185  -20.1561  -52.1156 C.3       23 UNK        -0.0205 
     16 S16         1.4827  -21.1194  -50.6692 S.3       23 UNK        -0.2404 
     17 C17        -0.0342  -21.1612  -49.6601 C.3       23 UNK        -0.0398 
     18 CA          0.0322  -22.2196  -48.5339 C.3       11 UNK         0.1400 
     19 N           1.1782  -22.0237  -47.6412 N.am      11 UNK        -0.5000 
     20 C           1.6104  -22.9224  -46.7455 C.2       10 UNK         0.5000 
     21 O           1.0814  -24.0180  -46.5642 O.2       10 UNK        -0.5000 
     22 CA          2.7887  -22.4870  -45.8560 C.3       10 UNK         0.1400 
     23 CB          4.1239  -22.6601  -46.5949 C.3       10 UNK        -0.1800 
     24 N           2.6585  -21.1000  -45.4085 N.am      10 UNK        -0.5000 
     25 C           1.6518  -20.6350  -44.6611 C.2       9 UNK         0.5000 
     26 O           0.7251  -21.3337  -44.2442 O.2       9 UNK        -0.5000 
     27 CA          1.6251  -19.1154  -44.4448 C.3       9 UNK         0.1400 
     28 CB          0.8715  -18.4634  -45.6138 C.3       9 UNK        -0.1800 
     29 N           0.9690  -18.7170  -43.2045 N.am      9 UNK        -0.5000 
     30 C           1.2947  -19.0809  -41.9591 C.2       8 UNK         0.5000 
     31 O           2.2524  -19.8050  -41.6853 O.2       8 UNK        -0.5000 
     32 CA          0.4096  -18.5413  -40.8132 C.3       8 UNK         0.1400 
     33 CB          1.0803  -17.3332  -40.1268 C.3       8 UNK        -0.1800 
     34 N          -0.9839  -18.2368  -41.1862 N.am      8 UNK        -0.5000 
     35 C          -1.4346  -17.2732  -42.0000 C.2       7 UNK         0.5000 
     36 O          -0.7011  -16.4685  -42.5824 O.2       7 UNK        -0.5000 
     37 CA         -2.9510  -17.2224  -42.2303 C.3       7 UNK         0.1400 
     38 CB         -3.6815  -16.5953  -41.0320 C.3       7 UNK        -0.1800 
     39 N          -3.1868  -16.4140  -43.4167 N.am      7 UNK        -0.5000 
     40 C          -4.0982  -16.6293  -44.3691 C.2       6 UNK         0.5000 
     41 O          -4.9463  -17.5202  -44.3169 O.2       6 UNK        -0.5000 
     42 CA         -4.0540  -15.6866  -45.5886 C.3       6 UNK         0.1400 
     43 CB         -5.2195  -14.6868  -45.5375 C.3       6 UNK        -0.1800 
     44 N          -2.7989  -14.9357  -45.6710 N.am      6 UNK        -0.5000 
     45 C          -1.6458  -15.4011  -46.1616 C.2       5 UNK         0.5000 
     46 O          -1.5296  -16.5095  -46.6820 O.2       5 UNK        -0.5000 
     47 CA         -0.4124  -14.4808  -46.0488 C.3       5 UNK         0.1400 
     48 CB         -0.4996  -13.3037  -47.0417 C.3       5 UNK        -0.1800 
     49 N          -0.0981  -14.0157  -44.6858 N.am      5 UNK        -0.5000 
     50 C          -0.8260  -13.2003  -43.9058 C.2       4 UNK         0.5000 
     51 O          -1.9163  -12.7380  -44.2468 O.2       4 UNK        -0.5000 
     52 CA         -0.2815  -12.8010  -42.5236 C.3       4 UNK         0.1400 
     53 CB         -1.2430  -13.2144  -41.3931 C.3       4 UNK        -0.1800 
     54 N           1.0656  -13.2914  -42.2051 N.am      4 UNK        -0.5000 
     55 C           1.9777  -12.5281  -41.5819 C.2       3 UNK         0.5000 
     56 O           1.8633  -11.3095  -41.4374 O.2       3 UNK        -0.5000 
     57 CA          3.1980  -13.2205  -40.9500 C.3       3 UNK         0.1400 
     58 CB          2.8896  -13.5952  -39.4912 C.3       3 UNK        -0.1800 
     59 N           3.6440  -14.4192  -41.6521 N.am      3 UNK        -0.5000 
     60 C           4.4248  -14.4189  -42.7390 C.2       2 UNK         0.5000 
     61 O           4.7816  -13.3942  -43.3244 O.2       2 UNK        -0.5000 
     62 CA          4.9313  -15.7916  -43.2381 C.3       2 UNK         0.1400 
     63 CB          4.3256  -16.9959  -42.4837 C.3       2 UNK        -0.1800 
     64 N           4.7543  -15.9752  -44.6799 N.am      2 UNK        -0.5000 
     65 C           3.6075  -15.8698  -45.3663 C.2       1 UNK         0.5000 
     66 O           2.5403  -15.5159  -44.8620 O.2       1 UNK        -0.5000 
     67 C          -1.3045  -22.2587  -47.7668 C.2       11 UNK         0.5000 
     68 O          -2.2188  -22.9619  -48.1958 O.2       11 UNK        -0.5000 
     69 N          -1.4001  -21.5180  -46.6535 N.am      12 UNK        -0.5000 
     70 CA         -2.5665  -21.5203  -45.7713 C.3       12 UNK         0.1400 
     71 CB         -2.5670  -20.2584  -44.8923 C.3       12 UNK        -0.1800 
     72 C          -2.6123  -22.7977  -44.9164 C.2       12 UNK         0.5000 
     73 O          -3.6697  -23.4183  -44.8128 O.2       12 UNK        -0.5000 
     74 N          -1.4572  -23.1883  -44.3582 N.am      13 UNK        -0.5000 
     75 CA         -1.2769  -24.3918  -43.5444 C.3       13 UNK         0.1400 
     76 CB          0.1305  -24.3814  -42.9285 C.3       13 UNK        -0.1800 
     77 C          -1.5198  -25.6949  -44.3283 C.2       13 UNK         0.5000 
     78 O          -2.1717  -26.6027  -43.8111 O.2       13 UNK        -0.5000 
     79 N          -1.0184  -25.7534  -45.5698 N.am      14 UNK        -0.5000 
     80 CA         -1.2187  -26.8727  -46.4941 C.3       14 UNK         0.1400 
     81 CB         -0.1286  -26.8198  -47.5769 C.3       14 UNK        -0.1800 
     82 C          -2.6127  -26.8816  -47.1532 C.2       14 UNK         0.5000 
     83 O          -2.9772  -27.8852  -47.7661 O.2       14 UNK        -0.5000 
     84 N          -3.3400  -25.7576  -47.0556 N.am      15 UNK        -0.5000 
     85 CA         -4.6204  -25.4502  -47.7065 C.3       15 UNK         0.1400 
     86 CB         -5.7347  -26.4102  -47.2427 C.3       15 UNK        -0.1800 
     87 C          -4.5211  -25.3486  -49.2451 C.2       15 UNK         0.5000 
     88 O          -5.5413  -25.3887  -49.9340 O.2       15 UNK        -0.5000 
     89 N          -3.2961  -25.1694  -49.7579 N.am      16 UNK        -0.5000 
     90 CA         -2.9824  -24.9477  -51.1678 C.3       16 UNK         0.1400 
     91 CB         -1.4646  -25.0608  -51.3707 C.3       16 UNK        -0.1800 
     92 C          -3.4909  -23.5887  -51.6764 C.2       16 UNK         0.5000 
     93 O          -3.8116  -23.4725  -52.8582 O.2       16 UNK        -0.5000 
     94 N          -3.6066  -22.6033  -50.7725 N.am      17 UNK        -0.5000 
     95 CA         -4.1289  -21.2559  -51.0262 C.3       17 UNK         0.1400 
     96 CB         -3.9857  -20.4162  -49.7464 C.3       17 UNK        -0.1800 
     97 C          -5.5863  -21.2151  -51.5364 C.2       17 UNK         0.5000 
     98 O          -5.9986  -20.2025  -52.1010 O.2       17 UNK        -0.5000 
     99 N          -6.3393  -22.3093  -51.3498 N.am      18 UNK        -0.5000 
    100 CA        -7.6751  -22.4983  -51.9168 C.3       18 UNK         0.1400 
    101 CB        -8.3416  -23.7049  -51.2393 C.3       18 UNK        -0.1800 
    102 C         -7.6524  -22.6824  -53.4484 C.2       18 UNK         0.5000 
    103 O         -8.6132  -22.2960  -54.1148 O.2       18 UNK        -0.5000 
    104 N         -6.5628  -23.2587  -53.9749 N.am      19 UNK        -0.5000 
    105 CA        -6.3159  -23.4296  -55.4055 C.3       19 UNK         0.1400 
    106 CB        -5.6765  -24.8057  -55.6517 C.3       19 UNK        -0.1800 
    107 C         -5.4106  -22.3023  -55.9242 C.2       19 UNK         0.5000 
    108 O         -5.7418  -21.6554  -56.9191 O.2       19 UNK        -0.5000 
    109 N         -4.3000  -22.0570  -55.2171 N.am      20 UNK        -0.5000 
    110 CA        -3.3469  -20.9790  -55.4659 C.3       20 UNK         0.1400 
    111 CB        -1.9768  -21.3873  -54.8932 C.3       20 UNK        -0.1800 
    112 C         -3.8698  -19.6610  -54.8662 C.2       20 UNK         0.5000 
    113 O         -3.3047  -19.1508  -53.9007 O.2       20 UNK        -0.5000 
    114 N         -4.9720  -19.1551  -55.4303 N.am      21 UNK        -0.5000 
    115 CA        -5.6737  -17.9589  -54.9610 C.3       21 UNK         0.1400 
    116 CB        -7.1112  -17.9940  -55.5031 C.3       21 UNK        -0.1800 
    117 C         -4.9787  -16.6370  -55.3469 C.2       21 UNK         0.5000 
    118 O         -5.3131  -15.5986  -54.7757 O.2       21 UNK        -0.5000 
    119 N         -4.0461  -16.6923  -56.3095 N.am      22 UNK        -0.5000 
    120 CA        -3.2988  -15.5522  -56.8780 C.3       22 UNK         0.1400 
    121 C         -4.1661  -14.5670  -57.7247 C.2       22 UNK         0.5000 
    122 N         -5.3678  -14.9381  -58.1502 N.am      22 UNK        -0.7600 
    123 O         -3.7354  -13.4591  -58.0344 O.2       22 UNK        -0.5000 
    124 C124       -2.4047  -14.8120  -55.8400 C.3       23 UNK        -0.0398 
    125 S125       -1.1261  -15.8783  -55.0893 S.3       23 UNK        -0.2404 
    126 C126       -1.7695  -16.0717  -53.3978 C.3       23 UNK        -0.0205 
    127 H127        6.1957  -19.6738  -48.2340 H         1 UNK         0.0600 
    128 H128        6.9557  -19.2733  -46.6904 H         1 UNK         0.0600 
    129 H129        7.0023  -18.1163  -48.0250 H         1 UNK         0.0600 
    130 H130        5.5527  -16.4393  -47.7446 H         1 UNK         0.3000 
    131 H131        2.8012  -16.9379  -46.9950 H         1 UNK         0.0600 
    132 H132        2.5343  -14.4363  -47.4058 H         1 UNK         0.0800 
    133 H133        4.2364  -14.3616  -47.7724 H         1 UNK         0.0800 
    134 H134        0.7145  -14.9516  -49.2097 H         1 UNK         0.0800 
    135 H135        1.0429  -16.4870  -48.4440 H         1 UNK         0.0800 
    136 H136       -0.4999  -15.0055  -51.2356 H         1 UNK         0.1150 
    137 H137       -0.8109  -18.6195  -53.5099 H         1 UNK         0.1150 
    138 H138        1.7846  -18.4366  -50.0943 H         1 UNK         0.1150 
    139 H139        0.0801  -20.6839  -52.5727 H         1 UNK         0.0800 
    140 H140        1.7183  -20.1510  -52.8569 H         1 UNK         0.0800 
    141 H141       -0.8740  -21.3699  -50.3257 H         1 UNK         0.0800 
    142 H142       -0.2052  -20.1653  -49.2469 H         1 UNK         0.0800 
    143 H143        0.1550  -23.1982  -49.0018 H         1 UNK         0.0600 
    144 H144        1.6844  -21.1559  -47.7384 H         1 UNK         0.3000 
    145 H145        2.7963  -23.1277  -44.9719 H         1 UNK         0.0600 
    146 H146        4.9664  -22.4220  -45.9453 H         1 UNK         0.0600 
    147 H147        4.2534  -23.6893  -46.9323 H         1 UNK         0.0600 
    148 H148        4.1867  -22.0145  -47.4720 H         1 UNK         0.0600 
    149 H149        3.3476  -20.4361  -45.7595 H         1 UNK         0.3000 
    150 H150        2.6484  -18.7395  -44.4122 H         1 UNK         0.0600 
    151 H151       -0.1626  -18.8020  -45.6665 H         1 UNK         0.0600 
    152 H152        1.3387  -18.6990  -46.5704 H         1 UNK         0.0600 
    153 H153        0.8499  -17.3802  -45.5146 H         1 UNK         0.0600 
    154 H154        0.2162  -18.0452  -43.2934 H         1 UNK         0.3000 
    155 H155        0.3469  -19.3427  -40.0753 H         1 UNK         0.0600 
    156 H156        1.2208  -16.4978  -40.8125 H         1 UNK         0.0600 
    157 H157        2.0641  -17.6029  -39.7409 H         1 UNK         0.0600 
    158 H158        0.4870  -16.9786  -39.2841 H         1 UNK         0.0600 
    159 H159       -1.6671  -18.8625  -40.7823 H         1 UNK         0.3000 
    160 H160       -3.3093  -18.2411  -42.3931 H         1 UNK         0.0600 
    161 H161       -3.3394  -15.5780  -40.8386 H         1 UNK         0.0600 
    162 H162       -3.5198  -17.1760  -40.1232 H         1 UNK         0.0600 
    163 H163       -4.7571  -16.5573  -41.2053 H         1 UNK         0.0600 
    164 H164       -2.4751  -15.7144  -43.5827 H         1 UNK         0.3000 
    165 H165       -4.1634  -16.2993  -46.4859 H         1 UNK         0.0600 
    166 H166       -5.2300  -14.0487  -46.4213 H         1 UNK         0.0600 
    167 H167       -6.1788  -15.2045  -45.4996 H         1 UNK         0.0600 
    168 H168       -5.1576  -14.0429  -44.6591 H         1 UNK         0.0600 
    169 H169       -2.7760  -14.0187  -45.2294 H         1 UNK         0.3000 
    170 H170        0.4373  -15.0894  -46.3552 H         1 UNK         0.0600 
    171 H171       -0.7496  -13.6511  -48.0439 H         1 UNK         0.0600 
    172 H172       -1.2656  -12.5808  -46.7627 H         1 UNK         0.0600 
    173 H173        0.4509  -12.7741  -47.1059 H         1 UNK         0.0600 
    174 H174        0.7803  -14.3709  -44.3263 H         1 UNK         0.3000 
    175 H175       -0.2791  -11.7097  -42.5566 H         1 UNK         0.0600 
    176 H176       -2.2701  -12.9163  -41.6075 H         1 UNK         0.0600 
    177 H177       -1.2386  -14.2914  -41.2347 H         1 UNK         0.0600 
    178 H178       -0.9631  -12.7426  -40.4512 H         1 UNK         0.0600 
    179 H179        1.2276  -14.2843  -42.2993 H         1 UNK         0.3000 
    180 H180        4.0171  -12.4977  -40.9418 H         1 UNK         0.0600 
    181 H181        2.0834  -14.3268  -39.4239 H         1 UNK         0.0600 
    182 H182        2.5843  -12.7184  -38.9184 H         1 UNK         0.0600 
    183 H183        3.7663  -14.0142  -38.9969 H         1 UNK         0.0600 
    184 H184        3.4003  -15.3052  -41.2358 H         1 UNK         0.3000 
    185 H185        6.0073  -15.7985  -43.0591 H         1 UNK         0.0600 
    186 H186        4.5797  -16.9753  -41.4233 H         1 UNK         0.0600 
    187 H187        3.2398  -17.0149  -42.5703 H         1 UNK         0.0600 
    188 H188        4.7028  -17.9384  -42.8812 H         1 UNK         0.0600 
    189 H189        5.5811  -16.2445  -45.1929 H         1 UNK         0.3000 
    190 H190       -0.5899  -21.0087  -46.3353 H         1 UNK         0.3000 
    191 H191       -3.4682  -21.4962  -46.3876 H         1 UNK         0.0600 
    192 H192       -2.5736  -19.3539  -45.5010 H         1 UNK         0.0600 
    193 H193       -3.4561  -20.2267  -44.2613 H         1 UNK         0.0600 
    194 H194       -1.6995  -20.2150  -44.2338 H         1 UNK         0.0600 
    195 H195       -0.6409  -22.5891  -44.4577 H         1 UNK         0.3000 
    196 H196       -2.0042  -24.3538  -42.7308 H         1 UNK         0.0600 
    197 H197        0.2879  -25.2555  -42.2954 H         1 UNK         0.0600 
    198 H198        0.2823  -23.4977  -42.3082 H         1 UNK         0.0600 
    199 H199        0.9051  -24.3861  -43.6961 H         1 UNK         0.0600 
    200 H200       -0.4289  -24.9933  -45.9005 H         1 UNK         0.3000 
    201 H201       -1.1078  -27.8086  -45.9426 H         1 UNK         0.0600 
    202 H202       -0.2109  -27.6660  -48.2602 H         1 UNK         0.0600 
    203 H203        0.8676  -26.8557  -47.1355 H         1 UNK         0.0600 
    204 H204       -0.1976  -25.9089  -48.1730 H         1 UNK         0.0600 
    205 H205       -2.9450  -24.9979  -46.5179 H         1 UNK         0.3000 
    206 H206       -4.8890  -24.4501  -47.3634 H         1 UNK         0.0600 
    207 H207       -5.7817  -26.4621  -46.1549 H         1 UNK         0.0600 
    208 H208       -6.7108  -26.0727  -47.5927 H         1 UNK         0.0600 
    209 H209       -5.5861  -27.4211  -47.6225 H         1 UNK         0.0600 
    210 H210       -2.5356  -25.0595  -49.1024 H         1 UNK         0.3000 
    211 H211       -3.4711  -25.7289  -51.7535 H         1 UNK         0.0600 
    212 H212       -0.9256  -24.2910  -50.8188 H         1 UNK         0.0600 
    213 H213       -1.2038  -24.9508  -52.4242 H         1 UNK         0.0600 
    214 H214       -1.0932  -26.0322  -51.0435 H         1 UNK         0.0600 
    215 H215       -3.3050  -22.7977  -49.8224 H         1 UNK         0.3000 
    216 H216       -3.5061  -20.8051  -51.8003 H         1 UNK         0.0600 
    217 H217       -4.3849  -19.4111  -49.8894 H         1 UNK         0.0600 
    218 H218       -2.9413  -20.3042  -49.4590 H         1 UNK         0.0600 
    219 H219       -4.5189  -20.8668  -48.9085 H         1 UNK         0.0600 
    220 H220       -5.9359  -23.1008  -50.8674 H         1 UNK         0.3000 
    221 H221       -8.2707  -21.6101  -51.6958 H         1 UNK         0.0600 
    222 H222       -7.7921  -24.6277  -51.4301 H         1 UNK         0.0600 
    223 H223       -8.4026  -23.5686  -50.1594 H         1 UNK         0.0600 
    224 H224       -9.3585  -23.8466  -51.6075 H         1 UNK         0.0600 
    225 H225       -5.7943  -23.4964  -53.3589 H         1 UNK         0.3000 
    226 H226       -7.2557  -23.3922  -55.9606 H         1 UNK         0.0600 
    227 H227       -5.4723  -24.9565  -56.7124 H         1 UNK         0.0600 
    228 H228       -4.7335  -24.9198  -55.1156 H         1 UNK         0.0600 
    229 H229       -6.3405  -25.6086  -55.3311 H         1 UNK         0.0600 
    230 H230       -4.1178  -22.6189  -54.3876 H         1 UNK         0.3000 
    231 H231       -3.2322  -20.8370  -56.5425 H         1 UNK         0.0600 
    232 H232       -2.0190  -21.5444  -53.8149 H         1 UNK         0.0600 
    233 H233       -1.2285  -20.6174  -55.0848 H         1 UNK         0.0600 
    234 H234       -1.6184  -22.3099  -55.3499 H         1 UNK         0.0600 
    235 H235       -5.4009  -19.6757  -56.1868 H         1 UNK         0.3000 
    236 H236       -5.7224  -17.9926  -53.8704 H         1 UNK         0.0600 
    237 H237       -7.6354  -18.8889  -55.1659 H         1 UNK         0.0600 
    238 H238       -7.6835  -17.1334  -55.1541 H         1 UNK         0.0600 
    239 H239       -7.1315  -17.9834  -56.5934 H         1 UNK         0.0600 
    240 H240       -3.8470  -17.5934  -56.7177 H         1 UNK         0.3000 
    241 H241       -2.6237  -15.9967  -57.6099 H         1 UNK         0.0600 
    242 H242       -5.9155  -14.2999  -58.7062 H         1 UNK         0.3800 
    243 H243       -5.7355  -15.8475  -57.9230 H         1 UNK         0.3800 
    244 H244       -1.8683  -13.9923  -56.3203 H         1 UNK         0.0800 
    245 H245       -3.0138  -14.3464  -55.0648 H         1 UNK         0.0800 
    246 H246       -2.0466  -15.0920  -53.0057 H         1 UNK         0.0800 
    247 H247       -2.6846  -16.6626  -53.4194 H         1 UNK         0.0800 
@<TRIPOS>BOND
     1    1    2 1    
     2    1  127 1    
     3    1  128 1    
     4    1  129 1    
     5    2    3 2    
     6    2    4 am   BACKBONE|DICT|INTERRES
     7    4    5 1    
     8    4  130 1    
     9    5    6 1    
    10    5   65 1    
    11    5  131 1    
    12    6    7 1    
    13    6  132 1    
    14    6  133 1    
    15    7    8 1    
    16    8    9 1    
    17    8  134 1    
    18    8  135 1    
    19    9   10 ar   
    20    9   14 ar   
    21   10   11 ar   
    22   10  136 1    
    23   11   12 ar   
    24   11  126 1    
    25   12   13 ar   
    26   12  137 1    
    27   13   14 ar   
    28   13   15 1    
    29   14  138 1    
    30   15   16 1    
    31   15  139 1    
    32   15  140 1    
    33   16   17 1    
    34   17   18 1    
    35   17  141 1    
    36   17  142 1    
    37   18   19 1    
    38   18   67 1    
    39   18  143 1    
    40   19   20 am   BACKBONE|DICT|INTERRES
    41   19  144 1    
    42   20   21 2    
    43   20   22 1    
    44   22   23 1    
    45   22   24 1    
    46   22  145 1    
    47   23  146 1    
    48   23  147 1    
    49   23  148 1    
    50   24   25 am   BACKBONE|DICT|INTERRES
    51   24  149 1    
    52   25   26 2    
    53   25   27 1    
    54   27   28 1    
    55   27   29 1    
    56   27  150 1    
    57   28  151 1    
    58   28  152 1    
    59   28  153 1    
    60   29   30 am   BACKBONE|DICT|INTERRES
    61   29  154 1    
    62   30   31 2    
    63   30   32 1    
    64   32   33 1    
    65   32   34 1    
    66   32  155 1    
    67   33  156 1    
    68   33  157 1    
    69   33  158 1    
    70   34   35 am   BACKBONE|DICT|INTERRES
    71   34  159 1    
    72   35   36 2    
    73   35   37 1    
    74   37   38 1    
    75   37   39 1    
    76   37  160 1    
    77   38  161 1    
    78   38  162 1    
    79   38  163 1    
    80   39   40 am   BACKBONE|DICT|INTERRES
    81   39  164 1    
    82   40   41 2    
    83   40   42 1    
    84   42   43 1    
    85   42   44 1    
    86   42  165 1    
    87   43  166 1    
    88   43  167 1    
    89   43  168 1    
    90   44   45 am   BACKBONE|DICT|INTERRES
    91   44  169 1    
    92   45   46 2    
    93   45   47 1    
    94   47   48 1    
    95   47   49 1    
    96   47  170 1    
    97   48  171 1    
    98   48  172 1    
    99   48  173 1    
   100   49   50 am   BACKBONE|DICT|INTERRES
   101   49  174 1    
   102   50   51 2    
   103   50   52 1    
   104   52   53 1    
   105   52   54 1    
   106   52  175 1    
   107   53  176 1    
   108   53  177 1    
   109   53  178 1    
   110   54   55 am   BACKBONE|DICT|INTERRES
   111   54  179 1    
   112   55   56 2    
   113   55   57 1    
   114   57   58 1    
   115   57   59 1    
   116   57  180 1    
   117   58  181 1    
   118   58  182 1    
   119   58  183 1    
   120   59   60 am   BACKBONE|DICT|INTERRES
   121   59  184 1    
   122   60   61 2    
   123   60   62 1    
   124   62   63 1    
   125   62   64 1    
   126   62  185 1    
   127   63  186 1    
   128   63  187 1    
   129   63  188 1    
   130   64   65 am   BACKBONE|DICT|INTERRES
   131   64  189 1    
   132   65   66 2    
   133   67   68 2    
   134   67   69 am   BACKBONE|DICT|INTERRES
   135   69   70 1    
   136   69  190 1    
   137   70   71 1    
   138   70   72 1    
   139   70  191 1    
   140   71  192 1    
   141   71  193 1    
   142   71  194 1    
   143   72   73 2    
   144   72   74 am   BACKBONE|DICT|INTERRES
   145   74   75 1    
   146   74  195 1    
   147   75   76 1    
   148   75   77 1    
   149   75  196 1    
   150   76  197 1    
   151   76  198 1    
   152   76  199 1    
   153   77   78 2    
   154   77   79 am   BACKBONE|DICT|INTERRES
   155   79   80 1    
   156   79  200 1    
   157   80   81 1    
   158   80   82 1    
   159   80  201 1    
   160   81  202 1    
   161   81  203 1    
   162   81  204 1    
   163   82   83 2    
   164   82   84 am   BACKBONE|DICT|INTERRES
   165   84   85 1    
   166   84  205 1    
   167   85   86 1    
   168   85   87 1    
   169   85  206 1    
   170   86  207 1    
   171   86  208 1    
   172   86  209 1    
   173   87   88 2    
   174   87   89 am   BACKBONE|DICT|INTERRES
   175   89   90 1    
   176   89  210 1    
   177   90   91 1    
   178   90   92 1    
   179   90  211 1    
   180   91  212 1    
   181   91  213 1    
   182   91  214 1    
   183   92   93 2    
   184   92   94 am   BACKBONE|DICT|INTERRES
   185   94   95 1    
   186   94  215 1    
   187   95   96 1    
   188   95   97 1    
   189   95  216 1    
   190   96  217 1    
   191   96  218 1    
   192   96  219 1    
   193   97   98 2    
   194   97   99 am   BACKBONE|DICT|INTERRES
   195   99  100 1    
   196   99  220 1    
   197  100  101 1    
   198  100  102 1    
   199  100  221 1    
   200  101  222 1    
   201  101  223 1    
   202  101  224 1    
   203  102  103 2    
   204  102  104 am   BACKBONE|DICT|INTERRES
   205  104  105 1    
   206  104  225 1    
   207  105  106 1    
   208  105  107 1    
   209  105  226 1    
   210  106  227 1    
   211  106  228 1    
   212  106  229 1    
   213  107  108 2    
   214  107  109 am   BACKBONE|DICT|INTERRES
   215  109  110 1    
   216  109  230 1    
   217  110  111 1    
   218  110  112 1    
   219  110  231 1    
   220  111  232 1    
   221  111  233 1    
   222  111  234 1    
   223  112  113 2    
   224  112  114 am   BACKBONE|DICT|INTERRES
   225  114  115 1    
   226  114  235 1    
   227  115  116 1    
   228  115  117 1    
   229  115  236 1    
   230  116  237 1    
   231  116  238 1    
   232  116  239 1    
   233  117  118 2    
   234  117  119 am   BACKBONE|DICT|INTERRES
   235  119  120 1    
   236  119  240 1    
   237  120  121 1    
   238  120  124 1    
   239  120  241 1    
   240  121  122 am   BACKBONE|DICT|INTERRES
   241  121  123 2    
   242  122  242 1    
   243  122  243 1    
   244  124  125 1    
   245  124  244 1    
   246  124  245 1    
   247  125  126 1    
   248  126  246 1    
   249  126  247 1    
@<TRIPOS>SUBSTRUCTURE
     1 UNK         1 GROUP             0       ****    0 ROOT    
