@<TRIPOS>MOLECULE
3R540
247   249    1
SMALL
USER_CHARGES


@<TRIPOS>ATOM
      1 CA         -1.3338  -13.6883  -43.2055 C.3       0 UNK        -0.1800 
      2 C          -1.2181  -13.6904  -44.7224 C.2       0 UNK         0.5000 
      3 O          -0.1077  -13.6590  -45.2496 O.2       0 UNK        -0.5000 
      4 N          -2.3564  -13.6978  -45.4345 N.am      1 UNK        -0.5000 
      5 CA         -2.4652  -13.8078  -46.9024 C.3       1 UNK         0.1400 
      6 C6         -1.8223  -15.1306  -47.4129 C.3       23 UNK        -0.0398 
      7 S7         -2.5632  -15.7849  -48.9486 S.3       23 UNK        -0.2404 
      8 C8         -1.1801  -15.6123  -50.1280 C.3       23 UNK        -0.0205 
      9 C9         -0.2940  -16.8527  -50.2038 C.ar      23 UNK        -0.0193 
     10 C10        -0.0920  -17.4889  -51.4323 C.ar      23 UNK        -0.1150 
     11 C11         0.7189  -18.6244  -51.5280 C.ar      23 UNK        -0.0193 
     12 C12         1.3248  -19.1284  -50.3726 C.ar      23 UNK        -0.1150 
     13 C13         1.1550  -18.4938  -49.1383 C.ar      23 UNK        -0.0193 
     14 C14         0.3554  -17.3483  -49.0684 C.ar      23 UNK        -0.1150 
     15 C15         1.8707  -19.0439  -47.9038 C.3       23 UNK        -0.0205 
     16 S16         0.9199  -18.9291  -46.3467 S.3       23 UNK        -0.2404 
     17 C17        -0.5700  -19.8939  -46.7539 C.3       23 UNK        -0.0398 
     18 CA         -0.4579  -21.3824  -46.3554 C.3       11 UNK         0.1400 
     19 N          -0.3473  -21.5886  -44.9076 N.am      11 UNK        -0.5000 
     20 C          -0.1589  -22.7790  -44.3184 C.2       10 UNK         0.5000 
     21 O           0.0151  -23.8290  -44.9349 O.2       10 UNK        -0.5000 
     22 CA         -0.2632  -22.8207  -42.7862 C.3       10 UNK         0.1400 
     23 CB          1.0405  -22.3550  -42.1199 C.3       10 UNK        -0.1800 
     24 N          -1.3917  -22.0200  -42.3123 N.am      10 UNK        -0.5000 
     25 C          -2.6771  -22.3683  -42.4706 C.2       9 UNK         0.5000 
     26 O          -3.0372  -23.4295  -42.9811 O.2       9 UNK        -0.5000 
     27 CA         -3.7374  -21.3483  -42.0117 C.3       9 UNK         0.1400 
     28 CB         -4.0599  -21.5409  -40.5225 C.3       9 UNK        -0.1800 
     29 N          -3.3308  -19.9606  -42.2410 N.am      9 UNK        -0.5000 
     30 C          -3.1907  -19.3997  -43.4507 C.2       8 UNK         0.5000 
     31 O          -3.4348  -19.9825  -44.5056 O.2       8 UNK        -0.5000 
     32 CA         -2.6194  -17.9684  -43.4903 C.3       8 UNK         0.1400 
     33 CB         -3.7445  -16.9305  -43.3723 C.3       8 UNK        -0.1800 
     34 N          -1.6050  -17.7163  -42.4600 N.am      8 UNK        -0.5000 
     35 C          -0.4583  -18.4014  -42.3573 C.2       7 UNK         0.5000 
     36 O          -0.1676  -19.3483  -43.0902 O.2       7 UNK        -0.5000 
     37 CA          0.4881  -18.0164  -41.2060 C.3       7 UNK         0.1400 
     38 CB          0.1221  -18.8030  -39.9377 C.3       7 UNK        -0.1800 
     39 N           1.8842  -18.2949  -41.5476 N.am      7 UNK        -0.5000 
     40 C           2.5669  -17.6363  -42.4908 C.2       6 UNK         0.5000 
     41 O           2.1265  -16.6467  -43.0846 O.2       6 UNK        -0.5000 
     42 CA          3.9716  -18.1669  -42.8228 C.3       6 UNK         0.1400 
     43 CB          3.9096  -19.5131  -43.5654 C.3       6 UNK        -0.1800 
     44 N           4.6193  -17.1769  -43.6691 N.am      6 UNK        -0.5000 
     45 C           5.9089  -16.8271  -43.6705 C.2       5 UNK         0.5000 
     46 O           6.7830  -17.4159  -43.0335 O.2       5 UNK        -0.5000 
     47 CA          6.2718  -15.5846  -44.5112 C.3       5 UNK         0.1400 
     48 CB          6.8146  -16.0014  -45.8865 C.3       5 UNK        -0.1800 
     49 N           5.1167  -14.7036  -44.7042 N.am      5 UNK        -0.5000 
     50 C           4.5803  -13.9187  -43.7627 C.2       4 UNK         0.5000 
     51 O           5.1273  -13.7013  -42.6799 O.2       4 UNK        -0.5000 
     52 CA          3.1911  -13.3110  -44.0686 C.3       4 UNK         0.1400 
     53 CB          2.7733  -12.2371  -43.0477 C.3       4 UNK        -0.1800 
     54 N           3.0353  -12.7547  -45.4155 N.am      4 UNK        -0.5000 
     55 C           2.9287  -13.4438  -46.5598 C.2       3 UNK         0.5000 
     56 O           3.1275  -14.6565  -46.6532 O.2       3 UNK        -0.5000 
     57 CA          2.4584  -12.6330  -47.7762 C.3       3 UNK         0.1400 
     58 CB          2.2671  -13.4937  -49.0406 C.3       3 UNK        -0.1800 
     59 N           1.1986  -11.9913  -47.4145 N.am      3 UNK        -0.5000 
     60 C           0.7094  -10.8544  -47.9263 C.2       2 UNK         0.5000 
     61 O           1.3050  -10.1771  -48.7658 O.2       2 UNK        -0.5000 
     62 CA         -0.6748  -10.4005  -47.4003 C.3       2 UNK         0.1400 
     63 CB         -1.4420   -9.5104  -48.4007 C.3       2 UNK        -0.1800 
     64 N          -1.5001  -11.5255  -46.9391 N.am      2 UNK        -0.5000 
     65 C          -1.9306  -12.5667  -47.6703 C.2       1 UNK         0.5000 
     66 O          -1.8871  -12.5835  -48.9000 O.2       1 UNK        -0.5000 
     67 C          -1.6390  -22.1684  -46.9544 C.2       11 UNK         0.5000 
     68 O          -1.4720  -22.8066  -47.9921 O.2       11 UNK        -0.5000 
     69 N          -2.8008  -22.1357  -46.2854 N.am      12 UNK        -0.5000 
     70 CA         -4.0015  -22.8637  -46.6917 C.3       12 UNK         0.1400 
     71 CB         -5.1864  -22.4762  -45.7969 C.3       12 UNK        -0.1800 
     72 C          -3.8057  -24.3889  -46.7205 C.2       12 UNK         0.5000 
     73 O          -4.3107  -25.0394  -47.6356 O.2       12 UNK        -0.5000 
     74 N          -3.0516  -24.9220  -45.7520 N.am      13 UNK        -0.5000 
     75 CA         -2.6623  -26.3281  -45.7031 C.3       13 UNK         0.1400 
     76 CB         -2.1572  -26.6685  -44.2921 C.3       13 UNK        -0.1800 
     77 C          -1.6068  -26.6801  -46.7686 C.2       13 UNK         0.5000 
     78 O          -1.7728  -27.6693  -47.4828 O.2       13 UNK        -0.5000 
     79 N          -0.5381  -25.8759  -46.8474 N.am      14 UNK        -0.5000 
     80 CA          0.6337  -26.1365  -47.6837 C.3       14 UNK         0.1400 
     81 CB          1.8029  -25.2602  -47.2073 C.3       14 UNK        -0.1800 
     82 C           0.3901  -25.9260  -49.1874 C.2       14 UNK         0.5000 
     83 O           0.8288  -26.7514  -49.9895 O.2       14 UNK        -0.5000 
     84 N          -0.2777  -24.8224  -49.5446 N.am      15 UNK        -0.5000 
     85 CA         -0.4670  -24.3769  -50.9272 C.3       15 UNK         0.1400 
     86 CB         -0.1224  -22.8803  -51.0176 C.3       15 UNK        -0.1800 
     87 C          -1.8814  -24.6665  -51.4645 C.2       15 UNK         0.5000 
     88 O          -2.1784  -24.2630  -52.5879 O.2       15 UNK        -0.5000 
     89 N          -2.7102  -25.3693  -50.6756 N.am      16 UNK        -0.5000 
     90 CA         -4.0815  -25.7992  -50.9730 C.3       16 UNK         0.1400 
     91 CB         -4.1158  -26.7660  -52.1756 C.3       16 UNK        -0.1800 
     92 C          -5.0369  -24.6015  -51.1394 C.2       16 UNK         0.5000 
     93 O          -5.3766  -24.2186  -52.2583 O.2       16 UNK        -0.5000 
     94 N          -5.4359  -24.0310  -49.9960 N.am      17 UNK        -0.5000 
     95 CA         -6.3217  -22.8711  -49.8293 C.3       17 UNK         0.1400 
     96 CB         -7.7012  -23.1004  -50.4823 C.3       17 UNK        -0.1800 
     97 C          -5.6744  -21.5227  -50.2143 C.2       17 UNK         0.5000 
     98 O          -6.3896  -20.5379  -50.4093 O.2       17 UNK        -0.5000 
     99 N          -4.3325  -21.4895  -50.2523 N.am      18 UNK        -0.5000 
    100 CA        -3.4758  -20.3118  -50.4215 C.3       18 UNK         0.1400 
    101 CB        -3.4839  -19.4727  -49.1250 C.3       18 UNK        -0.1800 
    102 C         -3.8318  -19.5123  -51.6909 C.2       18 UNK         0.5000 
    103 O         -3.7590  -20.0707  -52.7857 O.2       18 UNK        -0.5000 
    104 N         -4.2455  -18.2467  -51.5296 N.am      19 UNK        -0.5000 
    105 CA        -4.6397  -17.3074  -52.5847 C.3       19 UNK         0.1400 
    106 CB        -5.1362  -16.0074  -51.9353 C.3       19 UNK        -0.1800 
    107 C         -5.6884  -17.8349  -53.5846 C.2       19 UNK         0.5000 
    108 O         -5.6794  -17.4032  -54.7376 O.2       19 UNK        -0.5000 
    109 N         -6.5418  -18.7765  -53.1556 N.am      20 UNK        -0.5000 
    110 CA        -7.5238  -19.4472  -54.0109 C.3       20 UNK         0.1400 
    111 CB        -8.4675  -20.2845  -53.1369 C.3       20 UNK        -0.1800 
    112 C         -6.8884  -20.3210  -55.1133 C.2       20 UNK         0.5000 
    113 O         -7.5054  -20.4972  -56.1649 O.2       20 UNK        -0.5000 
    114 N         -5.6755  -20.8335  -54.8662 N.am      21 UNK        -0.5000 
    115 CA        -4.8715  -21.5801  -55.8323 C.3       21 UNK         0.1400 
    116 CB        -4.3074  -22.8388  -55.1577 C.3       21 UNK        -0.1800 
    117 C         -3.7306  -20.7132  -56.3889 C.2       21 UNK         0.5000 
    118 O         -3.4544  -20.7758  -57.5878 O.2       21 UNK        -0.5000 
    119 N         -3.0874  -19.9273  -55.5161 N.am      22 UNK        -0.5000 
    120 CA        -1.9477  -19.0580  -55.8459 C.3       22 UNK         0.1400 
    121 C         -2.3028  -17.8207  -56.7205 C.2       22 UNK         0.5000 
    122 N         -3.5382  -17.3354  -56.7311 N.am      22 UNK        -0.7600 
    123 O         -1.4353  -17.2917  -57.4099 O.2       22 UNK        -0.5000 
    124 C124       -1.1817  -18.6163  -54.5740 C.3       23 UNK        -0.0398 
    125 S125       -0.4842  -20.0203  -53.6361 S.3       23 UNK        -0.2404 
    126 C126        0.9967  -19.2759  -52.8792 C.3       23 UNK        -0.0205 
    127 H127       -2.3721  -13.6455  -42.8765 H         1 UNK         0.0600 
    128 H128       -0.8090  -12.8277  -42.7910 H         1 UNK         0.0600 
    129 H129       -0.8809  -14.5923  -42.7980 H         1 UNK         0.0600 
    130 H130       -3.2398  -13.6746  -44.9437 H         1 UNK         0.3000 
    131 H131       -3.5359  -13.8485  -47.1075 H         1 UNK         0.0600 
    132 H132       -1.9442  -15.9166  -46.6661 H         1 UNK         0.0800 
    133 H133       -0.7454  -15.0024  -47.5257 H         1 UNK         0.0800 
    134 H134       -0.5724  -14.7428  -49.8780 H         1 UNK         0.0800 
    135 H135       -1.6112  -15.3993  -51.1072 H         1 UNK         0.0800 
    136 H136       -0.5530  -17.0852  -52.3204 H         1 UNK         0.1150 
    137 H137        1.9560  -20.0035  -50.4391 H         1 UNK         0.1150 
    138 H138        0.2382  -16.8499  -48.1200 H         1 UNK         0.1150 
    139 H139        2.1433  -20.0889  -48.0590 H         1 UNK         0.0800 
    140 H140        2.8055  -18.4966  -47.7770 H         1 UNK         0.0800 
    141 H141       -0.7684  -19.7976  -47.8220 H         1 UNK         0.0800 
    142 H142       -1.4186  -19.4268  -46.2532 H         1 UNK         0.0800 
    143 H143        0.4510  -21.7847  -46.8077 H         1 UNK         0.0600 
    144 H144       -0.4212  -20.7607  -44.3210 H         1 UNK         0.3000 
    145 H145       -0.4346  -23.8587  -42.4921 H         1 UNK         0.0600 
    146 H146        0.9687  -22.4074  -41.0335 H         1 UNK         0.0600 
    147 H147        1.8757  -22.9881  -42.4216 H         1 UNK         0.0600 
    148 H148        1.2966  -21.3317  -42.3901 H         1 UNK         0.0600 
    149 H149       -1.1756  -21.0970  -41.9655 H         1 UNK         0.3000 
    150 H150       -4.6483  -21.5345  -42.5844 H         1 UNK         0.0600 
    151 H151       -4.3861  -22.5626  -40.3232 H         1 UNK         0.0600 
    152 H152       -4.8635  -20.8767  -40.2039 H         1 UNK         0.0600 
    153 H153       -3.1913  -21.3446  -39.8926 H         1 UNK         0.0600 
    154 H154       -3.1071  -19.4090  -41.4262 H         1 UNK         0.3000 
    155 H155       -2.1387  -17.8359  -44.4619 H         1 UNK         0.0600 
    156 H156       -4.2414  -16.9821  -42.4028 H         1 UNK         0.0600 
    157 H157       -4.5033  -17.0893  -44.1398 H         1 UNK         0.0600 
    158 H158       -3.3629  -15.9186  -43.5017 H         1 UNK         0.0600 
    159 H159       -1.7956  -16.9693  -41.8083 H         1 UNK         0.3000 
    160 H160        0.3847  -16.9480  -41.0049 H         1 UNK         0.0600 
    161 H161        0.2164  -19.8793  -40.0886 H         1 UNK         0.0600 
    162 H162       -0.9060  -18.6029  -39.6336 H         1 UNK         0.0600 
    163 H163        0.7651  -18.5247  -39.1025 H         1 UNK         0.0600 
    164 H164        2.2985  -19.1088  -41.1186 H         1 UNK         0.3000 
    165 H165        4.5277  -18.2802  -41.8900 H         1 UNK         0.0600 
    166 H166        4.9062  -19.8568  -43.8426 H         1 UNK         0.0600 
    167 H167        3.4626  -20.2873  -42.9419 H         1 UNK         0.0600 
    168 H168        3.3152  -19.4412  -44.4769 H         1 UNK         0.0600 
    169 H169        3.9618  -16.5947  -44.1734 H         1 UNK         0.3000 
    170 H170        7.0524  -15.0345  -43.9817 H         1 UNK         0.0600 
    171 H171        7.6879  -16.6465  -45.7826 H         1 UNK         0.0600 
    172 H172        6.0679  -16.5479  -46.4644 H         1 UNK         0.0600 
    173 H173        7.1196  -15.1322  -46.4694 H         1 UNK         0.0600 
    174 H174        4.5771  -14.8297  -45.5581 H         1 UNK         0.3000 
    175 H175        2.4766  -14.1312  -43.9771 H         1 UNK         0.0600 
    176 H176        3.4429  -11.3768  -43.0731 H         1 UNK         0.0600 
    177 H177        1.7605  -11.8831  -43.2421 H         1 UNK         0.0600 
    178 H178        2.7821  -12.6342  -42.0318 H         1 UNK         0.0600 
    179 H179        2.8727  -11.7593  -45.4557 H         1 UNK         0.3000 
    180 H180        3.2155  -11.8721  -47.9762 H         1 UNK         0.0600 
    181 H181        1.5455  -14.2935  -48.8725 H         1 UNK         0.0600 
    182 H182        3.2067  -13.9577  -49.3423 H         1 UNK         0.0600 
    183 H183        1.9148  -12.8953  -49.8808 H         1 UNK         0.0600 
    184 H184        0.6644  -12.4804  -46.7003 H         1 UNK         0.3000 
    185 H185       -0.4724   -9.7951  -46.5157 H         1 UNK         0.0600 
    186 H186       -1.5975  -10.0107  -49.3566 H         1 UNK         0.0600 
    187 H187       -2.4178   -9.2254  -48.0075 H         1 UNK         0.0600 
    188 H188       -0.8933   -8.5898  -48.6027 H         1 UNK         0.0600 
    189 H189       -1.5959  -11.6085  -45.9369 H         1 UNK         0.3000 
    190 H190       -2.8907  -21.5279  -45.4756 H         1 UNK         0.3000 
    191 H191       -4.2341  -22.5473  -47.7071 H         1 UNK         0.0600 
    192 H192       -5.0013  -22.7272  -44.7529 H         1 UNK         0.0600 
    193 H193       -6.0947  -22.9965  -46.1030 H         1 UNK         0.0600 
    194 H194       -5.3903  -21.4069  -45.8548 H         1 UNK         0.0600 
    195 H195       -2.7001  -24.3203  -45.0172 H         1 UNK         0.3000 
    196 H196       -3.5483  -26.9368  -45.8966 H         1 UNK         0.0600 
    197 H197       -1.8754  -27.7197  -44.2211 H         1 UNK         0.0600 
    198 H198       -2.9295  -26.4867  -43.5444 H         1 UNK         0.0600 
    199 H199       -1.2846  -26.0747  -44.0184 H         1 UNK         0.0600 
    200 H200       -0.4659  -25.0883  -46.2067 H         1 UNK         0.3000 
    201 H201        0.9219  -27.1802  -47.5406 H         1 UNK         0.0600 
    202 H202        2.0503  -25.4661  -46.1657 H         1 UNK         0.0600 
    203 H203        1.5695  -24.1979  -47.2911 H         1 UNK         0.0600 
    204 H204        2.7004  -25.4479  -47.7979 H         1 UNK         0.0600 
    205 H205       -0.6369  -24.1944  -48.8272 H         1 UNK         0.3000 
    206 H206        0.2250  -24.9049  -51.5863 H         1 UNK         0.0600 
    207 H207        0.8864  -22.6833  -50.6549 H         1 UNK         0.0600 
    208 H208       -0.1672  -22.5319  -52.0494 H         1 UNK         0.0600 
    209 H209       -0.8104  -22.2692  -50.4368 H         1 UNK         0.0600 
    210 H210       -2.3601  -25.6331  -49.7652 H         1 UNK         0.3000 
    211 H211       -4.4210  -26.3639  -50.1032 H         1 UNK         0.0600 
    212 H212       -3.8056  -26.2838  -53.1031 H         1 UNK         0.0600 
    213 H213       -5.1244  -27.1494  -52.3331 H         1 UNK         0.0600 
    214 H214       -3.4637  -27.6234  -52.0098 H         1 UNK         0.0600 
    215 H215       -5.0841  -24.4381  -49.1298 H         1 UNK         0.3000 
    216 H216       -6.4991  -22.7994  -48.7557 H         1 UNK         0.0600 
    217 H217       -8.3909  -22.2915  -50.2387 H         1 UNK         0.0600 
    218 H218       -8.1536  -24.0263  -50.1275 H         1 UNK         0.0600 
    219 H219       -7.6371  -23.1560  -51.5684 H         1 UNK         0.0600 
    220 H220       -3.8469  -22.3676  -50.1447 H         1 UNK         0.3000 
    221 H221       -2.4610  -20.6793  -50.5717 H         1 UNK         0.0600 
    222 H222       -4.4531  -19.0109  -48.9331 H         1 UNK         0.0600 
    223 H223       -3.2476  -20.0876  -48.2590 H         1 UNK         0.0600 
    224 H224       -2.7323  -18.6850  -49.1692 H         1 UNK         0.0600 
    225 H225       -4.2888  -17.8876  -50.5869 H         1 UNK         0.3000 
    226 H226       -3.7442  -17.0704  -53.1592 H         1 UNK         0.0600 
    227 H227       -4.3510  -15.5340  -51.3468 H         1 UNK         0.0600 
    228 H228       -5.4486  -15.2850  -52.6908 H         1 UNK         0.0600 
    229 H229       -5.9888  -16.1863  -51.2790 H         1 UNK         0.0600 
    230 H230       -6.4651  -19.1093  -52.2016 H         1 UNK         0.3000 
    231 H231       -8.1165  -18.6749  -54.5056 H         1 UNK         0.0600 
    232 H232       -7.9297  -21.0843  -52.6302 H         1 UNK         0.0600 
    233 H233       -9.2520  -20.7459  -53.7381 H         1 UNK         0.0600 
    234 H234       -8.9545  -19.6726  -52.3775 H         1 UNK         0.0600 
    235 H235       -5.2212  -20.6130  -53.9855 H         1 UNK         0.3000 
    236 H236       -5.4853  -21.9013  -56.6762 H         1 UNK         0.0600 
    237 H237       -5.1095  -23.5126  -54.8573 H         1 UNK         0.0600 
    238 H238       -3.6558  -23.3919  -55.8350 H         1 UNK         0.0600 
    239 H239       -3.7262  -22.5951  -54.2670 H         1 UNK         0.0600 
    240 H240       -3.3380  -19.9750  -54.5309 H         1 UNK         0.3000 
    241 H241       -1.2580  -19.6555  -56.4455 H         1 UNK         0.0600 
    242 H242       -3.7441  -16.5384  -57.3118 H         1 UNK         0.3800 
    243 H243       -4.2626  -17.7012  -56.1238 H         1 UNK         0.3800 
    244 H244       -1.8441  -18.0585  -53.9147 H         1 UNK         0.0800 
    245 H245       -0.3697  -17.9383  -54.8418 H         1 UNK         0.0800 
    246 H246        1.7410  -20.0656  -52.7663 H         1 UNK         0.0800 
    247 H247        1.4440  -18.5442  -53.5527 H         1 UNK         0.0800 
@<TRIPOS>BOND
     1    1    2 1    
     2    1  127 1    
     3    1  128 1    
     4    1  129 1    
     5    2    3 2    
     6    2    4 am   BACKBONE|DICT|INTERRES
     7    4    5 1    
     8    4  130 1    
     9    5    6 1    
    10    5   65 1    
    11    5  131 1    
    12    6    7 1    
    13    6  132 1    
    14    6  133 1    
    15    7    8 1    
    16    8    9 1    
    17    8  134 1    
    18    8  135 1    
    19    9   10 ar   
    20    9   14 ar   
    21   10   11 ar   
    22   10  136 1    
    23   11   12 ar   
    24   11  126 1    
    25   12   13 ar   
    26   12  137 1    
    27   13   14 ar   
    28   13   15 1    
    29   14  138 1    
    30   15   16 1    
    31   15  139 1    
    32   15  140 1    
    33   16   17 1    
    34   17   18 1    
    35   17  141 1    
    36   17  142 1    
    37   18   19 1    
    38   18   67 1    
    39   18  143 1    
    40   19   20 am   BACKBONE|DICT|INTERRES
    41   19  144 1    
    42   20   21 2    
    43   20   22 1    
    44   22   23 1    
    45   22   24 1    
    46   22  145 1    
    47   23  146 1    
    48   23  147 1    
    49   23  148 1    
    50   24   25 am   BACKBONE|DICT|INTERRES
    51   24  149 1    
    52   25   26 2    
    53   25   27 1    
    54   27   28 1    
    55   27   29 1    
    56   27  150 1    
    57   28  151 1    
    58   28  152 1    
    59   28  153 1    
    60   29   30 am   BACKBONE|DICT|INTERRES
    61   29  154 1    
    62   30   31 2    
    63   30   32 1    
    64   32   33 1    
    65   32   34 1    
    66   32  155 1    
    67   33  156 1    
    68   33  157 1    
    69   33  158 1    
    70   34   35 am   BACKBONE|DICT|INTERRES
    71   34  159 1    
    72   35   36 2    
    73   35   37 1    
    74   37   38 1    
    75   37   39 1    
    76   37  160 1    
    77   38  161 1    
    78   38  162 1    
    79   38  163 1    
    80   39   40 am   BACKBONE|DICT|INTERRES
    81   39  164 1    
    82   40   41 2    
    83   40   42 1    
    84   42   43 1    
    85   42   44 1    
    86   42  165 1    
    87   43  166 1    
    88   43  167 1    
    89   43  168 1    
    90   44   45 am   BACKBONE|DICT|INTERRES
    91   44  169 1    
    92   45   46 2    
    93   45   47 1    
    94   47   48 1    
    95   47   49 1    
    96   47  170 1    
    97   48  171 1    
    98   48  172 1    
    99   48  173 1    
   100   49   50 am   BACKBONE|DICT|INTERRES
   101   49  174 1    
   102   50   51 2    
   103   50   52 1    
   104   52   53 1    
   105   52   54 1    
   106   52  175 1    
   107   53  176 1    
   108   53  177 1    
   109   53  178 1    
   110   54   55 am   BACKBONE|DICT|INTERRES
   111   54  179 1    
   112   55   56 2    
   113   55   57 1    
   114   57   58 1    
   115   57   59 1    
   116   57  180 1    
   117   58  181 1    
   118   58  182 1    
   119   58  183 1    
   120   59   60 am   BACKBONE|DICT|INTERRES
   121   59  184 1    
   122   60   61 2    
   123   60   62 1    
   124   62   63 1    
   125   62   64 1    
   126   62  185 1    
   127   63  186 1    
   128   63  187 1    
   129   63  188 1    
   130   64   65 am   BACKBONE|DICT|INTERRES
   131   64  189 1    
   132   65   66 2    
   133   67   68 2    
   134   67   69 am   BACKBONE|DICT|INTERRES
   135   69   70 1    
   136   69  190 1    
   137   70   71 1    
   138   70   72 1    
   139   70  191 1    
   140   71  192 1    
   141   71  193 1    
   142   71  194 1    
   143   72   73 2    
   144   72   74 am   BACKBONE|DICT|INTERRES
   145   74   75 1    
   146   74  195 1    
   147   75   76 1    
   148   75   77 1    
   149   75  196 1    
   150   76  197 1    
   151   76  198 1    
   152   76  199 1    
   153   77   78 2    
   154   77   79 am   BACKBONE|DICT|INTERRES
   155   79   80 1    
   156   79  200 1    
   157   80   81 1    
   158   80   82 1    
   159   80  201 1    
   160   81  202 1    
   161   81  203 1    
   162   81  204 1    
   163   82   83 2    
   164   82   84 am   BACKBONE|DICT|INTERRES
   165   84   85 1    
   166   84  205 1    
   167   85   86 1    
   168   85   87 1    
   169   85  206 1    
   170   86  207 1    
   171   86  208 1    
   172   86  209 1    
   173   87   88 2    
   174   87   89 am   BACKBONE|DICT|INTERRES
   175   89   90 1    
   176   89  210 1    
   177   90   91 1    
   178   90   92 1    
   179   90  211 1    
   180   91  212 1    
   181   91  213 1    
   182   91  214 1    
   183   92   93 2    
   184   92   94 am   BACKBONE|DICT|INTERRES
   185   94   95 1    
   186   94  215 1    
   187   95   96 1    
   188   95   97 1    
   189   95  216 1    
   190   96  217 1    
   191   96  218 1    
   192   96  219 1    
   193   97   98 2    
   194   97   99 am   BACKBONE|DICT|INTERRES
   195   99  100 1    
   196   99  220 1    
   197  100  101 1    
   198  100  102 1    
   199  100  221 1    
   200  101  222 1    
   201  101  223 1    
   202  101  224 1    
   203  102  103 2    
   204  102  104 am   BACKBONE|DICT|INTERRES
   205  104  105 1    
   206  104  225 1    
   207  105  106 1    
   208  105  107 1    
   209  105  226 1    
   210  106  227 1    
   211  106  228 1    
   212  106  229 1    
   213  107  108 2    
   214  107  109 am   BACKBONE|DICT|INTERRES
   215  109  110 1    
   216  109  230 1    
   217  110  111 1    
   218  110  112 1    
   219  110  231 1    
   220  111  232 1    
   221  111  233 1    
   222  111  234 1    
   223  112  113 2    
   224  112  114 am   BACKBONE|DICT|INTERRES
   225  114  115 1    
   226  114  235 1    
   227  115  116 1    
   228  115  117 1    
   229  115  236 1    
   230  116  237 1    
   231  116  238 1    
   232  116  239 1    
   233  117  118 2    
   234  117  119 am   BACKBONE|DICT|INTERRES
   235  119  120 1    
   236  119  240 1    
   237  120  121 1    
   238  120  124 1    
   239  120  241 1    
   240  121  122 am   BACKBONE|DICT|INTERRES
   241  121  123 2    
   242  122  242 1    
   243  122  243 1    
   244  124  125 1    
   245  124  244 1    
   246  124  245 1    
   247  125  126 1    
   248  126  246 1    
   249  126  247 1    
@<TRIPOS>SUBSTRUCTURE
     1 UNK         1 GROUP             0       ****    0 ROOT    
