@<TRIPOS>MOLECULE
3R540
247   249    1
SMALL
USER_CHARGES


@<TRIPOS>ATOM
      1 CA          3.8448  -13.5385  -47.7963 C.3       0 UNK        -0.1800 
      2 C           4.1842  -14.6837  -46.8532 C.2       0 UNK         0.5000 
      3 O           4.4123  -14.4552  -45.6645 O.2       0 UNK        -0.5000 
      4 N           4.2271  -15.9148  -47.3784 N.am      1 UNK        -0.5000 
      5 CA          4.3967  -17.1393  -46.5951 C.3       1 UNK         0.1400 
      6 C6          4.9226  -18.3122  -47.4739 C.3       23 UNK        -0.0398 
      7 S7          3.7435  -19.0475  -48.6638 S.3       23 UNK        -0.2404 
      8 C8          4.1341  -18.1928  -50.2198 C.3       23 UNK        -0.0205 
      9 C9          2.8630  -17.9718  -51.0234 C.ar      23 UNK        -0.0193 
     10 C10         2.6125  -18.6846  -52.2011 C.ar      23 UNK        -0.1150 
     11 C11         1.4304  -18.4711  -52.9212 C.ar      23 UNK        -0.0193 
     12 C12         0.4903  -17.5537  -52.4411 C.ar      23 UNK        -0.1150 
     13 C13         0.7258  -16.8508  -51.2567 C.ar      23 UNK        -0.0193 
     14 C14         1.9215  -17.0486  -50.5662 C.ar      23 UNK        -0.1150 
     15 C15        -0.3137  -15.8891  -50.7085 C.3       23 UNK        -0.0205 
     16 S16        -1.6185  -16.7692  -49.7959 S.3       23 UNK        -0.2404 
     17 C17        -0.7056  -17.4966  -48.3841 C.3       23 UNK        -0.0398 
     18 CA         -0.4965  -19.0337  -48.4719 C.3       11 UNK         0.1400 
     19 N           0.3247  -19.5596  -47.3705 N.am      11 UNK        -0.5000 
     20 C           0.6945  -20.8445  -47.2249 C.2       10 UNK         0.5000 
     21 O           0.4538  -21.7166  -48.0563 O.2       10 UNK        -0.5000 
     22 CA          1.3815  -21.2657  -45.9118 C.3       10 UNK         0.1400 
     23 CB          2.9097  -21.2792  -46.0272 C.3       10 UNK        -0.1800 
     24 N           0.9755  -20.4456  -44.7736 N.am      10 UNK        -0.5000 
     25 C          -0.1905  -20.5977  -44.1324 C.2       9 UNK         0.5000 
     26 O          -1.0191  -21.4647  -44.4140 O.2       9 UNK        -0.5000 
     27 CA         -0.4961  -19.5768  -43.0204 C.3       9 UNK         0.1400 
     28 CB          0.3103  -19.8905  -41.7508 C.3       9 UNK        -0.1800 
     29 N          -0.2601  -18.1862  -43.4286 N.am      9 UNK        -0.5000 
     30 C          -0.9239  -17.5864  -44.4324 C.2       8 UNK         0.5000 
     31 O          -1.7374  -18.1793  -45.1428 O.2       8 UNK        -0.5000 
     32 CA         -0.6659  -16.0942  -44.7082 C.3       8 UNK         0.1400 
     33 CB         -1.9852  -15.2980  -44.7284 C.3       8 UNK        -0.1800 
     34 N           0.2626  -15.4765  -43.7628 N.am      8 UNK        -0.5000 
     35 C           1.0159  -14.4036  -44.0392 C.2       7 UNK         0.5000 
     36 O           1.0691  -13.8750  -45.1512 O.2       7 UNK        -0.5000 
     37 CA          1.8114  -13.8095  -42.8570 C.3       7 UNK         0.1400 
     38 CB          2.3037  -12.3715  -43.1188 C.3       7 UNK        -0.1800 
     39 N           1.0798  -13.8845  -41.5864 N.am      7 UNK        -0.5000 
     40 C          -0.1098  -13.3378  -41.2845 C.2       6 UNK         0.5000 
     41 O          -0.7622  -12.6300  -42.0518 O.2       6 UNK        -0.5000 
     42 CA         -0.6673  -13.6406  -39.8832 C.3       6 UNK         0.1400 
     43 CB         -1.2976  -15.0431  -39.8565 C.3       6 UNK        -0.1800 
     44 N           0.3926  -13.5739  -38.8790 N.am      6 UNK        -0.5000 
     45 C           0.5272  -12.6228  -37.9460 C.2       5 UNK         0.5000 
     46 O          -0.2969  -11.7284  -37.7509 O.2       5 UNK        -0.5000 
     47 CA          1.8150  -12.6656  -37.0936 C.3       5 UNK         0.1400 
     48 CB          1.5906  -13.4970  -35.8215 C.3       5 UNK        -0.1800 
     49 N           2.9674  -13.2062  -37.8202 N.am      5 UNK        -0.5000 
     50 C           3.5278  -12.6314  -38.8930 C.2       4 UNK         0.5000 
     51 O           3.2240  -11.5071  -39.2930 O.2       4 UNK        -0.5000 
     52 CA          4.5862  -13.4385  -39.6764 C.3       4 UNK         0.1400 
     53 CB          5.9933  -12.9033  -39.3682 C.3       4 UNK        -0.1800 
     54 N           4.5960  -14.9001  -39.5080 N.am      4 UNK        -0.5000 
     55 C           3.5617  -15.7466  -39.6088 C.2       3 UNK         0.5000 
     56 O           2.3850  -15.3946  -39.6816 O.2       3 UNK        -0.5000 
     57 CA          3.9232  -17.2362  -39.7254 C.3       3 UNK         0.1400 
     58 CB          2.8118  -18.1621  -39.1872 C.3       3 UNK        -0.1800 
     59 N           4.2677  -17.5603  -41.1152 N.am      3 UNK        -0.5000 
     60 C           3.4640  -17.4972  -42.1875 C.2       2 UNK         0.5000 
     61 O           2.2577  -17.2228  -42.1447 O.2       2 UNK        -0.5000 
     62 CA          4.1163  -17.7941  -43.5502 C.3       2 UNK         0.1400 
     63 CB          4.7712  -19.1871  -43.5840 C.3       2 UNK        -0.1800 
     64 N           3.0505  -17.7253  -44.5408 N.am      2 UNK        -0.5000 
     65 C           3.0701  -17.4287  -45.8422 C.2       1 UNK         0.5000 
     66 O           2.0058  -17.3604  -46.4539 O.2       1 UNK        -0.5000 
     67 C          -1.8447  -19.7756  -48.5495 C.2       11 UNK         0.5000 
     68 O          -2.1904  -20.2882  -49.6113 O.2       11 UNK        -0.5000 
     69 N          -2.5505  -19.8681  -47.4125 N.am      12 UNK        -0.5000 
     70 CA         -3.8305  -20.5667  -47.2880 C.3       12 UNK         0.1400 
     71 CB         -4.3837  -20.3621  -45.8705 C.3       12 UNK        -0.1800 
     72 C          -3.7436  -22.0664  -47.6279 C.2       12 UNK         0.5000 
     73 O          -4.6659  -22.5991  -48.2479 O.2       12 UNK        -0.5000 
     74 N          -2.6287  -22.7041  -47.2445 N.am      13 UNK        -0.5000 
     75 CA         -2.3239  -24.1004  -47.5490 C.3       13 UNK         0.1400 
     76 CB         -1.1792  -24.5875  -46.6474 C.3       13 UNK        -0.1800 
     77 C          -1.9892  -24.3162  -49.0363 C.2       13 UNK         0.5000 
     78 O          -2.5451  -25.2261  -49.6505 O.2       13 UNK        -0.5000 
     79 N          -1.1146  -23.4673  -49.5956 N.am      14 UNK        -0.5000 
     80 CA         -0.6892  -23.4970  -50.9984 C.3       14 UNK         0.1400 
     81 CB          0.4883  -22.5304  -51.1991 C.3       14 UNK        -0.1800 
     82 C          -1.8319  -23.1676  -51.9739 C.2       14 UNK         0.5000 
     83 O          -1.9498  -23.8060  -53.0210 O.2       14 UNK        -0.5000 
     84 N          -2.6789  -22.2033  -51.5934 N.am      15 UNK        -0.5000 
     85 CA         -3.8946  -21.8408  -52.3124 C.3       15 UNK         0.1400 
     86 CB         -4.3612  -20.4493  -51.8616 C.3       15 UNK        -0.1800 
     87 C          -5.0263  -22.8668  -52.1380 C.2       15 UNK         0.5000 
     88 O          -5.9733  -22.8344  -52.9244 O.2       15 UNK        -0.5000 
     89 N          -4.9282  -23.7271  -51.1142 N.am      16 UNK        -0.5000 
     90 CA         -5.9084  -24.7282  -50.6836 C.3       16 UNK         0.1400 
     91 CB         -6.0076  -25.8686  -51.7164 C.3       16 UNK        -0.1800 
     92 C          -7.2704  -24.0823  -50.3664 C.2       16 UNK         0.5000 
     93 O          -8.2952  -24.4967  -50.9072 O.2       16 UNK        -0.5000 
     94 N          -7.2368  -23.0132  -49.5565 N.am      17 UNK        -0.5000 
     95 CA         -8.3642  -22.1253  -49.2367 C.3       17 UNK         0.1400 
     96 CB         -9.3996  -22.8545  -48.3558 C.3       17 UNK        -0.1800 
     97 C          -8.9894  -21.4748  -50.4948 C.2       17 UNK         0.5000 
     98 O         -10.2070  -21.3059  -50.5714 O.2       17 UNK        -0.5000 
     99 N          -8.1209  -21.1444  -51.4620 N.am      18 UNK        -0.5000 
    100 CA        -8.3928  -20.5773  -52.7878 C.3       18 UNK         0.1400 
    101 CB        -9.1607  -19.2427  -52.6904 C.3       18 UNK        -0.1800 
    102 C         -9.0289  -21.5606  -53.7942 C.2       18 UNK         0.5000 
    103 O         -9.4427  -21.1237  -54.8693 O.2       18 UNK        -0.5000 
    104 N         -9.0713  -22.8630  -53.4736 N.am      19 UNK        -0.5000 
    105 CA        -9.5506  -23.9057  -54.3845 C.3       19 UNK         0.1400 
    106 CB        -9.9508  -25.1536  -53.5837 C.3       19 UNK        -0.1800 
    107 C         -8.5140  -24.2735  -55.4633 C.2       19 UNK         0.5000 
    108 O         -8.9063  -24.6046  -56.5831 O.2       19 UNK        -0.5000 
    109 N         -7.2218  -24.2152  -55.1130 N.am      20 UNK        -0.5000 
    110 CA        -6.1017  -24.5162  -56.0077 C.3       20 UNK         0.1400 
    111 CB        -5.0794  -25.3938  -55.2679 C.3       20 UNK        -0.1800 
    112 C         -5.4225  -23.2359  -56.5177 C.2       20 UNK         0.5000 
    113 O         -4.9119  -23.2314  -57.6384 O.2       20 UNK        -0.5000 
    114 N         -5.4075  -22.1843  -55.6826 N.am      21 UNK        -0.5000 
    115 CA        -4.8518  -20.8483  -55.9431 C.3       21 UNK         0.1400 
    116 CB        -5.7550  -20.0902  -56.9367 C.3       21 UNK        -0.1800 
    117 C         -3.3635  -20.8583  -56.3695 C.2       21 UNK         0.5000 
    118 O         -2.9510  -20.0306  -57.1833 O.2       21 UNK        -0.5000 
    119 N         -2.5972  -21.8147  -55.8245 N.am      22 UNK        -0.5000 
    120 CA        -1.1937  -22.1198  -56.1558 C.3       22 UNK         0.1400 
    121 C         -0.9885  -22.7474  -57.5710 C.2       22 UNK         0.5000 
    122 N         -2.0287  -23.1753  -58.2782 N.am      22 UNK        -0.7600 
    123 O          0.1421  -22.8844  -58.0307 O.2       22 UNK        -0.5000 
    124 C124       -0.2098  -20.9442  -55.8847 C.3       23 UNK        -0.0398 
    125 S125       -0.2217  -20.3500  -54.1586 S.3       23 UNK        -0.2404 
    126 C126        1.1841  -19.1942  -54.2385 C.3       23 UNK        -0.0205 
    127 H127        2.9436  -13.0298  -47.4533 H         1 UNK         0.0600 
    128 H128        3.6710  -13.8886  -48.8142 H         1 UNK         0.0600 
    129 H129        4.6596  -12.8150  -47.8182 H         1 UNK         0.0600 
    130 H130        3.9916  -16.0495  -48.3493 H         1 UNK         0.3000 
    131 H131        5.1836  -16.9361  -45.8700 H         1 UNK         0.0600 
    132 H132        5.8157  -17.9942  -48.0136 H         1 UNK         0.0800 
    133 H133        5.2658  -19.1211  -46.8302 H         1 UNK         0.0800 
    134 H134        4.8585  -18.7830  -50.7830 H         1 UNK         0.0800 
    135 H135        4.6041  -17.2290  -50.0221 H         1 UNK         0.0800 
    136 H136        3.3412  -19.3972  -52.5611 H         1 UNK         0.1150 
    137 H137       -0.4303  -17.3953  -52.9854 H         1 UNK         0.1150 
    138 H138        2.1087  -16.5070  -49.6500 H         1 UNK         0.1150 
    139 H139        0.1493  -15.1458  -50.0575 H         1 UNK         0.0800 
    140 H140       -0.7683  -15.3346  -51.5306 H         1 UNK         0.0800 
    141 H141       -1.2629  -17.2408  -47.4852 H         1 UNK         0.0800 
    142 H142        0.2538  -16.9922  -48.2857 H         1 UNK         0.0800 
    143 H143        0.0479  -19.2442  -49.3953 H         1 UNK         0.0600 
    144 H144        0.6429  -18.8798  -46.6914 H         1 UNK         0.3000 
    145 H145        1.0747  -22.2957  -45.7175 H         1 UNK         0.0600 
    146 H146        3.3615  -21.7891  -45.1764 H         1 UNK         0.0600 
    147 H147        3.2336  -21.8005  -46.9290 H         1 UNK         0.0600 
    148 H148        3.3161  -20.2732  -46.0616 H         1 UNK         0.0600 
    149 H149        1.6029  -19.7099  -44.4922 H         1 UNK         0.3000 
    150 H150       -1.5562  -19.6698  -42.7744 H         1 UNK         0.0600 
    151 H151        0.1025  -20.9013  -41.3979 H         1 UNK         0.0600 
    152 H152        0.0533  -19.2061  -40.9424 H         1 UNK         0.0600 
    153 H153        1.3847  -19.8195  -41.9216 H         1 UNK         0.0600 
    154 H154        0.4145  -17.6709  -42.8760 H         1 UNK         0.3000 
    155 H155       -0.2245  -16.0487  -45.7050 H         1 UNK         0.0600 
    156 H156       -2.4673  -15.3018  -43.7502 H         1 UNK         0.0600 
    157 H157       -2.6912  -15.7158  -45.4472 H         1 UNK         0.0600 
    158 H158       -1.8179  -14.2591  -45.0131 H         1 UNK         0.0600 
    159 H159        0.2760  -15.8370  -42.8194 H         1 UNK         0.3000 
    160 H160        2.6933  -14.4405  -42.7391 H         1 UNK         0.0600 
    161 H161        2.8555  -11.9799  -42.2646 H         1 UNK         0.0600 
    162 H162        1.4761  -11.6916  -43.3222 H         1 UNK         0.0600 
    163 H163        2.9726  -12.3404  -43.9799 H         1 UNK         0.0600 
    164 H164        1.5162  -14.4794  -40.8836 H         1 UNK         0.3000 
    165 H165       -1.4491  -12.9094  -39.6676 H         1 UNK         0.0600 
    166 H166       -1.7526  -15.2490  -38.8876 H         1 UNK         0.0600 
    167 H167       -2.0806  -15.1350  -40.6104 H         1 UNK         0.0600 
    168 H168       -0.5596  -15.8231  -40.0502 H         1 UNK         0.0600 
    169 H169        1.1418  -14.2540  -38.9814 H         1 UNK         0.3000 
    170 H170        2.0511  -11.6414  -36.7974 H         1 UNK         0.0600 
    171 H171        0.7521  -13.1067  -35.2431 H         1 UNK         0.0600 
    172 H172        1.3710  -14.5394  -36.0560 H         1 UNK         0.0600 
    173 H173        2.4683  -13.4748  -35.1753 H         1 UNK         0.0600 
    174 H174        3.2711  -14.1344  -37.5659 H         1 UNK         0.3000 
    175 H175        4.3851  -13.2555  -40.7334 H         1 UNK         0.0600 
    176 H176        6.2811  -13.1070  -38.3361 H         1 UNK         0.0600 
    177 H177        6.7408  -13.3536  -40.0216 H         1 UNK         0.0600 
    178 H178        6.0466  -11.8237  -39.5167 H         1 UNK         0.0600 
    179 H179        5.5177  -15.3073  -39.4413 H         1 UNK         0.3000 
    180 H180        4.8164  -17.4131  -39.1242 H         1 UNK         0.0600 
    181 H181        1.8599  -18.0095  -39.6957 H         1 UNK         0.0600 
    182 H182        2.6405  -17.9808  -38.1257 H         1 UNK         0.0600 
    183 H183        3.0847  -19.2112  -39.2994 H         1 UNK         0.0600 
    184 H184        5.2393  -17.7919  -41.2672 H         1 UNK         0.3000 
    185 H185        4.8581  -17.0142  -43.7254 H         1 UNK         0.0600 
    186 H186        5.5830  -19.2641  -42.8605 H         1 UNK         0.0600 
    187 H187        4.0515  -19.9735  -43.3529 H         1 UNK         0.0600 
    188 H188        5.2010  -19.4064  -44.5591 H         1 UNK         0.0600 
    189 H189        2.1508  -17.7183  -44.0827 H         1 UNK         0.3000 
    190 H190       -2.2008  -19.4056  -46.5771 H         1 UNK         0.3000 
    191 H191       -4.5252  -20.1098  -47.9957 H         1 UNK         0.0600 
    192 H192       -3.7094  -20.7663  -45.1144 H         1 UNK         0.0600 
    193 H193       -5.3489  -20.8559  -45.7511 H         1 UNK         0.0600 
    194 H194       -4.5297  -19.3035  -45.6541 H         1 UNK         0.0600 
    195 H195       -1.9267  -22.1817  -46.7391 H         1 UNK         0.3000 
    196 H196       -3.2091  -24.6963  -47.3164 H         1 UNK         0.0600 
    197 H197       -0.9807  -25.6473  -46.8108 H         1 UNK         0.0600 
    198 H198       -1.4258  -24.4607  -45.5930 H         1 UNK         0.0600 
    199 H199       -0.2520  -24.0486  -46.8408 H         1 UNK         0.0600 
    200 H200       -0.6770  -22.7552  -49.0130 H         1 UNK         0.3000 
    201 H201       -0.3425  -24.5079  -51.2215 H         1 UNK         0.0600 
    202 H202        1.3275  -22.7899  -50.5537 H         1 UNK         0.0600 
    203 H203        0.2051  -21.4996  -50.9798 H         1 UNK         0.0600 
    204 H204        0.8479  -22.5605  -52.2281 H         1 UNK         0.0600 
    205 H205       -2.4727  -21.6634  -50.7535 H         1 UNK         0.3000 
    206 H206       -3.6568  -21.7883  -53.3722 H         1 UNK         0.0600 
    207 H207       -3.5700  -19.7099  -51.9903 H         1 UNK         0.0600 
    208 H208       -5.2148  -20.1086  -52.4460 H         1 UNK         0.0600 
    209 H209       -4.6557  -20.4440  -50.8112 H         1 UNK         0.0600 
    210 H210       -4.1069  -23.6587  -50.5283 H         1 UNK         0.3000 
    211 H211       -5.5341  -25.1512  -49.7502 H         1 UNK         0.0600 
    212 H212       -6.6312  -26.6801  -51.3401 H         1 UNK         0.0600 
    213 H213       -5.0255  -26.2868  -51.9373 H         1 UNK         0.0600 
    214 H214       -6.4476  -25.5302  -52.6536 H         1 UNK         0.0600 
    215 H215       -6.3396  -22.7653  -49.1436 H         1 UNK         0.3000 
    216 H216       -7.9494  -21.3066  -48.6470 H         1 UNK         0.0600 
    217 H217      -10.1681  -22.1653  -48.0038 H         1 UNK         0.0600 
    218 H218       -8.9290  -23.2911  -47.4749 H         1 UNK         0.0600 
    219 H219       -9.9030  -23.6548  -48.8989 H         1 UNK         0.0600 
    220 H220       -7.1553  -21.3904  -51.3019 H         1 UNK         0.3000 
    221 H221       -7.4146  -20.3454  -53.2086 H         1 UNK         0.0600 
    222 H222      -10.1942  -19.3891  -52.3763 H         1 UNK         0.0600 
    223 H223       -8.6855  -18.5640  -51.9822 H         1 UNK         0.0600 
    224 H224       -9.1858  -18.7351  -53.6553 H         1 UNK         0.0600 
    225 H225       -8.7138  -23.1690  -52.5761 H         1 UNK         0.3000 
    226 H226      -10.4454  -23.5379  -54.8913 H         1 UNK         0.0600 
    227 H227      -10.6535  -24.9068  -52.7877 H         1 UNK         0.0600 
    228 H228      -10.4327  -25.8893  -54.2286 H         1 UNK         0.0600 
    229 H229       -9.0851  -25.6379  -53.1312 H         1 UNK         0.0600 
    230 H230       -6.9828  -23.8877  -54.1821 H         1 UNK         0.3000 
    231 H231       -6.4509  -25.0742  -56.8789 H         1 UNK         0.0600 
    232 H232       -5.5331  -26.3252  -54.9293 H         1 UNK         0.0600 
    233 H233       -4.6608  -24.8886  -54.3971 H         1 UNK         0.0600 
    234 H234       -4.2473  -25.6580  -55.9218 H         1 UNK         0.0600 
    235 H235       -5.8174  -22.3186  -54.7642 H         1 UNK         0.3000 
    236 H236       -4.8886  -20.3095  -54.9958 H         1 UNK         0.0600 
    237 H237       -5.7337  -20.5450  -57.9276 H         1 UNK         0.0600 
    238 H238       -6.7906  -20.0781  -56.5960 H         1 UNK         0.0600 
    239 H239       -5.4383  -19.0522  -57.0444 H         1 UNK         0.0600 
    240 H240       -3.0276  -22.4653  -55.1848 H         1 UNK         0.3000 
    241 H241       -0.9155  -22.9218  -55.4716 H         1 UNK         0.0600 
    242 H242       -2.9809  -23.0838  -57.9383 H         1 UNK         0.3800 
    243 H243       -1.8678  -23.5872  -59.1835 H         1 UNK         0.3800 
    244 H244        0.8120  -21.2554  -56.1080 H         1 UNK         0.0800 
    245 H245       -0.4180  -20.1042  -56.5481 H         1 UNK         0.0800 
    246 H246        0.9949  -18.4532  -55.0166 H         1 UNK         0.0800 
    247 H247        2.0771  -19.7414  -54.5445 H         1 UNK         0.0800 
@<TRIPOS>BOND
     1    1    2 1    
     2    1  127 1    
     3    1  128 1    
     4    1  129 1    
     5    2    3 2    
     6    2    4 am   BACKBONE|DICT|INTERRES
     7    4    5 1    
     8    4  130 1    
     9    5    6 1    
    10    5   65 1    
    11    5  131 1    
    12    6    7 1    
    13    6  132 1    
    14    6  133 1    
    15    7    8 1    
    16    8    9 1    
    17    8  134 1    
    18    8  135 1    
    19    9   10 ar   
    20    9   14 ar   
    21   10   11 ar   
    22   10  136 1    
    23   11   12 ar   
    24   11  126 1    
    25   12   13 ar   
    26   12  137 1    
    27   13   14 ar   
    28   13   15 1    
    29   14  138 1    
    30   15   16 1    
    31   15  139 1    
    32   15  140 1    
    33   16   17 1    
    34   17   18 1    
    35   17  141 1    
    36   17  142 1    
    37   18   19 1    
    38   18   67 1    
    39   18  143 1    
    40   19   20 am   BACKBONE|DICT|INTERRES
    41   19  144 1    
    42   20   21 2    
    43   20   22 1    
    44   22   23 1    
    45   22   24 1    
    46   22  145 1    
    47   23  146 1    
    48   23  147 1    
    49   23  148 1    
    50   24   25 am   BACKBONE|DICT|INTERRES
    51   24  149 1    
    52   25   26 2    
    53   25   27 1    
    54   27   28 1    
    55   27   29 1    
    56   27  150 1    
    57   28  151 1    
    58   28  152 1    
    59   28  153 1    
    60   29   30 am   BACKBONE|DICT|INTERRES
    61   29  154 1    
    62   30   31 2    
    63   30   32 1    
    64   32   33 1    
    65   32   34 1    
    66   32  155 1    
    67   33  156 1    
    68   33  157 1    
    69   33  158 1    
    70   34   35 am   BACKBONE|DICT|INTERRES
    71   34  159 1    
    72   35   36 2    
    73   35   37 1    
    74   37   38 1    
    75   37   39 1    
    76   37  160 1    
    77   38  161 1    
    78   38  162 1    
    79   38  163 1    
    80   39   40 am   BACKBONE|DICT|INTERRES
    81   39  164 1    
    82   40   41 2    
    83   40   42 1    
    84   42   43 1    
    85   42   44 1    
    86   42  165 1    
    87   43  166 1    
    88   43  167 1    
    89   43  168 1    
    90   44   45 am   BACKBONE|DICT|INTERRES
    91   44  169 1    
    92   45   46 2    
    93   45   47 1    
    94   47   48 1    
    95   47   49 1    
    96   47  170 1    
    97   48  171 1    
    98   48  172 1    
    99   48  173 1    
   100   49   50 am   BACKBONE|DICT|INTERRES
   101   49  174 1    
   102   50   51 2    
   103   50   52 1    
   104   52   53 1    
   105   52   54 1    
   106   52  175 1    
   107   53  176 1    
   108   53  177 1    
   109   53  178 1    
   110   54   55 am   BACKBONE|DICT|INTERRES
   111   54  179 1    
   112   55   56 2    
   113   55   57 1    
   114   57   58 1    
   115   57   59 1    
   116   57  180 1    
   117   58  181 1    
   118   58  182 1    
   119   58  183 1    
   120   59   60 am   BACKBONE|DICT|INTERRES
   121   59  184 1    
   122   60   61 2    
   123   60   62 1    
   124   62   63 1    
   125   62   64 1    
   126   62  185 1    
   127   63  186 1    
   128   63  187 1    
   129   63  188 1    
   130   64   65 am   BACKBONE|DICT|INTERRES
   131   64  189 1    
   132   65   66 2    
   133   67   68 2    
   134   67   69 am   BACKBONE|DICT|INTERRES
   135   69   70 1    
   136   69  190 1    
   137   70   71 1    
   138   70   72 1    
   139   70  191 1    
   140   71  192 1    
   141   71  193 1    
   142   71  194 1    
   143   72   73 2    
   144   72   74 am   BACKBONE|DICT|INTERRES
   145   74   75 1    
   146   74  195 1    
   147   75   76 1    
   148   75   77 1    
   149   75  196 1    
   150   76  197 1    
   151   76  198 1    
   152   76  199 1    
   153   77   78 2    
   154   77   79 am   BACKBONE|DICT|INTERRES
   155   79   80 1    
   156   79  200 1    
   157   80   81 1    
   158   80   82 1    
   159   80  201 1    
   160   81  202 1    
   161   81  203 1    
   162   81  204 1    
   163   82   83 2    
   164   82   84 am   BACKBONE|DICT|INTERRES
   165   84   85 1    
   166   84  205 1    
   167   85   86 1    
   168   85   87 1    
   169   85  206 1    
   170   86  207 1    
   171   86  208 1    
   172   86  209 1    
   173   87   88 2    
   174   87   89 am   BACKBONE|DICT|INTERRES
   175   89   90 1    
   176   89  210 1    
   177   90   91 1    
   178   90   92 1    
   179   90  211 1    
   180   91  212 1    
   181   91  213 1    
   182   91  214 1    
   183   92   93 2    
   184   92   94 am   BACKBONE|DICT|INTERRES
   185   94   95 1    
   186   94  215 1    
   187   95   96 1    
   188   95   97 1    
   189   95  216 1    
   190   96  217 1    
   191   96  218 1    
   192   96  219 1    
   193   97   98 2    
   194   97   99 am   BACKBONE|DICT|INTERRES
   195   99  100 1    
   196   99  220 1    
   197  100  101 1    
   198  100  102 1    
   199  100  221 1    
   200  101  222 1    
   201  101  223 1    
   202  101  224 1    
   203  102  103 2    
   204  102  104 am   BACKBONE|DICT|INTERRES
   205  104  105 1    
   206  104  225 1    
   207  105  106 1    
   208  105  107 1    
   209  105  226 1    
   210  106  227 1    
   211  106  228 1    
   212  106  229 1    
   213  107  108 2    
   214  107  109 am   BACKBONE|DICT|INTERRES
   215  109  110 1    
   216  109  230 1    
   217  110  111 1    
   218  110  112 1    
   219  110  231 1    
   220  111  232 1    
   221  111  233 1    
   222  111  234 1    
   223  112  113 2    
   224  112  114 am   BACKBONE|DICT|INTERRES
   225  114  115 1    
   226  114  235 1    
   227  115  116 1    
   228  115  117 1    
   229  115  236 1    
   230  116  237 1    
   231  116  238 1    
   232  116  239 1    
   233  117  118 2    
   234  117  119 am   BACKBONE|DICT|INTERRES
   235  119  120 1    
   236  119  240 1    
   237  120  121 1    
   238  120  124 1    
   239  120  241 1    
   240  121  122 am   BACKBONE|DICT|INTERRES
   241  121  123 2    
   242  122  242 1    
   243  122  243 1    
   244  124  125 1    
   245  124  244 1    
   246  124  245 1    
   247  125  126 1    
   248  126  246 1    
   249  126  247 1    
@<TRIPOS>SUBSTRUCTURE
     1 UNK         1 GROUP             0       ****    0 ROOT    
