@<TRIPOS>MOLECULE
3R540
247   249    1
SMALL
USER_CHARGES


@<TRIPOS>ATOM
      1 CA          1.1410  -11.8538  -47.8787 C.3       0 UNK        -0.1800 
      2 C           2.4097  -12.6174  -48.2272 C.2       0 UNK         0.5000 
      3 O           3.5112  -12.1220  -47.9911 O.2       0 UNK        -0.5000 
      4 N           2.2617  -13.8326  -48.7709 N.am      1 UNK        -0.5000 
      5 CA          3.3559  -14.7040  -49.2298 C.3       1 UNK         0.1400 
      6 C6          2.8220  -15.9230  -50.0179 C.3       23 UNK        -0.0398 
      7 S7          1.9922  -15.4542  -51.5775 S.3       23 UNK        -0.2404 
      8 C8          0.2219  -15.7190  -51.1966 C.3       23 UNK        -0.0205 
      9 C9         -0.2132  -17.1566  -50.8995 C.ar      23 UNK        -0.0193 
     10 C10        -1.5281  -17.3690  -50.4724 C.ar      23 UNK        -0.1150 
     11 C11        -1.9886  -18.6519  -50.1637 C.ar      23 UNK        -0.0193 
     12 C12        -1.1102  -19.7317  -50.2538 C.ar      23 UNK        -0.1150 
     13 C13         0.2094  -19.5389  -50.6667 C.ar      23 UNK        -0.0193 
     14 C14         0.6433  -18.2594  -51.0173 C.ar      23 UNK        -0.1150 
     15 C15         1.1824  -20.7054  -50.6747 C.3       23 UNK        -0.0205 
     16 S16         2.4217  -20.5884  -49.3358 S.3       23 UNK        -0.2404 
     17 C17         1.4130  -20.2698  -47.8422 C.3       23 UNK        -0.0398 
     18 CA          1.0380  -21.5419  -47.0481 C.3       11 UNK         0.1400 
     19 N           0.6146  -21.2280  -45.6820 N.am      11 UNK        -0.5000 
     20 C           0.6568  -22.1026  -44.6694 C.2       10 UNK         0.5000 
     21 O           1.0911  -23.2504  -44.7722 O.2       10 UNK        -0.5000 
     22 CA          0.0970  -21.6140  -43.3241 C.3       10 UNK         0.1400 
     23 CB          1.0817  -20.6484  -42.6452 C.3       10 UNK        -0.1800 
     24 N          -1.2143  -20.9711  -43.4387 N.am      10 UNK        -0.5000 
     25 C          -2.3465  -21.6148  -43.7586 C.2       9 UNK         0.5000 
     26 O          -2.3756  -22.7857  -44.1353 O.2       9 UNK        -0.5000 
     27 CA         -3.6649  -20.8335  -43.6317 C.3       9 UNK         0.1400 
     28 CB         -4.0228  -20.6080  -42.1542 C.3       9 UNK        -0.1800 
     29 N          -3.5777  -19.5434  -44.3075 N.am      9 UNK        -0.5000 
     30 C          -4.3480  -19.1548  -45.3333 C.2       8 UNK         0.5000 
     31 O          -5.2903  -19.8103  -45.7813 O.2       8 UNK        -0.5000 
     32 CA         -4.0104  -17.8044  -45.9965 C.3       8 UNK         0.1400 
     33 CB         -4.9705  -16.7138  -45.5020 C.3       8 UNK        -0.1800 
     34 N          -2.6306  -17.3561  -45.8045 N.am      8 UNK        -0.5000 
     35 C          -1.5258  -18.0406  -46.1414 C.2       7 UNK         0.5000 
     36 O          -1.5326  -19.1565  -46.6624 O.2       7 UNK        -0.5000 
     37 CA         -0.1772  -17.4073  -45.7530 C.3       7 UNK         0.1400 
     38 CB          0.3211  -16.5211  -46.9023 C.3       7 UNK        -0.1800 
     39 N          -0.2204  -16.6217  -44.5159 N.am      7 UNK        -0.5000 
     40 C          -0.7020  -17.0341  -43.3311 C.2       6 UNK         0.5000 
     41 O          -1.0997  -18.1804  -43.1158 O.2       6 UNK        -0.5000 
     42 CA         -0.8225  -15.9791  -42.2141 C.3       6 UNK         0.1400 
     43 CB          0.3659  -16.0994  -41.2487 C.3       6 UNK        -0.1800 
     44 N          -0.9080  -14.5935  -42.6869 N.am      6 UNK        -0.5000 
     45 C          -1.7880  -14.0917  -43.5679 C.2       5 UNK         0.5000 
     46 O          -2.6824  -14.7570  -44.0914 O.2       5 UNK        -0.5000 
     47 CA         -1.6214  -12.6084  -43.9623 C.3       5 UNK         0.1400 
     48 CB         -2.7772  -11.7693  -43.3959 C.3       5 UNK        -0.1800 
     49 N          -0.3501  -12.0078  -43.5402 N.am      5 UNK        -0.5000 
     50 C           0.8599  -12.3503  -43.9998 C.2       4 UNK         0.5000 
     51 O           1.0528  -13.2366  -44.8404 O.2       4 UNK        -0.5000 
     52 CA          2.0521  -11.6130  -43.3734 C.3       4 UNK         0.1400 
     53 CB          2.3278  -12.1456  -41.9533 C.3       4 UNK        -0.1800 
     54 N           3.2042  -11.8425  -44.2295 N.am      4 UNK        -0.5000 
     55 C           4.4010  -11.2479  -44.1841 C.2       3 UNK         0.5000 
     56 O           4.6858  -10.3413  -43.3998 O.2       3 UNK        -0.5000 
     57 CA          5.4453  -11.7567  -45.2030 C.3       3 UNK         0.1400 
     58 CB          6.8985  -11.6349  -44.6983 C.3       3 UNK        -0.1800 
     59 N           5.1401  -13.1128  -45.6817 N.am      3 UNK        -0.5000 
     60 C           5.1695  -14.2596  -44.9807 C.2       2 UNK         0.5000 
     61 O           5.6343  -14.3532  -43.8445 O.2       2 UNK        -0.5000 
     62 CA          4.5160  -15.5014  -45.6272 C.3       2 UNK         0.1400 
     63 CB          3.5366  -16.1819  -44.6518 C.3       2 UNK        -0.1800 
     64 N           3.7820  -15.1717  -46.8505 N.am      2 UNK        -0.5000 
     65 C           4.2890  -15.1749  -48.0899 C.2       1 UNK         0.5000 
     66 O           5.4455  -15.5066  -48.3508 O.2       1 UNK        -0.5000 
     67 C          -0.0377  -22.3881  -47.7541 C.2       11 UNK         0.5000 
     68 O           0.3101  -23.3031  -48.4984 O.2       11 UNK        -0.5000 
     69 N          -1.3206  -22.1162  -47.4662 N.am      12 UNK        -0.5000 
     70 CA         -2.4659  -22.8845  -47.9581 C.3       12 UNK         0.1400 
     71 CB         -3.7688  -22.2750  -47.4308 C.3       12 UNK        -0.1800 
     72 C          -2.3971  -24.3773  -47.5953 C.2       12 UNK         0.5000 
     73 O          -2.6501  -25.2145  -48.4599 O.2       12 UNK        -0.5000 
     74 N          -2.0175  -24.6846  -46.3479 N.am      13 UNK        -0.5000 
     75 CA         -1.8118  -26.0490  -45.8611 C.3       13 UNK         0.1400 
     76 CB         -1.6021  -26.0192  -44.3398 C.3       13 UNK        -0.1800 
     77 C          -0.6394  -26.7696  -46.5539 C.2       13 UNK         0.5000 
     78 O          -0.7335  -27.9711  -46.8058 O.2       13 UNK        -0.5000 
     79 N           0.4330  -26.0265  -46.8591 N.am      14 UNK        -0.5000 
     80 CA          1.6221  -26.5335  -47.5436 C.3       14 UNK         0.1400 
     81 CB          2.7893  -25.5566  -47.3295 C.3       14 UNK        -0.1800 
     82 C           1.3762  -26.7768  -49.0439 C.2       14 UNK         0.5000 
     83 O           1.7807  -27.8154  -49.5676 O.2       14 UNK        -0.5000 
     84 N           0.7139  -25.8185  -49.7045 N.am      15 UNK        -0.5000 
     85 CA          0.4060  -25.8473  -51.1358 C.3       15 UNK         0.1400 
     86 CB          0.1653  -24.4077  -51.6151 C.3       15 UNK        -0.1800 
     87 C          -0.8007  -26.7335  -51.4971 C.2       15 UNK         0.5000 
     88 O          -0.9815  -27.0360  -52.6770 O.2       15 UNK        -0.5000 
     89 N          -1.6082  -27.1055  -50.4930 N.am      16 UNK        -0.5000 
     90 CA         -2.9006  -27.7907  -50.5970 C.3       16 UNK         0.1400 
     91 CB         -2.7471  -29.2052  -51.1956 C.3       16 UNK        -0.1800 
     92 C          -3.9367  -26.9119  -51.3290 C.2       16 UNK         0.5000 
     93 O          -4.5491  -27.3488  -52.3046 O.2       16 UNK        -0.5000 
     94 N          -4.0842  -25.6802  -50.8186 N.am      17 UNK        -0.5000 
     95 CA         -4.9138  -24.5732  -51.2977 C.3       17 UNK         0.1400 
     96 CB         -6.4111  -24.9405  -51.2889 C.3       17 UNK        -0.1800 
     97 C          -4.4425  -24.0462  -52.6665 C.2       17 UNK         0.5000 
     98 O          -4.8695  -24.5434  -53.7096 O.2       17 UNK        -0.5000 
     99 N          -3.5775  -23.0221  -52.6335 N.am      18 UNK        -0.5000 
    100 CA        -3.0623  -22.3239  -53.8183 C.3       18 UNK         0.1400 
    101 CB        -1.8574  -21.4639  -53.4024 C.3       18 UNK        -0.1800 
    102 C         -4.1158  -21.4487  -54.5341 C.2       18 UNK         0.5000 
    103 O         -3.8866  -21.0444  -55.6738 O.2       18 UNK        -0.5000 
    104 N         -5.2304  -21.1587  -53.8440 N.am      19 UNK        -0.5000 
    105 CA        -6.3816  -20.3460  -54.2603 C.3       19 UNK         0.1400 
    106 CB        -7.0384  -20.9077  -55.5379 C.3       19 UNK        -0.1800 
    107 C         -6.0911  -18.8332  -54.3626 C.2       19 UNK         0.5000 
    108 O         -6.9454  -18.0791  -54.8311 O.2       19 UNK        -0.5000 
    109 N         -4.9266  -18.3934  -53.8703 N.am      20 UNK        -0.5000 
    110 CA        -4.4941  -16.9976  -53.8045 C.3       20 UNK         0.1400 
    111 CB        -2.9560  -16.9643  -53.8508 C.3       20 UNK        -0.1800 
    112 C         -5.0779  -16.3039  -52.5561 C.2       20 UNK         0.5000 
    113 O         -4.3304  -15.8654  -51.6820 O.2       20 UNK        -0.5000 
    114 N         -6.4170  -16.2635  -52.4824 N.am      21 UNK        -0.5000 
    115 CA        -7.2335  -15.7924  -51.3533 C.3       21 UNK         0.1400 
    116 CB        -7.0308  -14.2821  -51.1090 C.3       21 UNK        -0.1800 
    117 C         -7.0459  -16.6445  -50.0764 C.2       21 UNK         0.5000 
    118 O         -7.1529  -16.1315  -48.9611 O.2       21 UNK        -0.5000 
    119 N         -6.7610  -17.9365  -50.2744 N.am      22 UNK        -0.5000 
    120 CA        -6.5641  -18.9459  -49.2274 C.3       22 UNK         0.1400 
    121 C         -7.8671  -19.2898  -48.4529 C.2       22 UNK         0.5000 
    122 N         -7.7582  -19.7042  -47.1978 N.am      22 UNK        -0.7600 
    123 O         -8.9708  -19.2280  -48.9905 O.2       22 UNK        -0.5000 
    124 C124       -5.9245  -20.2312  -49.8147 C.3       23 UNK        -0.0398 
    125 S125       -4.3640  -19.9896  -50.7436 S.3       23 UNK        -0.2404 
    126 C126       -3.4112  -18.8649  -49.6725 C.3       23 UNK        -0.0205 
    127 H127        0.2887  -12.5241  -47.7639 H         1 UNK         0.0600 
    128 H128        0.9112  -11.1311  -48.6613 H         1 UNK         0.0600 
    129 H129        1.2712  -11.3120  -46.9421 H         1 UNK         0.0600 
    130 H130        1.3302  -14.1761  -48.9490 H         1 UNK         0.3000 
    131 H131        3.9757  -14.1116  -49.9065 H         1 UNK         0.0600 
    132 H132        2.1508  -16.5150  -49.3953 H         1 UNK         0.0800 
    133 H133        3.6419  -16.5906  -50.2903 H         1 UNK         0.0800 
    134 H134       -0.3596  -15.3607  -52.0472 H         1 UNK         0.0800 
    135 H135       -0.0508  -15.0841  -50.3530 H         1 UNK         0.0800 
    136 H136       -2.1968  -16.5255  -50.3765 H         1 UNK         0.1150 
    137 H137       -1.4524  -20.7189  -49.9809 H         1 UNK         0.1150 
    138 H138        1.6654  -18.1364  -51.3414 H         1 UNK         0.1150 
    139 H139        0.6442  -21.6480  -50.5849 H         1 UNK         0.0800 
    140 H140        1.6977  -20.7408  -51.6353 H         1 UNK         0.0800 
    141 H141        0.5340  -19.6760  -48.0809 H         1 UNK         0.0800 
    142 H142        2.0235  -19.6254  -47.2084 H         1 UNK         0.0800 
    143 H143        1.9376  -22.1582  -46.9806 H         1 UNK         0.0600 
    144 H144        0.1637  -20.3374  -45.5349 H         1 UNK         0.3000 
    145 H145       -0.0159  -22.4874  -42.6781 H         1 UNK         0.0600 
    146 H146        0.7237  -20.3494  -41.6599 H         1 UNK         0.0600 
    147 H147        2.0569  -21.1173  -42.5084 H         1 UNK         0.0600 
    148 H148        1.2329  -19.7424  -43.2333 H         1 UNK         0.0600 
    149 H149       -1.2531  -19.9898  -43.1727 H         1 UNK         0.3000 
    150 H150       -4.4499  -21.4479  -44.0773 H         1 UNK         0.0600 
    151 H151       -4.0729  -21.5546  -41.6147 H         1 UNK         0.0600 
    152 H152       -4.9960  -20.1265  -42.0573 H         1 UNK         0.0600 
    153 H153       -3.2881  -19.9786  -41.6502 H         1 UNK         0.0600 
    154 H154       -2.8151  -18.9389  -44.0251 H         1 UNK         0.3000 
    155 H155       -4.1638  -17.9162  -47.0674 H         1 UNK         0.0600 
    156 H156       -6.0091  -16.9931  -45.6858 H         1 UNK         0.0600 
    157 H157       -4.7945  -15.7693  -46.0173 H         1 UNK         0.0600 
    158 H158       -4.8599  -16.5377  -44.4312 H         1 UNK         0.0600 
    159 H159       -2.5195  -16.4652  -45.3321 H         1 UNK         0.3000 
    160 H160        0.5403  -18.2145  -45.6002 H         1 UNK         0.0600 
    161 H161       -0.3328  -15.6628  -47.0628 H         1 UNK         0.0600 
    162 H162        0.3644  -17.0811  -47.8375 H         1 UNK         0.0600 
    163 H163        1.3204  -16.1465  -46.7001 H         1 UNK         0.0600 
    164 H164        0.0693  -15.6559  -44.5888 H         1 UNK         0.3000 
    165 H165       -1.7404  -16.1949  -41.6643 H         1 UNK         0.0600 
    166 H166        0.2518  -15.4307  -40.3953 H         1 UNK         0.0600 
    167 H167        0.4503  -17.1136  -40.8554 H         1 UNK         0.0600 
    168 H168        1.3093  -15.8588  -41.7411 H         1 UNK         0.0600 
    169 H169       -0.2152  -13.9591  -42.3203 H         1 UNK         0.3000 
    170 H170       -1.6671  -12.5620  -45.0524 H         1 UNK         0.0600 
    171 H171       -3.7423  -12.1625  -43.7185 H         1 UNK         0.0600 
    172 H172       -2.7731  -11.7639  -42.3053 H         1 UNK         0.0600 
    173 H173       -2.7198  -10.7359  -43.7384 H         1 UNK         0.0600 
    174 H174       -0.4162  -11.2800  -42.8428 H         1 UNK         0.3000 
    175 H175        1.8349  -10.5437  -43.3426 H         1 UNK         0.0600 
    176 H176        1.4632  -12.0084  -41.3031 H         1 UNK         0.0600 
    177 H177        2.5669  -13.2101  -41.9647 H         1 UNK         0.0600 
    178 H178        3.1624  -11.6234  -41.4858 H         1 UNK         0.0600 
    179 H179        3.0396  -12.5543  -44.9296 H         1 UNK         0.3000 
    180 H180        5.3504  -11.1072  -46.0742 H         1 UNK         0.0600 
    181 H181        7.0499  -12.1603  -43.7553 H         1 UNK         0.0600 
    182 H182        7.1643  -10.5905  -44.5312 H         1 UNK         0.0600 
    183 H183        7.6042  -12.0360  -45.4256 H         1 UNK         0.0600 
    184 H184        4.7253  -13.1373  -46.6066 H         1 UNK         0.3000 
    185 H185        5.3158  -16.2087  -45.8557 H         1 UNK         0.0600 
    186 H186        4.0444  -16.5039  -43.7419 H         1 UNK         0.0600 
    187 H187        2.7300  -15.5098  -44.3559 H         1 UNK         0.0600 
    188 H188        3.0877  -17.0697  -45.0975 H         1 UNK         0.0600 
    189 H189        2.8329  -14.8492  -46.7287 H         1 UNK         0.3000 
    190 H190       -1.5235  -21.3115  -46.8858 H         1 UNK         0.3000 
    191 H191       -2.4672  -22.8055  -49.0468 H         1 UNK         0.0600 
    192 H192       -3.8558  -22.3726  -46.3496 H         1 UNK         0.0600 
    193 H193       -4.6356  -22.7689  -47.8710 H         1 UNK         0.0600 
    194 H194       -3.8332  -21.2170  -47.6701 H         1 UNK         0.0600 
    195 H195       -1.8914  -23.9372  -45.6717 H         1 UNK         0.3000 
    196 H196       -2.7193  -26.6197  -46.0687 H         1 UNK         0.0600 
    197 H197       -1.4439  -27.0237  -43.9453 H         1 UNK         0.0600 
    198 H198       -2.4721  -25.6038  -43.8312 H         1 UNK         0.0600 
    199 H199       -0.7356  -25.4159  -44.0657 H         1 UNK         0.0600 
    200 H200        0.4226  -25.0423  -46.6291 H         1 UNK         0.3000 
    201 H201        1.8977  -27.4884  -47.0907 H         1 UNK         0.0600 
    202 H202        2.9935  -25.4132  -46.2682 H         1 UNK         0.0600 
    203 H203        2.5861  -24.5780  -47.7648 H         1 UNK         0.0600 
    204 H204        3.7029  -25.9355  -47.7890 H         1 UNK         0.0600 
    205 H205        0.4605  -24.9674  -49.2051 H         1 UNK         0.3000 
    206 H206        1.2716  -26.2422  -51.6718 H         1 UNK         0.0600 
    207 H207        1.0522  -23.7943  -51.4592 H         1 UNK         0.0600 
    208 H208       -0.0640  -24.3796  -52.6811 H         1 UNK         0.0600 
    209 H209       -0.6674  -23.9419  -51.0862 H         1 UNK         0.0600 
    210 H210       -1.3874  -26.7475  -49.5727 H         1 UNK         0.3000 
    211 H211       -3.2644  -27.9092  -49.5751 H         1 UNK         0.0600 
    212 H212       -2.4425  -29.1792  -52.2419 H         1 UNK         0.0600 
    213 H213       -3.6908  -29.7495  -51.1468 H         1 UNK         0.0600 
    214 H214       -2.0077  -29.7868  -50.6450 H         1 UNK         0.0600 
    215 H215       -3.5181  -25.4673  -49.9982 H         1 UNK         0.3000 
    216 H216       -4.7846  -23.7677  -50.5726 H         1 UNK         0.0600 
    217 H217       -7.0216  -24.0802  -51.5657 H         1 UNK         0.0600 
    218 H218       -6.7313  -25.2612  -50.2976 H         1 UNK         0.0600 
    219 H219       -6.6441  -25.7414  -51.9909 H         1 UNK         0.0600 
    220 H220       -3.2707  -22.6639  -51.7414 H         1 UNK         0.3000 
    221 H221       -2.7171  -23.0743  -54.5326 H         1 UNK         0.0600 
    222 H222       -2.1511  -20.6578  -52.7305 H         1 UNK         0.0600 
    223 H223       -1.0935  -22.0574  -52.9014 H         1 UNK         0.0600 
    224 H224       -1.3882  -21.0034  -54.2726 H         1 UNK         0.0600 
    225 H225       -5.2835  -21.5245  -52.9048 H         1 UNK         0.3000 
    226 H226       -7.1113  -20.4460  -53.4557 H         1 UNK         0.0600 
    227 H227       -7.2403  -21.9745  -55.4413 H         1 UNK         0.0600 
    228 H228       -7.9911  -20.4153  -55.7364 H         1 UNK         0.0600 
    229 H229       -6.4105  -20.7621  -56.4170 H         1 UNK         0.0600 
    230 H230       -4.3051  -19.0710  -53.4538 H         1 UNK         0.3000 
    231 H231       -4.8642  -16.4589  -54.6793 H         1 UNK         0.0600 
    232 H232       -2.5845  -17.3657  -54.7937 H         1 UNK         0.0600 
    233 H233       -2.5177  -17.5539  -53.0462 H         1 UNK         0.0600 
    234 H234       -2.5782  -15.9452  -53.7604 H         1 UNK         0.0600 
    235 H235       -6.9295  -16.6680  -53.2590 H         1 UNK         0.3000 
    236 H236       -8.2721  -15.9353  -51.6546 H         1 UNK         0.0600 
    237 H237       -7.7512  -13.9046  -50.3825 H         1 UNK         0.0600 
    238 H238       -6.0352  -14.0622  -50.7230 H         1 UNK         0.0600 
    239 H239       -7.1690  -13.7117  -52.0274 H         1 UNK         0.0600 
    240 H240       -6.6895  -18.2655  -51.2238 H         1 UNK         0.3000 
    241 H241       -5.8792  -18.5198  -48.4955 H         1 UNK         0.0600 
    242 H242       -6.8584  -19.7771  -46.7252 H         1 UNK         0.3800 
    243 H243       -8.5952  -19.9460  -46.6917 H         1 UNK         0.3800 
    244 H244       -5.7334  -20.9480  -49.0172 H         1 UNK         0.0800 
    245 H245       -6.6295  -20.7233  -50.4871 H         1 UNK         0.0800 
    246 H246       -3.9277  -17.9068  -49.6035 H         1 UNK         0.0800 
    247 H247       -3.3629  -19.2795  -48.6685 H         1 UNK         0.0800 
@<TRIPOS>BOND
     1    1    2 1    
     2    1  127 1    
     3    1  128 1    
     4    1  129 1    
     5    2    3 2    
     6    2    4 am   BACKBONE|DICT|INTERRES
     7    4    5 1    
     8    4  130 1    
     9    5    6 1    
    10    5   65 1    
    11    5  131 1    
    12    6    7 1    
    13    6  132 1    
    14    6  133 1    
    15    7    8 1    
    16    8    9 1    
    17    8  134 1    
    18    8  135 1    
    19    9   10 ar   
    20    9   14 ar   
    21   10   11 ar   
    22   10  136 1    
    23   11   12 ar   
    24   11  126 1    
    25   12   13 ar   
    26   12  137 1    
    27   13   14 ar   
    28   13   15 1    
    29   14  138 1    
    30   15   16 1    
    31   15  139 1    
    32   15  140 1    
    33   16   17 1    
    34   17   18 1    
    35   17  141 1    
    36   17  142 1    
    37   18   19 1    
    38   18   67 1    
    39   18  143 1    
    40   19   20 am   BACKBONE|DICT|INTERRES
    41   19  144 1    
    42   20   21 2    
    43   20   22 1    
    44   22   23 1    
    45   22   24 1    
    46   22  145 1    
    47   23  146 1    
    48   23  147 1    
    49   23  148 1    
    50   24   25 am   BACKBONE|DICT|INTERRES
    51   24  149 1    
    52   25   26 2    
    53   25   27 1    
    54   27   28 1    
    55   27   29 1    
    56   27  150 1    
    57   28  151 1    
    58   28  152 1    
    59   28  153 1    
    60   29   30 am   BACKBONE|DICT|INTERRES
    61   29  154 1    
    62   30   31 2    
    63   30   32 1    
    64   32   33 1    
    65   32   34 1    
    66   32  155 1    
    67   33  156 1    
    68   33  157 1    
    69   33  158 1    
    70   34   35 am   BACKBONE|DICT|INTERRES
    71   34  159 1    
    72   35   36 2    
    73   35   37 1    
    74   37   38 1    
    75   37   39 1    
    76   37  160 1    
    77   38  161 1    
    78   38  162 1    
    79   38  163 1    
    80   39   40 am   BACKBONE|DICT|INTERRES
    81   39  164 1    
    82   40   41 2    
    83   40   42 1    
    84   42   43 1    
    85   42   44 1    
    86   42  165 1    
    87   43  166 1    
    88   43  167 1    
    89   43  168 1    
    90   44   45 am   BACKBONE|DICT|INTERRES
    91   44  169 1    
    92   45   46 2    
    93   45   47 1    
    94   47   48 1    
    95   47   49 1    
    96   47  170 1    
    97   48  171 1    
    98   48  172 1    
    99   48  173 1    
   100   49   50 am   BACKBONE|DICT|INTERRES
   101   49  174 1    
   102   50   51 2    
   103   50   52 1    
   104   52   53 1    
   105   52   54 1    
   106   52  175 1    
   107   53  176 1    
   108   53  177 1    
   109   53  178 1    
   110   54   55 am   BACKBONE|DICT|INTERRES
   111   54  179 1    
   112   55   56 2    
   113   55   57 1    
   114   57   58 1    
   115   57   59 1    
   116   57  180 1    
   117   58  181 1    
   118   58  182 1    
   119   58  183 1    
   120   59   60 am   BACKBONE|DICT|INTERRES
   121   59  184 1    
   122   60   61 2    
   123   60   62 1    
   124   62   63 1    
   125   62   64 1    
   126   62  185 1    
   127   63  186 1    
   128   63  187 1    
   129   63  188 1    
   130   64   65 am   BACKBONE|DICT|INTERRES
   131   64  189 1    
   132   65   66 2    
   133   67   68 2    
   134   67   69 am   BACKBONE|DICT|INTERRES
   135   69   70 1    
   136   69  190 1    
   137   70   71 1    
   138   70   72 1    
   139   70  191 1    
   140   71  192 1    
   141   71  193 1    
   142   71  194 1    
   143   72   73 2    
   144   72   74 am   BACKBONE|DICT|INTERRES
   145   74   75 1    
   146   74  195 1    
   147   75   76 1    
   148   75   77 1    
   149   75  196 1    
   150   76  197 1    
   151   76  198 1    
   152   76  199 1    
   153   77   78 2    
   154   77   79 am   BACKBONE|DICT|INTERRES
   155   79   80 1    
   156   79  200 1    
   157   80   81 1    
   158   80   82 1    
   159   80  201 1    
   160   81  202 1    
   161   81  203 1    
   162   81  204 1    
   163   82   83 2    
   164   82   84 am   BACKBONE|DICT|INTERRES
   165   84   85 1    
   166   84  205 1    
   167   85   86 1    
   168   85   87 1    
   169   85  206 1    
   170   86  207 1    
   171   86  208 1    
   172   86  209 1    
   173   87   88 2    
   174   87   89 am   BACKBONE|DICT|INTERRES
   175   89   90 1    
   176   89  210 1    
   177   90   91 1    
   178   90   92 1    
   179   90  211 1    
   180   91  212 1    
   181   91  213 1    
   182   91  214 1    
   183   92   93 2    
   184   92   94 am   BACKBONE|DICT|INTERRES
   185   94   95 1    
   186   94  215 1    
   187   95   96 1    
   188   95   97 1    
   189   95  216 1    
   190   96  217 1    
   191   96  218 1    
   192   96  219 1    
   193   97   98 2    
   194   97   99 am   BACKBONE|DICT|INTERRES
   195   99  100 1    
   196   99  220 1    
   197  100  101 1    
   198  100  102 1    
   199  100  221 1    
   200  101  222 1    
   201  101  223 1    
   202  101  224 1    
   203  102  103 2    
   204  102  104 am   BACKBONE|DICT|INTERRES
   205  104  105 1    
   206  104  225 1    
   207  105  106 1    
   208  105  107 1    
   209  105  226 1    
   210  106  227 1    
   211  106  228 1    
   212  106  229 1    
   213  107  108 2    
   214  107  109 am   BACKBONE|DICT|INTERRES
   215  109  110 1    
   216  109  230 1    
   217  110  111 1    
   218  110  112 1    
   219  110  231 1    
   220  111  232 1    
   221  111  233 1    
   222  111  234 1    
   223  112  113 2    
   224  112  114 am   BACKBONE|DICT|INTERRES
   225  114  115 1    
   226  114  235 1    
   227  115  116 1    
   228  115  117 1    
   229  115  236 1    
   230  116  237 1    
   231  116  238 1    
   232  116  239 1    
   233  117  118 2    
   234  117  119 am   BACKBONE|DICT|INTERRES
   235  119  120 1    
   236  119  240 1    
   237  120  121 1    
   238  120  124 1    
   239  120  241 1    
   240  121  122 am   BACKBONE|DICT|INTERRES
   241  121  123 2    
   242  122  242 1    
   243  122  243 1    
   244  124  125 1    
   245  124  244 1    
   246  124  245 1    
   247  125  126 1    
   248  126  246 1    
   249  126  247 1    
@<TRIPOS>SUBSTRUCTURE
     1 UNK         1 GROUP             0       ****    0 ROOT    
