@<TRIPOS>MOLECULE
3R540
247   249    1
SMALL
USER_CHARGES


@<TRIPOS>ATOM
      1 CA         -3.0073  -10.5524  -51.6874 C.3       0 UNK        -0.1800 
      2 C          -1.5883  -10.4126  -51.1554 C.2       0 UNK         0.5000 
      3 O          -1.0993   -9.2942  -50.9979 O.2       0 UNK        -0.5000 
      4 N          -0.9302  -11.5428  -50.8690 N.am      1 UNK        -0.5000 
      5 CA          0.4441  -11.6230  -50.3535 C.3       1 UNK         0.1400 
      6 C6          1.1749  -12.8896  -50.8617 C.3       23 UNK        -0.0398 
      7 S7          0.3167  -14.4551  -50.4875 S.3       23 UNK        -0.2404 
      8 C8          1.4789  -15.6254  -51.2501 C.3       23 UNK        -0.0205 
      9 C9          0.9923  -17.0570  -51.1107 C.ar      23 UNK        -0.0193 
     10 C10         0.3635  -17.6975  -52.1831 C.ar      23 UNK        -0.1150 
     11 C11        -0.0779  -19.0174  -52.0567 C.ar      23 UNK        -0.0193 
     12 C12         0.1283  -19.6964  -50.8537 C.ar      23 UNK        -0.1150 
     13 C13         0.7243  -19.0582  -49.7643 C.ar      23 UNK        -0.0193 
     14 C14         1.1651  -17.7402  -49.9035 C.ar      23 UNK        -0.1150 
     15 C15         0.8554  -19.7828  -48.4335 C.3       23 UNK        -0.0205 
     16 S16        -0.7601  -19.8776  -47.6012 S.3       23 UNK        -0.2404 
     17 C17        -0.3125  -20.5099  -45.9519 C.3       23 UNK        -0.0398 
     18 CA         -0.3557  -22.0550  -45.8609 C.3       11 UNK         0.1400 
     19 N           0.4976  -22.5443  -44.7774 N.am      11 UNK        -0.5000 
     20 C           0.9144  -23.8106  -44.6443 C.2       10 UNK         0.5000 
     21 O           0.4582  -24.7465  -45.3008 O.2       10 UNK        -0.5000 
     22 CA          2.0240  -24.0719  -43.6144 C.3       10 UNK         0.1400 
     23 CB          3.3740  -23.5524  -44.1335 C.3       10 UNK        -0.1800 
     24 N           1.7093  -23.4174  -42.3481 N.am      10 UNK        -0.5000 
     25 C           1.4462  -24.0603  -41.2028 C.2       9 UNK         0.5000 
     26 O           1.5957  -25.2725  -41.0427 O.2       9 UNK        -0.5000 
     27 CA          0.8851  -23.2124  -40.0409 C.3       9 UNK         0.1400 
     28 CB          2.0185  -22.7748  -39.1008 C.3       9 UNK        -0.1800 
     29 N           0.1368  -22.0249  -40.4669 N.am      9 UNK        -0.5000 
     30 C          -0.9137  -22.0203  -41.3001 C.2       8 UNK         0.5000 
     31 O          -1.3941  -23.0338  -41.8031 O.2       8 UNK        -0.5000 
     32 CA         -1.4839  -20.6517  -41.7063 C.3       8 UNK         0.1400 
     33 CB         -2.6658  -20.2707  -40.8036 C.3       8 UNK        -0.1800 
     34 N          -0.5133  -19.5569  -41.7065 N.am      8 UNK        -0.5000 
     35 C           0.6426  -19.4942  -42.3801 C.2       7 UNK         0.5000 
     36 O           1.1167  -20.4445  -43.0088 O.2       7 UNK        -0.5000 
     37 CA          1.3609  -18.1267  -42.3547 C.3       7 UNK         0.1400 
     38 CB          2.6759  -18.1398  -43.1529 C.3       7 UNK        -0.1800 
     39 N           0.5024  -17.0535  -42.8669 N.am      7 UNK        -0.5000 
     40 C          -0.5379  -16.5019  -42.2231 C.2       6 UNK         0.5000 
     41 O          -0.8517  -16.8080  -41.0713 O.2       6 UNK        -0.5000 
     42 CA         -1.3922  -15.4595  -42.9722 C.3       6 UNK         0.1400 
     43 CB         -1.2034  -14.0666  -42.3535 C.3       6 UNK        -0.1800 
     44 N          -1.1205  -15.3804  -44.4067 N.am      6 UNK        -0.5000 
     45 C          -1.4417  -16.3082  -45.3191 C.2       5 UNK         0.5000 
     46 O          -2.0310  -17.3567  -45.0569 O.2       5 UNK        -0.5000 
     47 CA         -1.0019  -16.0109  -46.7635 C.3       5 UNK         0.1400 
     48 CB         -2.0743  -15.1840  -47.4886 C.3       5 UNK        -0.1800 
     49 N           0.2808  -15.3033  -46.8073 N.am      5 UNK        -0.5000 
     50 C           1.4627  -15.8749  -46.5351 C.2       4 UNK         0.5000 
     51 O           1.5948  -17.0685  -46.2720 O.2       4 UNK        -0.5000 
     52 CA          2.7014  -14.9605  -46.5167 C.3       4 UNK         0.1400 
     53 CB          3.2824  -14.7867  -47.9252 C.3       4 UNK        -0.1800 
     54 N           2.4163  -13.6467  -45.9421 N.am      4 UNK        -0.5000 
     55 C           2.2114  -13.4366  -44.6341 C.2       3 UNK         0.5000 
     56 O           2.2937  -14.3192  -43.7801 O.2       3 UNK        -0.5000 
     57 CA          1.8217  -12.0092  -44.2044 C.3       3 UNK         0.1400 
     58 CB          3.0733  -11.2040  -43.8248 C.3       3 UNK        -0.1800 
     59 N           1.0618  -11.2633  -45.2096 N.am      3 UNK        -0.5000 
     60 C          -0.1036  -11.6396  -45.7540 C.2       2 UNK         0.5000 
     61 O          -0.6685  -12.7007  -45.4895 O.2       2 UNK        -0.5000 
     62 CA         -0.7438  -10.6827  -46.7778 C.3       2 UNK         0.1400 
     63 CB         -0.2572   -9.2224  -46.6470 C.3       2 UNK        -0.1800 
     64 N          -0.5902  -11.1346  -48.1641 N.am      2 UNK        -0.5000 
     65 C           0.5440  -11.4323  -48.8189 C.2       1 UNK         0.5000 
     66 O           1.6445  -11.5246  -48.2708 O.2       1 UNK        -0.5000 
     67 C          -1.7975  -22.6080  -45.8301 C.2       11 UNK         0.5000 
     68 O          -2.3998  -22.7486  -46.8965 O.2       11 UNK        -0.5000 
     69 N          -2.3360  -22.9474  -44.6475 N.am      12 UNK        -0.5000 
     70 CA         -3.6711  -23.5470  -44.5299 C.3       12 UNK         0.1400 
     71 CB         -4.2000  -23.4313  -43.0942 C.3       12 UNK        -0.1800 
     72 C          -3.6956  -25.0098  -45.0047 C.2       12 UNK         0.5000 
     73 O          -4.7015  -25.4470  -45.5621 O.2       12 UNK        -0.5000 
     74 N          -2.5828  -25.7272  -44.8064 N.am      13 UNK        -0.5000 
     75 CA         -2.3962  -27.0919  -45.2912 C.3       13 UNK         0.1400 
     76 CB         -1.3070  -27.7844  -44.4568 C.3       13 UNK        -0.1800 
     77 C          -2.0383  -27.1138  -46.7867 C.2       13 UNK         0.5000 
     78 O          -2.5711  -27.9402  -47.5279 O.2       13 UNK        -0.5000 
     79 N          -1.1356  -26.2129  -47.1968 N.am      14 UNK        -0.5000 
     80 CA         -0.5810  -26.1608  -48.5469 C.3       14 UNK         0.1400 
     81 CB          0.7151  -25.3352  -48.5291 C.3       14 UNK        -0.1800 
     82 C          -1.5497  -25.6012  -49.6019 C.2       14 UNK         0.5000 
     83 O          -1.5674  -26.1139  -50.7220 O.2       14 UNK        -0.5000 
     84 N          -2.2962  -24.5433  -49.2553 N.am      15 UNK        -0.5000 
     85 CA         -3.0115  -23.7180  -50.2325 C.3       15 UNK         0.1400 
     86 CB         -2.0797  -22.5752  -50.6631 C.3       15 UNK        -0.1800 
     87 C          -4.3476  -23.1588  -49.7215 C.2       15 UNK         0.5000 
     88 O          -4.9109  -22.2871  -50.3860 O.2       15 UNK        -0.5000 
     89 N          -4.8173  -23.6237  -48.5543 N.am      16 UNK        -0.5000 
     90 CA         -6.0239  -23.1600  -47.8566 C.3       16 UNK         0.1400 
     91 CB         -7.2928  -23.6239  -48.5999 C.3       16 UNK        -0.1800 
     92 C          -6.0030  -21.6429  -47.5596 C.2       16 UNK         0.5000 
     93 O          -7.0119  -20.9614  -47.7454 O.2       16 UNK        -0.5000 
     94 N          -4.8352  -21.1551  -47.1117 N.am      17 UNK        -0.5000 
     95 CA         -4.5113  -19.7572  -46.8064 C.3       17 UNK         0.1400 
     96 CB         -5.3860  -19.2068  -45.6609 C.3       17 UNK        -0.1800 
     97 C          -4.5188  -18.8822  -48.0758 C.2       17 UNK         0.5000 
     98 O          -5.1851  -17.8469  -48.1239 O.2       17 UNK        -0.5000 
     99 N          -3.7594  -19.3435  -49.0796 N.am      18 UNK        -0.5000 
    100 CA        -3.5105  -18.7131  -50.3785 C.3       18 UNK         0.1400 
    101 CB        -2.7747  -17.3679  -50.2124 C.3       18 UNK        -0.1800 
    102 C         -4.7644  -18.6121  -51.2695 C.2       18 UNK         0.5000 
    103 O         -4.9237  -17.6357  -52.0044 O.2       18 UNK        -0.5000 
    104 N         -5.6245  -19.6372  -51.2116 N.am      19 UNK        -0.5000 
    105 CA        -6.7638  -19.7999  -52.1149 C.3       19 UNK         0.1400 
    106 CB        -7.8176  -20.6936  -51.4460 C.3       19 UNK        -0.1800 
    107 C         -6.3311  -20.3982  -53.4672 C.2       19 UNK         0.5000 
    108 O         -6.9747  -20.1286  -54.4825 O.2       19 UNK        -0.5000 
    109 N         -5.2540  -21.1980  -53.4568 N.am      20 UNK        -0.5000 
    110 CA        -4.6291  -21.7848  -54.6424 C.3       20 UNK         0.1400 
    111 CB        -3.5869  -22.8217  -54.1953 C.3       20 UNK        -0.1800 
    112 C         -3.9715  -20.7203  -55.5423 C.2       20 UNK         0.5000 
    113 O         -3.4958  -19.6962  -55.0470 O.2       20 UNK        -0.5000 
    114 N         -3.9235  -20.9985  -56.8495 N.am      21 UNK        -0.5000 
    115 CA        -3.3242  -20.1377  -57.8692 C.3       21 UNK         0.1400 
    116 CB        -4.0437  -20.3874  -59.2076 C.3       21 UNK        -0.1800 
    117 C         -1.8013  -20.3636  -57.9622 C.2       21 UNK         0.5000 
    118 O         -1.3170  -20.9200  -58.9502 O.2       21 UNK        -0.5000 
    119 N         -1.0772  -19.9584  -56.9127 N.am      22 UNK        -0.5000 
    120 CA         0.3924  -20.0177  -56.8279 C.3       22 UNK         0.1400 
    121 C          1.0940  -19.1004  -57.8693 C.2       22 UNK         0.5000 
    122 N          2.2232  -19.5256  -58.4194 N.am      22 UNK        -0.7600 
    123 O          0.6476  -17.9899  -58.1499 O.2       22 UNK        -0.5000 
    124 C124        0.9092  -19.6933  -55.4028 C.3       23 UNK        -0.0398 
    125 S125        0.2343  -20.8249  -54.1408 S.3       23 UNK        -0.2404 
    126 C126       -0.8283  -19.6986  -53.1899 C.3       23 UNK        -0.0205 
    127 H127       -3.7085  -10.0445  -51.0252 H         1 UNK         0.0600 
    128 H128       -3.3098  -11.5969  -51.7666 H         1 UNK         0.0600 
    129 H129       -3.0830  -10.1009  -52.6766 H         1 UNK         0.0600 
    130 H130       -1.3824  -12.4355  -51.0138 H         1 UNK         0.3000 
    131 H131        0.9976  -10.7777  -50.7681 H         1 UNK         0.0600 
    132 H132        1.2794  -12.8227  -51.9455 H         1 UNK         0.0800 
    133 H133        2.1947  -12.9308  -50.4762 H         1 UNK         0.0800 
    134 H134        2.4602  -15.5257  -50.7847 H         1 UNK         0.0800 
    135 H135        1.6097  -15.3713  -52.3031 H         1 UNK         0.0800 
    136 H136        0.2054  -17.1637  -53.1095 H         1 UNK         0.1150 
    137 H137       -0.2001  -20.7171  -50.7544 H         1 UNK         0.1150 
    138 H138        1.6289  -17.2388  -49.0678 H         1 UNK         0.1150 
    139 H139        1.2428  -20.7895  -48.5955 H         1 UNK         0.0800 
    140 H140        1.5722  -19.2699  -47.7912 H         1 UNK         0.0800 
    141 H141       -0.9695  -20.0542  -45.2089 H         1 UNK         0.0800 
    142 H142        0.6879  -20.1413  -45.7196 H         1 UNK         0.0800 
    143 H143        0.0915  -22.4403  -46.7792 H         1 UNK         0.0600 
    144 H144        0.8840  -21.8264  -44.1690 H         1 UNK         0.3000 
    145 H145        2.1026  -25.1536  -43.4877 H         1 UNK         0.0600 
    146 H146        4.1789  -23.7954  -43.4397 H         1 UNK         0.0600 
    147 H147        3.6242  -24.0053  -45.0938 H         1 UNK         0.0600 
    148 H148        3.3676  -22.4701  -44.2702 H         1 UNK         0.0600 
    149 H149        1.5451  -22.4180  -42.3826 H         1 UNK         0.3000 
    150 H150        0.1969  -23.8470  -39.4791 H         1 UNK         0.0600 
    151 H151        2.5837  -23.6361  -38.7419 H         1 UNK         0.0600 
    152 H152        1.6280  -22.2569  -38.2246 H         1 UNK         0.0600 
    153 H153        2.7205  -22.1071  -39.6021 H         1 UNK         0.0600 
    154 H154        0.4686  -21.1360  -40.1227 H         1 UNK         0.3000 
    155 H155       -1.8558  -20.7470  -42.7280 H         1 UNK         0.0600 
    156 H156       -2.3448  -20.0952  -39.7761 H         1 UNK         0.0600 
    157 H157       -3.4173  -21.0609  -40.7818 H         1 UNK         0.0600 
    158 H158       -3.1577  -19.3655  -41.1604 H         1 UNK         0.0600 
    159 H159       -0.8055  -18.7030  -41.2388 H         1 UNK         0.3000 
    160 H160        1.6065  -17.9069  -41.3139 H         1 UNK         0.0600 
    161 H161        2.5116  -18.4130  -44.1954 H         1 UNK         0.0600 
    162 H162        3.3788  -18.8608  -42.7340 H         1 UNK         0.0600 
    163 H163        3.1603  -17.1632  -43.1346 H         1 UNK         0.0600 
    164 H164        0.6850  -16.7525  -43.8141 H         1 UNK         0.3000 
    165 H165       -2.4376  -15.7486  -42.8469 H         1 UNK         0.0600 
    166 H166       -1.8054  -13.3170  -42.8677 H         1 UNK         0.0600 
    167 H167       -1.5031  -14.0608  -41.3048 H         1 UNK         0.0600 
    168 H168       -0.1616  -13.7513  -42.3963 H         1 UNK         0.0600 
    169 H169       -0.7021  -14.5166  -44.7386 H         1 UNK         0.3000 
    170 H170       -0.8917  -16.9609  -47.2887 H         1 UNK         0.0600 
    171 H171       -3.0339  -15.7027  -47.4789 H         1 UNK         0.0600 
    172 H172       -2.2250  -14.2105  -47.0222 H         1 UNK         0.0600 
    173 H173       -1.8077  -15.0171  -48.5310 H         1 UNK         0.0600 
    174 H174        0.2419  -14.3049  -46.9550 H         1 UNK         0.3000 
    175 H175        3.4607  -15.4482  -45.9012 H         1 UNK         0.0600 
    176 H176        4.2093  -14.2137  -47.9016 H         1 UNK         0.0600 
    177 H177        3.5070  -15.7521  -48.3800 H         1 UNK         0.0600 
    178 H178        2.5849  -14.2654  -48.5776 H         1 UNK         0.0600 
    179 H179        2.3105  -12.8710  -46.5859 H         1 UNK         0.3000 
    180 H180        1.1921  -12.0923  -43.3175 H         1 UNK         0.0600 
    181 H181        3.6519  -11.7195  -43.0569 H         1 UNK         0.0600 
    182 H182        2.8077  -10.2247  -43.4262 H         1 UNK         0.0600 
    183 H183        3.7287  -11.0519  -44.6834 H         1 UNK         0.0600 
    184 H184        1.4670  -10.3926  -45.5206 H         1 UNK         0.3000 
    185 H185       -1.8142  -10.6903  -46.5670 H         1 UNK         0.0600 
    186 H186       -0.3788   -8.8551  -45.6270 H         1 UNK         0.0600 
    187 H187        0.7921   -9.1086  -46.9215 H         1 UNK         0.0600 
    188 H188       -0.8359   -8.5634  -47.2945 H         1 UNK         0.0600 
    189 H189       -1.4375  -11.1313  -48.7131 H         1 UNK         0.3000 
    190 H190       -1.7906  -22.8784  -43.7953 H         1 UNK         0.3000 
    191 H191       -4.3553  -22.9830  -45.1632 H         1 UNK         0.0600 
    192 H192       -3.6503  -24.0723  -42.4051 H         1 UNK         0.0600 
    193 H193       -5.2471  -23.7324  -43.0450 H         1 UNK         0.0600 
    194 H194       -4.1406  -22.4057  -42.7311 H         1 UNK         0.0600 
    195 H195       -1.7850  -25.2819  -44.3754 H         1 UNK         0.3000 
    196 H196       -3.3265  -27.6486  -45.1575 H         1 UNK         0.0600 
    197 H197       -1.1579  -28.8129  -44.7879 H         1 UNK         0.0600 
    198 H198       -1.5821  -27.8193  -43.4025 H         1 UNK         0.0600 
    199 H199       -0.3472  -27.2725  -44.5348 H         1 UNK         0.0600 
    200 H200       -0.7008  -25.6067  -46.5058 H         1 UNK         0.3000 
    201 H201       -0.3216  -27.1792  -48.8448 H         1 UNK         0.0600 
    202 H202        1.4443  -25.7597  -47.8387 H         1 UNK         0.0600 
    203 H203        0.5312  -24.3035  -48.2289 H         1 UNK         0.0600 
    204 H204        1.1777  -25.3116  -49.5166 H         1 UNK         0.0600 
    205 H205       -2.2145  -24.1554  -48.3208 H         1 UNK         0.3000 
    206 H206       -3.2654  -24.3094  -51.1142 H         1 UNK         0.0600 
    207 H207       -1.1764  -22.9572  -51.1391 H         1 UNK         0.0600 
    208 H208       -2.5622  -21.9082  -51.3757 H         1 UNK         0.0600 
    209 H209       -1.7831  -21.9780  -49.8004 H         1 UNK         0.0600 
    210 H210       -4.2844  -24.3384  -48.0799 H         1 UNK         0.3000 
    211 H211       -6.0318  -23.6490  -46.8835 H         1 UNK         0.0600 
    212 H212       -7.3728  -23.1733  -49.5873 H         1 UNK         0.0600 
    213 H213       -8.1930  -23.3589  -48.0442 H         1 UNK         0.0600 
    214 H214       -7.2984  -24.7064  -48.7263 H         1 UNK         0.0600 
    215 H215       -4.0516  -21.8002  -47.0552 H         1 UNK         0.3000 
    216 H216       -3.4841  -19.7563  -46.4408 H         1 UNK         0.0600 
    217 H217       -5.0404  -18.2183  -45.3557 H         1 UNK         0.0600 
    218 H218       -5.3372  -19.8522  -44.7839 H         1 UNK         0.0600 
    219 H219       -6.4320  -19.1102  -45.9516 H         1 UNK         0.0600 
    220 H220       -3.2653  -20.2096  -48.9221 H         1 UNK         0.3000 
    221 H221       -2.8328  -19.3866  -50.9011 H         1 UNK         0.0600 
    222 H222       -3.4191  -16.6068  -49.7733 H         1 UNK         0.0600 
    223 H223       -1.8943  -17.4746  -49.5791 H         1 UNK         0.0600 
    224 H224       -2.4318  -16.9878  -51.1751 H         1 UNK         0.0600 
    225 H225       -5.4135  -20.4291  -50.6109 H         1 UNK         0.3000 
    226 H226       -7.2162  -18.8237  -52.3016 H         1 UNK         0.0600 
    227 H227       -8.0906  -20.3185  -50.4593 H         1 UNK         0.0600 
    228 H228       -8.7278  -20.7359  -52.0451 H         1 UNK         0.0600 
    229 H229       -7.4560  -21.7147  -51.3306 H         1 UNK         0.0600 
    230 H230       -4.8096  -21.3789  -52.5679 H         1 UNK         0.3000 
    231 H231       -5.4079  -22.2954  -55.2127 H         1 UNK         0.0600 
    232 H232       -4.0243  -23.5639  -53.5274 H         1 UNK         0.0600 
    233 H233       -2.7484  -22.3541  -53.6795 H         1 UNK         0.0600 
    234 H234       -3.1786  -23.3577  -55.0529 H         1 UNK         0.0600 
    235 H235       -4.2937  -21.8794  -57.1763 H         1 UNK         0.3000 
    236 H236       -3.4849  -19.0909  -57.6018 H         1 UNK         0.0600 
    237 H237       -3.6321  -19.7557  -59.9958 H         1 UNK         0.0600 
    238 H238       -3.9482  -21.4242  -59.5325 H         1 UNK         0.0600 
    239 H239       -5.1066  -20.1573  -59.1313 H         1 UNK         0.0600 
    240 H240       -1.5637  -19.5534  -56.1233 H         1 UNK         0.3000 
    241 H241        0.6758  -21.0476  -57.0548 H         1 UNK         0.0600 
    242 H242        2.6966  -18.9343  -59.0853 H         1 UNK         0.3800 
    243 H243        2.6123  -20.4302  -58.2002 H         1 UNK         0.3800 
    244 H244        0.6858  -18.6584  -55.1391 H         1 UNK         0.0800 
    245 H245        1.9964  -19.7821  -55.3661 H         1 UNK         0.0800 
    246 H246       -1.6602  -20.2716  -52.7832 H         1 UNK         0.0800 
    247 H247       -1.2787  -18.9550  -53.8481 H         1 UNK         0.0800 
@<TRIPOS>BOND
     1    1    2 1    
     2    1  127 1    
     3    1  128 1    
     4    1  129 1    
     5    2    3 2    
     6    2    4 am   BACKBONE|DICT|INTERRES
     7    4    5 1    
     8    4  130 1    
     9    5    6 1    
    10    5   65 1    
    11    5  131 1    
    12    6    7 1    
    13    6  132 1    
    14    6  133 1    
    15    7    8 1    
    16    8    9 1    
    17    8  134 1    
    18    8  135 1    
    19    9   10 ar   
    20    9   14 ar   
    21   10   11 ar   
    22   10  136 1    
    23   11   12 ar   
    24   11  126 1    
    25   12   13 ar   
    26   12  137 1    
    27   13   14 ar   
    28   13   15 1    
    29   14  138 1    
    30   15   16 1    
    31   15  139 1    
    32   15  140 1    
    33   16   17 1    
    34   17   18 1    
    35   17  141 1    
    36   17  142 1    
    37   18   19 1    
    38   18   67 1    
    39   18  143 1    
    40   19   20 am   BACKBONE|DICT|INTERRES
    41   19  144 1    
    42   20   21 2    
    43   20   22 1    
    44   22   23 1    
    45   22   24 1    
    46   22  145 1    
    47   23  146 1    
    48   23  147 1    
    49   23  148 1    
    50   24   25 am   BACKBONE|DICT|INTERRES
    51   24  149 1    
    52   25   26 2    
    53   25   27 1    
    54   27   28 1    
    55   27   29 1    
    56   27  150 1    
    57   28  151 1    
    58   28  152 1    
    59   28  153 1    
    60   29   30 am   BACKBONE|DICT|INTERRES
    61   29  154 1    
    62   30   31 2    
    63   30   32 1    
    64   32   33 1    
    65   32   34 1    
    66   32  155 1    
    67   33  156 1    
    68   33  157 1    
    69   33  158 1    
    70   34   35 am   BACKBONE|DICT|INTERRES
    71   34  159 1    
    72   35   36 2    
    73   35   37 1    
    74   37   38 1    
    75   37   39 1    
    76   37  160 1    
    77   38  161 1    
    78   38  162 1    
    79   38  163 1    
    80   39   40 am   BACKBONE|DICT|INTERRES
    81   39  164 1    
    82   40   41 2    
    83   40   42 1    
    84   42   43 1    
    85   42   44 1    
    86   42  165 1    
    87   43  166 1    
    88   43  167 1    
    89   43  168 1    
    90   44   45 am   BACKBONE|DICT|INTERRES
    91   44  169 1    
    92   45   46 2    
    93   45   47 1    
    94   47   48 1    
    95   47   49 1    
    96   47  170 1    
    97   48  171 1    
    98   48  172 1    
    99   48  173 1    
   100   49   50 am   BACKBONE|DICT|INTERRES
   101   49  174 1    
   102   50   51 2    
   103   50   52 1    
   104   52   53 1    
   105   52   54 1    
   106   52  175 1    
   107   53  176 1    
   108   53  177 1    
   109   53  178 1    
   110   54   55 am   BACKBONE|DICT|INTERRES
   111   54  179 1    
   112   55   56 2    
   113   55   57 1    
   114   57   58 1    
   115   57   59 1    
   116   57  180 1    
   117   58  181 1    
   118   58  182 1    
   119   58  183 1    
   120   59   60 am   BACKBONE|DICT|INTERRES
   121   59  184 1    
   122   60   61 2    
   123   60   62 1    
   124   62   63 1    
   125   62   64 1    
   126   62  185 1    
   127   63  186 1    
   128   63  187 1    
   129   63  188 1    
   130   64   65 am   BACKBONE|DICT|INTERRES
   131   64  189 1    
   132   65   66 2    
   133   67   68 2    
   134   67   69 am   BACKBONE|DICT|INTERRES
   135   69   70 1    
   136   69  190 1    
   137   70   71 1    
   138   70   72 1    
   139   70  191 1    
   140   71  192 1    
   141   71  193 1    
   142   71  194 1    
   143   72   73 2    
   144   72   74 am   BACKBONE|DICT|INTERRES
   145   74   75 1    
   146   74  195 1    
   147   75   76 1    
   148   75   77 1    
   149   75  196 1    
   150   76  197 1    
   151   76  198 1    
   152   76  199 1    
   153   77   78 2    
   154   77   79 am   BACKBONE|DICT|INTERRES
   155   79   80 1    
   156   79  200 1    
   157   80   81 1    
   158   80   82 1    
   159   80  201 1    
   160   81  202 1    
   161   81  203 1    
   162   81  204 1    
   163   82   83 2    
   164   82   84 am   BACKBONE|DICT|INTERRES
   165   84   85 1    
   166   84  205 1    
   167   85   86 1    
   168   85   87 1    
   169   85  206 1    
   170   86  207 1    
   171   86  208 1    
   172   86  209 1    
   173   87   88 2    
   174   87   89 am   BACKBONE|DICT|INTERRES
   175   89   90 1    
   176   89  210 1    
   177   90   91 1    
   178   90   92 1    
   179   90  211 1    
   180   91  212 1    
   181   91  213 1    
   182   91  214 1    
   183   92   93 2    
   184   92   94 am   BACKBONE|DICT|INTERRES
   185   94   95 1    
   186   94  215 1    
   187   95   96 1    
   188   95   97 1    
   189   95  216 1    
   190   96  217 1    
   191   96  218 1    
   192   96  219 1    
   193   97   98 2    
   194   97   99 am   BACKBONE|DICT|INTERRES
   195   99  100 1    
   196   99  220 1    
   197  100  101 1    
   198  100  102 1    
   199  100  221 1    
   200  101  222 1    
   201  101  223 1    
   202  101  224 1    
   203  102  103 2    
   204  102  104 am   BACKBONE|DICT|INTERRES
   205  104  105 1    
   206  104  225 1    
   207  105  106 1    
   208  105  107 1    
   209  105  226 1    
   210  106  227 1    
   211  106  228 1    
   212  106  229 1    
   213  107  108 2    
   214  107  109 am   BACKBONE|DICT|INTERRES
   215  109  110 1    
   216  109  230 1    
   217  110  111 1    
   218  110  112 1    
   219  110  231 1    
   220  111  232 1    
   221  111  233 1    
   222  111  234 1    
   223  112  113 2    
   224  112  114 am   BACKBONE|DICT|INTERRES
   225  114  115 1    
   226  114  235 1    
   227  115  116 1    
   228  115  117 1    
   229  115  236 1    
   230  116  237 1    
   231  116  238 1    
   232  116  239 1    
   233  117  118 2    
   234  117  119 am   BACKBONE|DICT|INTERRES
   235  119  120 1    
   236  119  240 1    
   237  120  121 1    
   238  120  124 1    
   239  120  241 1    
   240  121  122 am   BACKBONE|DICT|INTERRES
   241  121  123 2    
   242  122  242 1    
   243  122  243 1    
   244  124  125 1    
   245  124  244 1    
   246  124  245 1    
   247  125  126 1    
   248  126  246 1    
   249  126  247 1    
@<TRIPOS>SUBSTRUCTURE
     1 UNK         1 GROUP             0       ****    0 ROOT    
