@<TRIPOS>MOLECULE
3R540
247   249    1
SMALL
USER_CHARGES


@<TRIPOS>ATOM
      1 CA         -0.0748  -10.7079  -49.5014 C.3       0 UNK        -0.1800 
      2 C          -0.0336  -12.2264  -49.4050 C.2       0 UNK         0.5000 
      3 O           0.8978  -12.8499  -49.9135 O.2       0 UNK        -0.5000 
      4 N          -1.0350  -12.8215  -48.7519 N.am      1 UNK        -0.5000 
      5 CA         -1.1438  -14.2519  -48.4815 C.3       1 UNK         0.1400 
      6 C6         -1.5746  -15.0677  -49.7295 C.3       23 UNK        -0.0398 
      7 S7         -1.0426  -16.8126  -49.6503 S.3       23 UNK        -0.2404 
      8 C8          0.6228  -16.7140  -50.3727 C.3       23 UNK        -0.0205 
      9 C9          1.0136  -18.0414  -50.9976 C.ar      23 UNK        -0.0193 
     10 C10         0.5622  -18.3534  -52.2814 C.ar      23 UNK        -0.1150 
     11 C11         0.9023  -19.5662  -52.8822 C.ar      23 UNK        -0.0193 
     12 C12         1.7070  -20.4731  -52.1878 C.ar      23 UNK        -0.1150 
     13 C13         2.1711  -20.1712  -50.9029 C.ar      23 UNK        -0.0193 
     14 C14         1.8186  -18.9541  -50.3093 C.ar      23 UNK        -0.1150 
     15 C15         3.0728  -21.1553  -50.1744 C.3       23 UNK        -0.0205 
     16 S16         2.1197  -22.4784  -49.3700 S.3       23 UNK        -0.2404 
     17 C17         1.6299  -21.6648  -47.8142 C.3       23 UNK        -0.0398 
     18 CA          0.7929  -22.6028  -46.9111 C.3       11 UNK         0.1400 
     19 N           0.9122  -22.2685  -45.4897 N.am      11 UNK        -0.5000 
     20 C           0.4355  -23.0236  -44.4886 C.2       10 UNK         0.5000 
     21 O          -0.1214  -24.1088  -44.6546 O.2       10 UNK        -0.5000 
     22 CA          0.5530  -22.4486  -43.0656 C.3       10 UNK         0.1400 
     23 CB          1.9646  -22.6623  -42.4999 C.3       10 UNK        -0.1800 
     24 N           0.2050  -21.0291  -43.0065 N.am      10 UNK        -0.5000 
     25 C          -1.0051  -20.5333  -43.3038 C.2       9 UNK         0.5000 
     26 O          -1.9771  -21.2269  -43.6012 O.2       9 UNK        -0.5000 
     27 CA         -1.1356  -19.0024  -43.3312 C.3       9 UNK         0.1400 
     28 CB         -1.2650  -18.4364  -41.9088 C.3       9 UNK        -0.1800 
     29 N          -0.0128  -18.3682  -44.0200 N.am      9 UNK        -0.5000 
     30 C           0.2892  -18.5386  -45.3143 C.2       8 UNK         0.5000 
     31 O          -0.3811  -19.2158  -46.0912 O.2       8 UNK        -0.5000 
     32 CA          1.5903  -17.8927  -45.8165 C.3       8 UNK         0.1400 
     33 CB          1.3694  -16.4235  -46.1978 C.3       8 UNK        -0.1800 
     34 N           2.6690  -18.0008  -44.8354 N.am      8 UNK        -0.5000 
     35 C           3.2718  -19.1526  -44.5085 C.2       7 UNK         0.5000 
     36 O           3.0012  -20.2349  -45.0275 O.2       7 UNK        -0.5000 
     37 CA          4.3248  -19.0902  -43.3878 C.3       7 UNK         0.1400 
     38 CB          5.6863  -18.6523  -43.9475 C.3       7 UNK        -0.1800 
     39 N           3.9325  -18.1896  -42.3037 N.am      7 UNK        -0.5000 
     40 C           2.9076  -18.4132  -41.4691 C.2       6 UNK         0.5000 
     41 O           2.2117  -19.4284  -41.4972 O.2       6 UNK        -0.5000 
     42 CA          2.5764  -17.2864  -40.4710 C.3       6 UNK         0.1400 
     43 CB          3.4343  -17.4163  -39.2037 C.3       6 UNK        -0.1800 
     44 N           2.7415  -15.9423  -41.0380 N.am      6 UNK        -0.5000 
     45 C           2.0406  -15.4766  -42.0798 C.2       5 UNK         0.5000 
     46 O           1.2032  -16.1449  -42.6841 O.2       5 UNK        -0.5000 
     47 CA          2.3707  -14.0631  -42.5690 C.3       5 UNK         0.1400 
     48 CB          3.5389  -14.1044  -43.5724 C.3       5 UNK        -0.1800 
     49 N           1.1878  -13.4779  -43.1977 N.am      5 UNK        -0.5000 
     50 C           0.9966  -12.1649  -43.3843 C.2       4 UNK         0.5000 
     51 O           1.8203  -11.3082  -43.0593 O.2       4 UNK        -0.5000 
     52 CA         -0.3253  -11.7108  -44.0395 C.3       4 UNK         0.1400 
     53 CB         -0.1294  -11.5394  -45.5535 C.3       4 UNK        -0.1800 
     54 N          -1.4636  -12.6014  -43.8024 N.am      4 UNK        -0.5000 
     55 C          -1.9886  -12.8898  -42.6021 C.2       3 UNK         0.5000 
     56 O          -1.5862  -12.3877  -41.5516 O.2       3 UNK        -0.5000 
     57 CA         -3.1586  -13.9003  -42.5439 C.3       3 UNK         0.1400 
     58 CB         -4.4546  -13.2000  -42.1048 C.3       3 UNK        -0.1800 
     59 N          -3.4282  -14.6359  -43.7842 N.am      3 UNK        -0.5000 
     60 C          -2.5756  -15.4591  -44.4070 C.2       2 UNK         0.5000 
     61 O          -1.4241  -15.6483  -44.0260 O.2       2 UNK        -0.5000 
     62 CA         -3.0512  -16.1473  -45.7019 C.3       2 UNK         0.1400 
     63 CB         -4.5604  -15.9924  -45.9911 C.3       2 UNK        -0.1800 
     64 N          -2.2605  -15.7049  -46.8524 N.am      2 UNK        -0.5000 
     65 C          -2.0797  -14.4450  -47.2722 C.2       1 UNK         0.5000 
     66 O          -2.6033  -13.4605  -46.7400 O.2       1 UNK        -0.5000 
     67 C          -0.6796  -22.6654  -47.3638 C.2       11 UNK         0.5000 
     68 O          -1.0771  -23.6487  -47.9855 O.2       11 UNK        -0.5000 
     69 N          -1.4743  -21.6490  -46.9990 N.am      12 UNK        -0.5000 
     70 CA         -2.9077  -21.5739  -47.2788 C.3       12 UNK         0.1400 
     71 CB         -3.4490  -20.1978  -46.8633 C.3       12 UNK        -0.1800 
     72 C          -3.7111  -22.7091  -46.6227 C.2       12 UNK         0.5000 
     73 O          -4.6017  -23.2615  -47.2685 O.2       12 UNK        -0.5000 
     74 N          -3.3614  -23.0663  -45.3795 N.am      13 UNK        -0.5000 
     75 CA         -3.9327  -24.2016  -44.6562 C.3       13 UNK         0.1400 
     76 CB         -3.4656  -24.1770  -43.1930 C.3       13 UNK        -0.1800 
     77 C          -3.5982  -25.5491  -45.3211 C.2       13 UNK         0.5000 
     78 O          -4.5003  -26.3637  -45.5176 O.2       13 UNK        -0.5000 
     79 N          -2.3243  -25.7437  -45.6926 N.am      14 UNK        -0.5000 
     80 CA         -1.8308  -26.9358  -46.3880 C.3       14 UNK         0.1400 
     81 CB         -0.2966  -26.8935  -46.4524 C.3       14 UNK        -0.1800 
     82 C          -2.4298  -27.1040  -47.7973 C.2       14 UNK         0.5000 
     83 O          -2.7591  -28.2236  -48.1907 O.2       14 UNK        -0.5000 
     84 N          -2.5869  -25.9859  -48.5171 N.am      15 UNK        -0.5000 
     85 CA         -3.2071  -25.9127  -49.8401 C.3       15 UNK         0.1400 
     86 CB         -2.8020  -24.5839  -50.5000 C.3       15 UNK        -0.1800 
     87 C          -4.7430  -26.0387  -49.8111 C.2       15 UNK         0.5000 
     88 O          -5.3436  -26.1827  -50.8745 O.2       15 UNK        -0.5000 
     89 N          -5.3556  -25.9422  -48.6214 N.am      16 UNK        -0.5000 
     90 CA         -6.8007  -25.9072  -48.3710 C.3       16 UNK         0.1400 
     91 CB         -7.4538  -27.2630  -48.7106 C.3       16 UNK        -0.1800 
     92 C          -7.4751  -24.7073  -49.0706 C.2       16 UNK         0.5000 
     93 O          -8.4854  -24.8665  -49.7574 O.2       16 UNK        -0.5000 
     94 N          -6.8622  -23.5280  -48.8940 N.am      17 UNK        -0.5000 
     95 CA         -7.2314  -22.2153  -49.4348 C.3       17 UNK         0.1400 
     96 CB         -8.6549  -21.8059  -49.0028 C.3       17 UNK        -0.1800 
     97 C          -7.0060  -22.0538  -50.9540 C.2       17 UNK         0.5000 
     98 O          -7.4040  -21.0305  -51.5118 O.2       17 UNK        -0.5000 
     99 N          -6.3339  -23.0190  -51.6001 N.am      18 UNK        -0.5000 
    100 CA        -5.9805  -22.9718  -53.0245 C.3       18 UNK         0.1400 
    101 CB        -5.7745  -24.4010  -53.5490 C.3       18 UNK        -0.1800 
    102 C         -4.7470  -22.0938  -53.3276 C.2       18 UNK         0.5000 
    103 O         -4.4138  -21.9094  -54.4995 O.2       18 UNK        -0.5000 
    104 N         -4.0927  -21.5551  -52.2879 N.am      19 UNK        -0.5000 
    105 CA        -2.9488  -20.6400  -52.3529 C.3       19 UNK         0.1400 
    106 CB        -2.2514  -20.6316  -50.9799 C.3       19 UNK        -0.1800 
    107 C         -3.3583  -19.2215  -52.8142 C.2       19 UNK         0.5000 
    108 O         -3.1299  -18.2395  -52.1071 O.2       19 UNK        -0.5000 
    109 N         -3.9791  -19.1333  -53.9953 N.am      20 UNK        -0.5000 
    110 CA        -4.5217  -17.9184  -54.6027 C.3       20 UNK         0.1400 
    111 CB        -5.6040  -18.3252  -55.6187 C.3       20 UNK        -0.1800 
    112 C         -3.4187  -17.0387  -55.2264 C.2       20 UNK         0.5000 
    113 O         -3.4086  -16.8234  -56.4400 O.2       20 UNK        -0.5000 
    114 N         -2.4884  -16.5751  -54.3812 N.am      21 UNK        -0.5000 
    115 CA        -1.3293  -15.7091  -54.6453 C.3       21 UNK         0.1400 
    116 CB        -1.7656  -14.3446  -55.2111 C.3       21 UNK        -0.1800 
    117 C         -0.2213  -16.3420  -55.5139 C.2       21 UNK         0.5000 
    118 O          0.9520  -16.1523  -55.1975 O.2       21 UNK        -0.5000 
    119 N         -0.6129  -17.0716  -56.5675 N.am      22 UNK        -0.5000 
    120 CA         0.2002  -17.8546  -57.5206 C.3       22 UNK         0.1400 
    121 C          1.3907  -17.1266  -58.2226 C.2       22 UNK         0.5000 
    122 N          1.4351  -15.8006  -58.2453 N.am      22 UNK        -0.7600 
    123 O          2.2635  -17.7665  -58.8038 O.2       22 UNK        -0.5000 
    124 C124        0.5294  -19.2926  -57.0190 C.3       23 UNK        -0.0398 
    125 S125        1.6013  -19.3909  -55.5437 S.3       23 UNK        -0.2404 
    126 C126        0.3940  -19.8866  -54.2772 C.3       23 UNK        -0.0205 
    127 H127       -0.9540  -10.2945  -49.0065 H         1 UNK         0.0600 
    128 H128       -0.0947  -10.3982  -50.5462 H         1 UNK         0.0600 
    129 H129        0.8111  -10.2789  -49.0333 H         1 UNK         0.0600 
    130 H130       -1.7583  -12.2736  -48.3009 H         1 UNK         0.3000 
    131 H131       -0.1529  -14.5802  -48.1652 H         1 UNK         0.0600 
    132 H132       -1.1630  -14.6294  -50.6391 H         1 UNK         0.0800 
    133 H133       -2.6573  -15.0353  -49.8642 H         1 UNK         0.0800 
    134 H134        0.6618  -15.9361  -51.1366 H         1 UNK         0.0800 
    135 H135        1.3368  -16.4227  -49.6009 H         1 UNK         0.0800 
    136 H136       -0.0642  -17.6509  -52.8095 H         1 UNK         0.1150 
    137 H137        1.9777  -21.4122  -52.6498 H         1 UNK         0.1150 
    138 H138        2.1727  -18.7156  -49.3166 H         1 UNK         0.1150 
    139 H139        3.7627  -21.6074  -50.8885 H         1 UNK         0.0800 
    140 H140        3.6944  -20.6418  -49.4392 H         1 UNK         0.0800 
    141 H141        1.1047  -20.7316  -48.0259 H         1 UNK         0.0800 
    142 H142        2.5532  -21.3856  -47.3067 H         1 UNK         0.0800 
    143 H143        1.1994  -23.6121  -47.0082 H         1 UNK         0.0600 
    144 H144        1.4021  -21.4090  -45.2633 H         1 UNK         0.3000 
    145 H145       -0.1516  -22.9894  -42.4305 H         1 UNK         0.0600 
    146 H146        2.2352  -23.7188  -42.5151 H         1 UNK         0.0600 
    147 H147        2.7170  -22.1220  -43.0744 H         1 UNK         0.0600 
    148 H148        2.0290  -22.3244  -41.4655 H         1 UNK         0.0600 
    149 H149        0.9405  -20.3891  -42.7233 H         1 UNK         0.3000 
    150 H150       -2.0460  -18.7549  -43.8790 H         1 UNK         0.0600 
    151 H151       -1.3989  -17.3549  -41.9233 H         1 UNK         0.0600 
    152 H152       -0.3837  -18.6529  -41.3058 H         1 UNK         0.0600 
    153 H153       -2.1272  -18.8646  -41.3964 H         1 UNK         0.0600 
    154 H154        0.5330  -17.7012  -43.4795 H         1 UNK         0.3000 
    155 H155        1.8980  -18.4281  -46.7174 H         1 UNK         0.0600 
    156 H156        0.6066  -16.3517  -46.9703 H         1 UNK         0.0600 
    157 H157        2.2792  -15.9736  -46.5949 H         1 UNK         0.0600 
    158 H158        1.0362  -15.8248  -45.3499 H         1 UNK         0.0600 
    159 H159        2.8994  -17.1664  -44.3181 H         1 UNK         0.3000 
    160 H160        4.4322  -20.0955  -42.9748 H         1 UNK         0.0600 
    161 H161        6.0102  -19.3175  -44.7492 H         1 UNK         0.0600 
    162 H162        6.4559  -18.6769  -43.1758 H         1 UNK         0.0600 
    163 H163        5.6504  -17.6409  -44.3544 H         1 UNK         0.0600 
    164 H164        4.4533  -17.3306  -42.2085 H         1 UNK         0.3000 
    165 H165        1.5286  -17.3998  -40.1851 H         1 UNK         0.0600 
    166 H166        3.1444  -16.6799  -38.4540 H         1 UNK         0.0600 
    167 H167        3.3154  -18.4020  -38.7517 H         1 UNK         0.0600 
    168 H168        4.4949  -17.2790  -39.4180 H         1 UNK         0.0600 
    169 H169        3.4259  -15.3457  -40.5956 H         1 UNK         0.3000 
    170 H170        2.6516  -13.4594  -41.7034 H         1 UNK         0.0600 
    171 H171        3.8297  -13.1018  -43.8859 H         1 UNK         0.0600 
    172 H172        4.4211  -14.5706  -43.1322 H         1 UNK         0.0600 
    173 H173        3.2790  -14.6698  -44.4678 H         1 UNK         0.0600 
    174 H174        0.4605  -14.1421  -43.4440 H         1 UNK         0.3000 
    175 H175       -0.5800  -10.7367  -43.6172 H         1 UNK         0.0600 
    176 H176        0.1245  -12.4859  -46.0319 H         1 UNK         0.0600 
    177 H177       -1.0305  -11.1513  -46.0286 H         1 UNK         0.0600 
    178 H178        0.6776  -10.8377  -45.7681 H         1 UNK         0.0600 
    179 H179       -1.8644  -13.0490  -44.6172 H         1 UNK         0.3000 
    180 H180       -2.8956  -14.6370  -41.7821 H         1 UNK         0.0600 
    181 H181       -5.2630  -13.9172  -41.9613 H         1 UNK         0.0600 
    182 H182       -4.7822  -12.4658  -42.8419 H         1 UNK         0.0600 
    183 H183       -4.3183  -12.6759  -41.1578 H         1 UNK         0.0600 
    184 H184       -4.3383  -14.4940  -44.1973 H         1 UNK         0.3000 
    185 H185       -2.8458  -17.2111  -45.5768 H         1 UNK         0.0600 
    186 H186       -5.1613  -16.3721  -45.1638 H         1 UNK         0.0600 
    187 H187       -4.8458  -14.9543  -46.1650 H         1 UNK         0.0600 
    188 H188       -4.8430  -16.5617  -46.8768 H         1 UNK         0.0600 
    189 H189       -1.7899  -16.4423  -47.3606 H         1 UNK         0.3000 
    190 H190       -1.0659  -20.8507  -46.5164 H         1 UNK         0.3000 
    191 H191       -3.0360  -21.6773  -48.3564 H         1 UNK         0.0600 
    192 H192       -3.3106  -20.0170  -45.7970 H         1 UNK         0.0600 
    193 H193       -4.5152  -20.1148  -47.0771 H         1 UNK         0.0600 
    194 H194       -2.9450  -19.3975  -47.4060 H         1 UNK         0.0600 
    195 H195       -2.6571  -22.5207  -44.8908 H         1 UNK         0.3000 
    196 H196       -5.0188  -24.0886  -44.6641 H         1 UNK         0.0600 
    197 H197       -3.8914  -25.0101  -42.6326 H         1 UNK         0.0600 
    198 H198       -3.7773  -23.2578  -42.6967 H         1 UNK         0.0600 
    199 H199       -2.3807  -24.2470  -43.1130 H         1 UNK         0.0600 
    200 H200       -1.6330  -25.0326  -45.4692 H         1 UNK         0.3000 
    201 H201       -2.1214  -27.8083  -45.7993 H         1 UNK         0.0600 
    202 H202        0.1385  -26.8613  -45.4534 H         1 UNK         0.0600 
    203 H203        0.0592  -26.0197  -46.9993 H         1 UNK         0.0600 
    204 H204        0.0993  -27.7786  -46.9518 H         1 UNK         0.0600 
    205 H205       -2.2109  -25.1140  -48.1496 H         1 UNK         0.3000 
    206 H206       -2.8207  -26.7314  -50.4504 H         1 UNK         0.0600 
    207 H207       -3.1867  -24.5116  -51.5168 H         1 UNK         0.0600 
    208 H208       -3.1835  -23.7286  -49.9412 H         1 UNK         0.0600 
    209 H209       -1.7178  -24.4870  -50.5608 H         1 UNK         0.0600 
    210 H210       -4.7724  -25.8025  -47.8065 H         1 UNK         0.3000 
    211 H211       -6.9204  -25.7441  -47.2988 H         1 UNK         0.0600 
    212 H212       -7.4159  -27.4790  -49.7787 H         1 UNK         0.0600 
    213 H213       -8.5028  -27.2746  -48.4129 H         1 UNK         0.0600 
    214 H214       -6.9583  -28.0797  -48.1856 H         1 UNK         0.0600 
    215 H215       -6.0258  -23.5217  -48.3092 H         1 UNK         0.3000 
    216 H216       -6.5419  -21.5122  -48.9653 H         1 UNK         0.0600 
    217 H217       -8.8527  -20.7618  -49.2479 H         1 UNK         0.0600 
    218 H218       -8.7874  -21.9146  -47.9264 H         1 UNK         0.0600 
    219 H219       -9.4193  -22.4042  -49.4988 H         1 UNK         0.0600 
    220 H220       -6.0664  -23.8518  -51.0931 H         1 UNK         0.3000 
    221 H221       -6.8205  -22.5401  -53.5729 H         1 UNK         0.0600 
    222 H222       -4.8825  -24.8629  -53.1276 H         1 UNK         0.0600 
    223 H223       -6.6274  -25.0377  -53.3127 H         1 UNK         0.0600 
    224 H224       -5.6584  -24.4046  -54.6335 H         1 UNK         0.0600 
    225 H225       -4.4594  -21.7404  -51.3677 H         1 UNK         0.3000 
    226 H226       -2.2381  -21.0270  -53.0855 H         1 UNK         0.0600 
    227 H227       -1.9312  -21.6316  -50.6872 H         1 UNK         0.0600 
    228 H228       -1.3608  -20.0039  -50.9930 H         1 UNK         0.0600 
    229 H229       -2.9072  -20.2400  -50.2021 H         1 UNK         0.0600 
    230 H230       -4.1310  -20.0003  -54.5026 H         1 UNK         0.3000 
    231 H231       -5.0059  -17.3247  -53.8245 H         1 UNK         0.0600 
    232 H232       -5.1938  -18.9424  -56.4191 H         1 UNK         0.0600 
    233 H233       -6.4026  -18.8902  -55.1374 H         1 UNK         0.0600 
    234 H234       -6.0603  -17.4477  -56.0787 H         1 UNK         0.0600 
    235 H235       -2.5795  -16.8889  -53.4182 H         1 UNK         0.3000 
    236 H236       -0.8842  -15.5209  -53.6668 H         1 UNK         0.0600 
    237 H237       -2.2110  -14.4352  -56.2021 H         1 UNK         0.0600 
    238 H238       -2.4936  -13.8625  -54.5586 H         1 UNK         0.0600 
    239 H239       -0.9126  -13.6706  -55.2991 H         1 UNK         0.0600 
    240 H240       -1.6163  -17.0974  -56.7333 H         1 UNK         0.3000 
    241 H241       -0.4880  -18.0053  -58.3531 H         1 UNK         0.0600 
    242 H242        2.1976  -15.3366  -58.7134 H         1 UNK         0.3800 
    243 H243        0.7365  -15.2588  -57.7630 H         1 UNK         0.3800 
    244 H244       -0.4029  -19.8210  -56.8164 H         1 UNK         0.0800 
    245 H245        1.0056  -19.8685  -57.8139 H         1 UNK         0.0800 
    246 H246        0.1858  -20.9535  -54.3697 H         1 UNK         0.0800 
    247 H247       -0.5512  -19.3691  -54.4490 H         1 UNK         0.0800 
@<TRIPOS>BOND
     1    1    2 1    
     2    1  127 1    
     3    1  128 1    
     4    1  129 1    
     5    2    3 2    
     6    2    4 am   BACKBONE|DICT|INTERRES
     7    4    5 1    
     8    4  130 1    
     9    5    6 1    
    10    5   65 1    
    11    5  131 1    
    12    6    7 1    
    13    6  132 1    
    14    6  133 1    
    15    7    8 1    
    16    8    9 1    
    17    8  134 1    
    18    8  135 1    
    19    9   10 ar   
    20    9   14 ar   
    21   10   11 ar   
    22   10  136 1    
    23   11   12 ar   
    24   11  126 1    
    25   12   13 ar   
    26   12  137 1    
    27   13   14 ar   
    28   13   15 1    
    29   14  138 1    
    30   15   16 1    
    31   15  139 1    
    32   15  140 1    
    33   16   17 1    
    34   17   18 1    
    35   17  141 1    
    36   17  142 1    
    37   18   19 1    
    38   18   67 1    
    39   18  143 1    
    40   19   20 am   BACKBONE|DICT|INTERRES
    41   19  144 1    
    42   20   21 2    
    43   20   22 1    
    44   22   23 1    
    45   22   24 1    
    46   22  145 1    
    47   23  146 1    
    48   23  147 1    
    49   23  148 1    
    50   24   25 am   BACKBONE|DICT|INTERRES
    51   24  149 1    
    52   25   26 2    
    53   25   27 1    
    54   27   28 1    
    55   27   29 1    
    56   27  150 1    
    57   28  151 1    
    58   28  152 1    
    59   28  153 1    
    60   29   30 am   BACKBONE|DICT|INTERRES
    61   29  154 1    
    62   30   31 2    
    63   30   32 1    
    64   32   33 1    
    65   32   34 1    
    66   32  155 1    
    67   33  156 1    
    68   33  157 1    
    69   33  158 1    
    70   34   35 am   BACKBONE|DICT|INTERRES
    71   34  159 1    
    72   35   36 2    
    73   35   37 1    
    74   37   38 1    
    75   37   39 1    
    76   37  160 1    
    77   38  161 1    
    78   38  162 1    
    79   38  163 1    
    80   39   40 am   BACKBONE|DICT|INTERRES
    81   39  164 1    
    82   40   41 2    
    83   40   42 1    
    84   42   43 1    
    85   42   44 1    
    86   42  165 1    
    87   43  166 1    
    88   43  167 1    
    89   43  168 1    
    90   44   45 am   BACKBONE|DICT|INTERRES
    91   44  169 1    
    92   45   46 2    
    93   45   47 1    
    94   47   48 1    
    95   47   49 1    
    96   47  170 1    
    97   48  171 1    
    98   48  172 1    
    99   48  173 1    
   100   49   50 am   BACKBONE|DICT|INTERRES
   101   49  174 1    
   102   50   51 2    
   103   50   52 1    
   104   52   53 1    
   105   52   54 1    
   106   52  175 1    
   107   53  176 1    
   108   53  177 1    
   109   53  178 1    
   110   54   55 am   BACKBONE|DICT|INTERRES
   111   54  179 1    
   112   55   56 2    
   113   55   57 1    
   114   57   58 1    
   115   57   59 1    
   116   57  180 1    
   117   58  181 1    
   118   58  182 1    
   119   58  183 1    
   120   59   60 am   BACKBONE|DICT|INTERRES
   121   59  184 1    
   122   60   61 2    
   123   60   62 1    
   124   62   63 1    
   125   62   64 1    
   126   62  185 1    
   127   63  186 1    
   128   63  187 1    
   129   63  188 1    
   130   64   65 am   BACKBONE|DICT|INTERRES
   131   64  189 1    
   132   65   66 2    
   133   67   68 2    
   134   67   69 am   BACKBONE|DICT|INTERRES
   135   69   70 1    
   136   69  190 1    
   137   70   71 1    
   138   70   72 1    
   139   70  191 1    
   140   71  192 1    
   141   71  193 1    
   142   71  194 1    
   143   72   73 2    
   144   72   74 am   BACKBONE|DICT|INTERRES
   145   74   75 1    
   146   74  195 1    
   147   75   76 1    
   148   75   77 1    
   149   75  196 1    
   150   76  197 1    
   151   76  198 1    
   152   76  199 1    
   153   77   78 2    
   154   77   79 am   BACKBONE|DICT|INTERRES
   155   79   80 1    
   156   79  200 1    
   157   80   81 1    
   158   80   82 1    
   159   80  201 1    
   160   81  202 1    
   161   81  203 1    
   162   81  204 1    
   163   82   83 2    
   164   82   84 am   BACKBONE|DICT|INTERRES
   165   84   85 1    
   166   84  205 1    
   167   85   86 1    
   168   85   87 1    
   169   85  206 1    
   170   86  207 1    
   171   86  208 1    
   172   86  209 1    
   173   87   88 2    
   174   87   89 am   BACKBONE|DICT|INTERRES
   175   89   90 1    
   176   89  210 1    
   177   90   91 1    
   178   90   92 1    
   179   90  211 1    
   180   91  212 1    
   181   91  213 1    
   182   91  214 1    
   183   92   93 2    
   184   92   94 am   BACKBONE|DICT|INTERRES
   185   94   95 1    
   186   94  215 1    
   187   95   96 1    
   188   95   97 1    
   189   95  216 1    
   190   96  217 1    
   191   96  218 1    
   192   96  219 1    
   193   97   98 2    
   194   97   99 am   BACKBONE|DICT|INTERRES
   195   99  100 1    
   196   99  220 1    
   197  100  101 1    
   198  100  102 1    
   199  100  221 1    
   200  101  222 1    
   201  101  223 1    
   202  101  224 1    
   203  102  103 2    
   204  102  104 am   BACKBONE|DICT|INTERRES
   205  104  105 1    
   206  104  225 1    
   207  105  106 1    
   208  105  107 1    
   209  105  226 1    
   210  106  227 1    
   211  106  228 1    
   212  106  229 1    
   213  107  108 2    
   214  107  109 am   BACKBONE|DICT|INTERRES
   215  109  110 1    
   216  109  230 1    
   217  110  111 1    
   218  110  112 1    
   219  110  231 1    
   220  111  232 1    
   221  111  233 1    
   222  111  234 1    
   223  112  113 2    
   224  112  114 am   BACKBONE|DICT|INTERRES
   225  114  115 1    
   226  114  235 1    
   227  115  116 1    
   228  115  117 1    
   229  115  236 1    
   230  116  237 1    
   231  116  238 1    
   232  116  239 1    
   233  117  118 2    
   234  117  119 am   BACKBONE|DICT|INTERRES
   235  119  120 1    
   236  119  240 1    
   237  120  121 1    
   238  120  124 1    
   239  120  241 1    
   240  121  122 am   BACKBONE|DICT|INTERRES
   241  121  123 2    
   242  122  242 1    
   243  122  243 1    
   244  124  125 1    
   245  124  244 1    
   246  124  245 1    
   247  125  126 1    
   248  126  246 1    
   249  126  247 1    
@<TRIPOS>SUBSTRUCTURE
     1 UNK         1 GROUP             0       ****    0 ROOT    
