@<TRIPOS>MOLECULE
3R540
247   249    1
SMALL
USER_CHARGES


@<TRIPOS>ATOM
      1 CA         -2.1450  -13.2646  -50.3829 C.3       0 UNK        -0.1800 
      2 C          -1.1884  -13.7641  -49.3102 C.2       0 UNK         0.5000 
      3 O          -1.2532  -13.3046  -48.1696 O.2       0 UNK        -0.5000 
      4 N          -0.3150  -14.7196  -49.6641 N.am      1 UNK        -0.5000 
      5 CA          0.6970  -15.3233  -48.7832 C.3       1 UNK         0.1400 
      6 C6          1.6060  -16.3189  -49.5493 C.3       23 UNK        -0.0398 
      7 S7          3.2535  -16.4763  -48.7832 S.3       23 UNK        -0.2404 
      8 C8          4.1908  -17.3317  -50.0877 C.3       23 UNK        -0.0205 
      9 C9          4.0637  -18.8451  -49.9901 C.ar      23 UNK        -0.0193 
     10 C10         3.2381  -19.5521  -50.8696 C.ar      23 UNK        -0.1150 
     11 C11         3.1691  -20.9501  -50.8115 C.ar      23 UNK        -0.0193 
     12 C12         3.9307  -21.6315  -49.8568 C.ar      23 UNK        -0.1150 
     13 C13         4.7498  -20.9376  -48.9599 C.ar      23 UNK        -0.0193 
     14 C14         4.8103  -19.5435  -49.0367 C.ar      23 UNK        -0.1150 
     15 C15         5.6219  -21.6731  -47.9441 C.3       23 UNK        -0.0205 
     16 S16         4.8213  -23.1071  -47.1469 S.3       23 UNK        -0.2404 
     17 C17         3.5735  -22.3013  -46.0895 C.3       23 UNK        -0.0398 
     18 CA          2.2496  -23.1044  -46.0158 C.3       11 UNK         0.1400 
     19 N           1.5263  -22.8209  -44.7744 N.am      11 UNK        -0.5000 
     20 C           0.5165  -23.5517  -44.2822 C.2       10 UNK         0.5000 
     21 O           0.0561  -24.5489  -44.8386 O.2       10 UNK        -0.5000 
     22 CA         -0.0692  -23.0991  -42.9322 C.3       10 UNK         0.1400 
     23 CB          0.7678  -23.6369  -41.7609 C.3       10 UNK        -0.1800 
     24 N          -0.1425  -21.6416  -42.8505 N.am      10 UNK        -0.5000 
     25 C          -1.1738  -20.9198  -43.3093 C.2       9 UNK         0.5000 
     26 O          -2.2253  -21.4171  -43.7125 O.2       9 UNK        -0.5000 
     27 CA         -1.0175  -19.3870  -43.3178 C.3       9 UNK         0.1400 
     28 CB         -1.6701  -18.7775  -42.0672 C.3       9 UNK        -0.1800 
     29 N           0.3722  -18.9313  -43.4068 N.am      9 UNK        -0.5000 
     30 C           1.1975  -19.1378  -44.4426 C.2       8 UNK         0.5000 
     31 O           0.8554  -19.6908  -45.4836 O.2       8 UNK        -0.5000 
     32 CA          2.6763  -18.7465  -44.2530 C.3       8 UNK         0.1400 
     33 CB          2.9544  -17.3117  -44.7139 C.3       8 UNK        -0.1800 
     34 N           3.1243  -18.9090  -42.8707 N.am      8 UNK        -0.5000 
     35 C           3.2608  -20.0913  -42.2560 C.2       7 UNK         0.5000 
     36 O           3.0220  -21.1698  -42.7994 O.2       7 UNK        -0.5000 
     37 CA          3.6868  -20.0499  -40.7781 C.3       7 UNK         0.1400 
     38 CB          5.2078  -19.8757  -40.6558 C.3       7 UNK        -0.1800 
     39 N           3.0115  -18.9734  -40.0508 N.am      7 UNK        -0.5000 
     40 C           1.7115  -18.9914  -39.7238 C.2       6 UNK         0.5000 
     41 O           0.9725  -19.9546  -39.9267 O.2       6 UNK        -0.5000 
     42 CA          1.1335  -17.7052  -39.0997 C.3       6 UNK         0.1400 
     43 CB          1.2919  -17.7284  -37.5721 C.3       6 UNK        -0.1800 
     44 N           1.7346  -16.4765  -39.6320 N.am      6 UNK        -0.5000 
     45 C           1.6260  -16.0717  -40.9040 C.2       5 UNK         0.5000 
     46 O           1.0119  -16.6996  -41.7683 O.2       5 UNK        -0.5000 
     47 CA          2.3679  -14.7863  -41.2900 C.3       5 UNK         0.1400 
     48 CB          3.8820  -15.0603  -41.4002 C.3       5 UNK        -0.1800 
     49 N           1.8433  -14.3099  -42.5679 N.am      5 UNK        -0.5000 
     50 C           2.0848  -13.1166  -43.1212 C.2       4 UNK         0.5000 
     51 O           2.7631  -12.2395  -42.5841 O.2       4 UNK        -0.5000 
     52 CA          1.4763  -12.8501  -44.5106 C.3       4 UNK         0.1400 
     53 CB          2.4543  -13.2804  -45.6147 C.3       4 UNK        -0.1800 
     54 N           0.1765  -13.4943  -44.7262 N.am      4 UNK        -0.5000 
     55 C          -0.9697  -13.0588  -44.1785 C.2       3 UNK         0.5000 
     56 O          -1.0123  -12.1377  -43.3611 O.2       3 UNK        -0.5000 
     57 CA         -2.2948  -13.7157  -44.6193 C.3       3 UNK         0.1400 
     58 CB         -3.2460  -12.6687  -45.2240 C.3       3 UNK        -0.1800 
     59 N          -2.0952  -14.7737  -45.6087 N.am      3 UNK        -0.5000 
     60 C          -2.2398  -16.0845  -45.3710 C.2       2 UNK         0.5000 
     61 O          -2.6294  -16.5366  -44.2958 O.2       2 UNK        -0.5000 
     62 CA         -1.9009  -17.0675  -46.5151 C.3       2 UNK         0.1400 
     63 CB         -3.1800  -17.7059  -47.0765 C.3       2 UNK        -0.1800 
     64 N          -1.1385  -16.4831  -47.6198 N.am      2 UNK        -0.5000 
     65 C           0.0933  -15.9659  -47.5139 C.2       1 UNK         0.5000 
     66 O           0.7054  -15.9080  -46.4502 O.2       1 UNK        -0.5000 
     67 C           1.3867  -22.8928  -47.2792 C.2       11 UNK         0.5000 
     68 O           1.4014  -23.7408  -48.1733 O.2       11 UNK        -0.5000 
     69 N           0.6664  -21.7676  -47.3341 N.am      12 UNK        -0.5000 
     70 CA         -0.0964  -21.3170  -48.4911 C.3       12 UNK         0.1400 
     71 CB          0.3505  -19.8873  -48.8329 C.3       12 UNK        -0.1800 
     72 C          -1.5998  -21.3116  -48.1967 C.2       12 UNK         0.5000 
     73 O          -2.0135  -21.1125  -47.0535 O.2       12 UNK        -0.5000 
     74 N          -2.3820  -21.4540  -49.2689 N.am      13 UNK        -0.5000 
     75 CA         -3.8199  -21.1966  -49.3118 C.3       13 UNK         0.1400 
     76 CB         -4.5220  -22.4261  -49.9002 C.3       13 UNK        -0.1800 
     77 C          -4.1042  -19.9203  -50.1315 C.2       13 UNK         0.5000 
     78 O          -5.0947  -19.2358  -49.8649 O.2       13 UNK        -0.5000 
     79 N          -3.1954  -19.5956  -51.0676 N.am      14 UNK        -0.5000 
     80 CA         -2.9743  -18.3011  -51.7212 C.3       14 UNK         0.1400 
     81 CB         -2.4765  -17.2774  -50.6835 C.3       14 UNK        -0.1800 
     82 C          -4.1492  -17.7503  -52.5532 C.2       14 UNK         0.5000 
     83 O          -4.2058  -16.5415  -52.7825 O.2       14 UNK        -0.5000 
     84 N          -5.0839  -18.6243  -52.9561 N.am      15 UNK        -0.5000 
     85 CA         -6.3771  -18.3050  -53.5798 C.3       15 UNK         0.1400 
     86 CB         -6.1982  -17.5825  -54.9311 C.3       15 UNK        -0.1800 
     87 C          -7.3549  -17.5724  -52.6322 C.2       15 UNK         0.5000 
     88 O          -8.4114  -17.1253  -53.0808 O.2       15 UNK        -0.5000 
     89 N          -7.0058  -17.4850  -51.3415 N.am      16 UNK        -0.5000 
     90 CA         -7.8215  -16.9096  -50.2792 C.3       16 UNK         0.1400 
     91 CB         -6.9091  -16.1897  -49.2713 C.3       16 UNK        -0.1800 
     92 C          -8.6337  -18.0213  -49.6029 C.2       16 UNK         0.5000 
     93 O          -9.8575  -17.9151  -49.5146 O.2       16 UNK        -0.5000 
     94 N          -7.9384  -19.0824  -49.1712 N.am      17 UNK        -0.5000 
     95 CA         -8.5485  -20.2895  -48.6155 C.3       17 UNK         0.1400 
     96 CB         -7.5910  -20.9165  -47.5908 C.3       17 UNK        -0.1800 
     97 C          -8.9034  -21.2965  -49.7234 C.2       17 UNK         0.5000 
     98 O          -9.9571  -21.9299  -49.6549 O.2       17 UNK        -0.5000 
     99 N          -8.0254  -21.4097  -50.7268 N.am      18 UNK        -0.5000 
    100 CA        -8.1185  -22.2949  -51.8833 C.3       18 UNK         0.1400 
    101 CB        -7.9978  -23.7730  -51.4598 C.3       18 UNK        -0.1800 
    102 C         -6.9803  -21.9314  -52.8449 C.2       18 UNK         0.5000 
    103 O         -5.9827  -21.3440  -52.4198 O.2       18 UNK        -0.5000 
    104 N         -7.1277  -22.2930  -54.1230 N.am      19 UNK        -0.5000 
    105 CA        -6.1004  -22.0839  -55.1490 C.3       19 UNK         0.1400 
    106 CB        -6.7761  -22.0499  -56.5279 C.3       19 UNK        -0.1800 
    107 C         -4.9874  -23.1520  -55.1194 C.2       19 UNK         0.5000 
    108 O         -3.9266  -22.9309  -55.7041 O.2       19 UNK        -0.5000 
    109 N         -5.2481  -24.2830  -54.4472 N.am      20 UNK        -0.5000 
    110 CA        -4.4290  -25.4992  -54.4273 C.3       20 UNK         0.1400 
    111 CB        -5.1603  -26.5642  -53.5948 C.3       20 UNK        -0.1800 
    112 C         -2.9827  -25.3305  -53.9200 C.2       20 UNK         0.5000 
    113 O         -2.1229  -26.1279  -54.2974 O.2       20 UNK        -0.5000 
    114 N         -2.7368  -24.3132  -53.0871 N.am      21 UNK        -0.5000 
    115 CA        -1.4207  -23.9707  -52.5611 C.3       21 UNK         0.1400 
    116 CB        -1.3400  -24.3535  -51.0731 C.3       21 UNK        -0.1800 
    117 C         -1.1730  -22.4794  -52.8143 C.2       21 UNK         0.5000 
    118 O         -1.4444  -21.6512  -51.9404 O.2       21 UNK        -0.5000 
    119 N         -0.6709  -22.1782  -54.0172 N.am      22 UNK        -0.5000 
    120 CA        -0.2708  -20.8411  -54.4948 C.3       22 UNK         0.1400 
    121 C         -1.4558  -19.8769  -54.8007 C.2       22 UNK         0.5000 
    122 N         -2.6711  -20.3635  -55.0137 N.am      22 UNK        -0.7600 
    123 O         -1.2738  -18.6651  -54.8740 O.2       22 UNK        -0.5000 
    124 C124        0.8409  -20.1763  -53.6281 C.3       23 UNK        -0.0398 
    125 S125        2.3371  -21.2183  -53.4853 S.3       23 UNK        -0.2404 
    126 C126        2.2598  -21.7474  -51.7414 C.3       23 UNK        -0.0205 
    127 H127       -3.1737  -13.4872  -50.0991 H         1 UNK         0.0600 
    128 H128       -1.9510  -13.7296  -51.3497 H         1 UNK         0.0600 
    129 H129       -2.0475  -12.1853  -50.4988 H         1 UNK         0.0600 
    130 H130       -0.3070  -15.0372  -50.6225 H         1 UNK         0.3000 
    131 H131        1.3177  -14.4907  -48.4459 H         1 UNK         0.0600 
    132 H132        1.1454  -17.3027  -49.6417 H         1 UNK         0.0800 
    133 H133        1.7614  -15.9637  -50.5689 H         1 UNK         0.0800 
    134 H134        5.2427  -17.0588  -49.9915 H         1 UNK         0.0800 
    135 H135        3.8803  -16.9771  -51.0716 H         1 UNK         0.0800 
    136 H136        2.6545  -19.0133  -51.6016 H         1 UNK         0.1150 
    137 H137        3.8834  -22.7103  -49.8097 H         1 UNK         0.1150 
    138 H138        5.4534  -18.9951  -48.3625 H         1 UNK         0.1150 
    139 H139        6.5184  -22.0220  -48.4579 H         1 UNK         0.0800 
    140 H140        5.9623  -20.9900  -47.1642 H         1 UNK         0.0800 
    141 H141        3.3953  -21.2773  -46.4226 H         1 UNK         0.0800 
    142 H142        4.0200  -22.2192  -45.0977 H         1 UNK         0.0800 
    143 H143        2.5051  -24.1659  -45.9779 H         1 UNK         0.0600 
    144 H144        1.8784  -22.0529  -44.2144 H         1 UNK         0.3000 
    145 H145       -1.0722  -23.5217  -42.8422 H         1 UNK         0.0600 
    146 H146        0.3454  -23.3321  -40.8032 H         1 UNK         0.0600 
    147 H147        0.7956  -24.7272  -41.7726 H         1 UNK         0.0600 
    148 H148        1.7984  -23.2842  -41.7980 H         1 UNK         0.0600 
    149 H149        0.6796  -21.1586  -42.5146 H         1 UNK         0.3000 
    150 H150       -1.5499  -19.0197  -44.1939 H         1 UNK         0.0600 
    151 H151       -2.7339  -19.0144  -42.0306 H         1 UNK         0.0600 
    152 H152       -1.5802  -17.6913  -42.0613 H         1 UNK         0.0600 
    153 H153       -1.2189  -19.1553  -41.1506 H         1 UNK         0.0600 
    154 H154        0.7131  -18.3762  -42.6275 H         1 UNK         0.3000 
    155 H155        3.2774  -19.4131  -44.8741 H         1 UNK         0.0600 
    156 H156        2.2907  -16.5948  -44.2317 H         1 UNK         0.0600 
    157 H157        2.8094  -17.2266  -45.7904 H         1 UNK         0.0600 
    158 H158        3.9827  -17.0155  -44.5074 H         1 UNK         0.0600 
    159 H159        3.2934  -18.0658  -42.3455 H         1 UNK         0.3000 
    160 H160        3.4145  -21.0050  -40.3234 H         1 UNK         0.0600 
    161 H161        5.5431  -18.9272  -41.0774 H         1 UNK         0.0600 
    162 H162        5.7345  -20.6734  -41.1815 H         1 UNK         0.0600 
    163 H163        5.5251  -19.9103  -39.6135 H         1 UNK         0.0600 
    164 H164        3.5550  -18.1520  -39.8312 H         1 UNK         0.3000 
    165 H165        0.0662  -17.6816  -39.3305 H         1 UNK         0.0600 
    166 H166        0.8079  -16.8666  -37.1122 H         1 UNK         0.0600 
    167 H167        0.8340  -18.6221  -37.1458 H         1 UNK         0.0600 
    168 H168        2.3413  -17.7236  -37.2750 H         1 UNK         0.0600 
    169 H169        2.2598  -15.9127  -38.9789 H         1 UNK         0.3000 
    170 H170        2.1786  -14.0326  -40.5233 H         1 UNK         0.0600 
    171 H171        4.2827  -15.4593  -40.4678 H         1 UNK         0.0600 
    172 H172        4.1034  -15.7801  -42.1888 H         1 UNK         0.0600 
    173 H173        4.4392  -14.1494  -41.6181 H         1 UNK         0.0600 
    174 H174        1.2397  -14.9711  -43.0412 H         1 UNK         0.3000 
    175 H175        1.3348  -11.7709  -44.6015 H         1 UNK         0.0600 
    176 H176        2.6654  -14.3494  -45.5754 H         1 UNK         0.0600 
    177 H177        2.0588  -13.0499  -46.6036 H         1 UNK         0.0600 
    178 H178        3.4066  -12.7578  -45.5165 H         1 UNK         0.0600 
    179 H179        0.1622  -14.2907  -45.3546 H         1 UNK         0.3000 
    180 H180       -2.7641  -14.1140  -43.7177 H         1 UNK         0.0600 
    181 H181       -2.8150  -12.1978  -46.1084 H         1 UNK         0.0600 
    182 H182       -3.4706  -11.8782  -44.5068 H         1 UNK         0.0600 
    183 H183       -4.1949  -13.1203  -45.5141 H         1 UNK         0.0600 
    184 H184       -1.7790  -14.4674  -46.5231 H         1 UNK         0.3000 
    185 H185       -1.2830  -17.8600  -46.0921 H         1 UNK         0.0600 
    186 H186       -2.9433  -18.4598  -47.8258 H         1 UNK         0.0600 
    187 H187       -3.7465  -18.2056  -46.2897 H         1 UNK         0.0600 
    188 H188       -3.8356  -16.9645  -47.5344 H         1 UNK         0.0600 
    189 H189       -1.6021  -16.4350  -48.5139 H         1 UNK         0.3000 
    190 H190        0.6657  -21.1261  -46.5419 H         1 UNK         0.3000 
    191 H191        0.0971  -21.9612  -49.3497 H         1 UNK         0.0600 
    192 H192       -0.0195  -19.1639  -48.1051 H         1 UNK         0.0600 
    193 H193       -0.0144  -19.5885  -49.8160 H         1 UNK         0.0600 
    194 H194        1.4355  -19.8039  -48.8401 H         1 UNK         0.0600 
    195 H195       -1.9402  -21.6038  -50.1722 H         1 UNK         0.3000 
    196 H196       -4.2060  -21.0291  -48.3046 H         1 UNK         0.0600 
    197 H197       -4.2099  -22.6173  -50.9269 H         1 UNK         0.0600 
    198 H198       -4.3079  -23.3191  -49.3131 H         1 UNK         0.0600 
    199 H199       -5.6015  -22.2955  -49.8978 H         1 UNK         0.0600 
    200 H200       -2.4990  -20.2972  -51.3035 H         1 UNK         0.3000 
    201 H201       -2.1576  -18.4606  -52.4215 H         1 UNK         0.0600 
    202 H202       -3.2644  -17.0069  -49.9801 H         1 UNK         0.0600 
    203 H203       -2.1427  -16.3615  -51.1708 H         1 UNK         0.0600 
    204 H204       -1.6313  -17.6735  -50.1222 H         1 UNK         0.0600 
    205 H205       -4.9774  -19.5957  -52.6784 H         1 UNK         0.3000 
    206 H206       -6.8530  -19.2577  -53.8024 H         1 UNK         0.0600 
    207 H207       -5.8349  -16.5625  -54.8064 H         1 UNK         0.0600 
    208 H208       -5.4969  -18.1147  -55.5736 H         1 UNK         0.0600 
    209 H209       -7.1457  -17.5228  -55.4676 H         1 UNK         0.0600 
    210 H210       -6.1422  -17.9282  -51.0492 H         1 UNK         0.3000 
    211 H211       -8.5164  -16.1759  -50.6934 H         1 UNK         0.0600 
    212 H212       -6.3635  -15.3762  -49.7500 H         1 UNK         0.0600 
    213 H213       -6.1754  -16.8636  -48.8275 H         1 UNK         0.0600 
    214 H214       -7.4925  -15.7565  -48.4580 H         1 UNK         0.0600 
    215 H215       -6.9298  -19.0897  -49.2936 H         1 UNK         0.3000 
    216 H216       -9.4705  -20.0272  -48.0919 H         1 UNK         0.0600 
    217 H217       -8.0194  -21.8219  -47.1589 H         1 UNK         0.0600 
    218 H218       -7.3896  -20.2282  -46.7699 H         1 UNK         0.0600 
    219 H219       -6.6365  -21.1866  -48.0398 H         1 UNK         0.0600 
    220 H220       -7.1904  -20.8375  -50.7262 H         1 UNK         0.3000 
    221 H221       -9.0741  -22.1243  -52.3828 H         1 UNK         0.0600 
    222 H222       -8.8089  -24.0699  -50.7955 H         1 UNK         0.0600 
    223 H223       -7.0572  -23.9697  -50.9443 H         1 UNK         0.0600 
    224 H224       -8.0410  -24.4354  -52.3250 H         1 UNK         0.0600 
    225 H225       -7.9747  -22.7596  -54.4162 H         1 UNK         0.3000 
    226 H226       -5.6242  -21.1148  -54.9868 H         1 UNK         0.0600 
    227 H227       -7.5181  -21.2530  -56.5829 H         1 UNK         0.0600 
    228 H228       -6.0458  -21.8660  -57.3173 H         1 UNK         0.0600 
    229 H229       -7.2758  -22.9922  -56.7557 H         1 UNK         0.0600 
    230 H230       -6.1439  -24.3508  -53.9894 H         1 UNK         0.3000 
    231 H231       -4.3635  -25.8582  -55.4564 H         1 UNK         0.0600 
    232 H232       -5.2971  -26.2411  -52.5618 H         1 UNK         0.0600 
    233 H233       -4.6003  -27.5002  -53.5745 H         1 UNK         0.0600 
    234 H234       -6.1432  -26.7863  -54.0109 H         1 UNK         0.0600 
    235 H235       -3.4913  -23.6811  -52.8608 H         1 UNK         0.3000 
    236 H236       -0.6334  -24.5197  -53.0823 H         1 UNK         0.0600 
    237 H237       -2.1480  -23.9144  -50.4917 H         1 UNK         0.0600 
    238 H238       -1.3983  -25.4347  -50.9482 H         1 UNK         0.0600 
    239 H239       -0.3963  -24.0282  -50.6336 H         1 UNK         0.0600 
    240 H240       -0.5256  -22.9288  -54.6769 H         1 UNK         0.3000 
    241 H241        0.1715  -21.0194  -55.4754 H         1 UNK         0.0600 
    242 H242       -2.8375  -21.3614  -55.0689 H         1 UNK         0.3800 
    243 H243       -3.4114  -19.7206  -55.2379 H         1 UNK         0.3800 
    244 H244        0.4599  -19.9140  -52.6405 H         1 UNK         0.0800 
    245 H245        1.1583  -19.2352  -54.0798 H         1 UNK         0.0800 
    246 H246        1.2393  -21.6861  -51.3691 H         1 UNK         0.0800 
    247 H247        2.5265  -22.8048  -51.7089 H         1 UNK         0.0800 
@<TRIPOS>BOND
     1    1    2 1    
     2    1  127 1    
     3    1  128 1    
     4    1  129 1    
     5    2    3 2    
     6    2    4 am   BACKBONE|DICT|INTERRES
     7    4    5 1    
     8    4  130 1    
     9    5    6 1    
    10    5   65 1    
    11    5  131 1    
    12    6    7 1    
    13    6  132 1    
    14    6  133 1    
    15    7    8 1    
    16    8    9 1    
    17    8  134 1    
    18    8  135 1    
    19    9   10 ar   
    20    9   14 ar   
    21   10   11 ar   
    22   10  136 1    
    23   11   12 ar   
    24   11  126 1    
    25   12   13 ar   
    26   12  137 1    
    27   13   14 ar   
    28   13   15 1    
    29   14  138 1    
    30   15   16 1    
    31   15  139 1    
    32   15  140 1    
    33   16   17 1    
    34   17   18 1    
    35   17  141 1    
    36   17  142 1    
    37   18   19 1    
    38   18   67 1    
    39   18  143 1    
    40   19   20 am   BACKBONE|DICT|INTERRES
    41   19  144 1    
    42   20   21 2    
    43   20   22 1    
    44   22   23 1    
    45   22   24 1    
    46   22  145 1    
    47   23  146 1    
    48   23  147 1    
    49   23  148 1    
    50   24   25 am   BACKBONE|DICT|INTERRES
    51   24  149 1    
    52   25   26 2    
    53   25   27 1    
    54   27   28 1    
    55   27   29 1    
    56   27  150 1    
    57   28  151 1    
    58   28  152 1    
    59   28  153 1    
    60   29   30 am   BACKBONE|DICT|INTERRES
    61   29  154 1    
    62   30   31 2    
    63   30   32 1    
    64   32   33 1    
    65   32   34 1    
    66   32  155 1    
    67   33  156 1    
    68   33  157 1    
    69   33  158 1    
    70   34   35 am   BACKBONE|DICT|INTERRES
    71   34  159 1    
    72   35   36 2    
    73   35   37 1    
    74   37   38 1    
    75   37   39 1    
    76   37  160 1    
    77   38  161 1    
    78   38  162 1    
    79   38  163 1    
    80   39   40 am   BACKBONE|DICT|INTERRES
    81   39  164 1    
    82   40   41 2    
    83   40   42 1    
    84   42   43 1    
    85   42   44 1    
    86   42  165 1    
    87   43  166 1    
    88   43  167 1    
    89   43  168 1    
    90   44   45 am   BACKBONE|DICT|INTERRES
    91   44  169 1    
    92   45   46 2    
    93   45   47 1    
    94   47   48 1    
    95   47   49 1    
    96   47  170 1    
    97   48  171 1    
    98   48  172 1    
    99   48  173 1    
   100   49   50 am   BACKBONE|DICT|INTERRES
   101   49  174 1    
   102   50   51 2    
   103   50   52 1    
   104   52   53 1    
   105   52   54 1    
   106   52  175 1    
   107   53  176 1    
   108   53  177 1    
   109   53  178 1    
   110   54   55 am   BACKBONE|DICT|INTERRES
   111   54  179 1    
   112   55   56 2    
   113   55   57 1    
   114   57   58 1    
   115   57   59 1    
   116   57  180 1    
   117   58  181 1    
   118   58  182 1    
   119   58  183 1    
   120   59   60 am   BACKBONE|DICT|INTERRES
   121   59  184 1    
   122   60   61 2    
   123   60   62 1    
   124   62   63 1    
   125   62   64 1    
   126   62  185 1    
   127   63  186 1    
   128   63  187 1    
   129   63  188 1    
   130   64   65 am   BACKBONE|DICT|INTERRES
   131   64  189 1    
   132   65   66 2    
   133   67   68 2    
   134   67   69 am   BACKBONE|DICT|INTERRES
   135   69   70 1    
   136   69  190 1    
   137   70   71 1    
   138   70   72 1    
   139   70  191 1    
   140   71  192 1    
   141   71  193 1    
   142   71  194 1    
   143   72   73 2    
   144   72   74 am   BACKBONE|DICT|INTERRES
   145   74   75 1    
   146   74  195 1    
   147   75   76 1    
   148   75   77 1    
   149   75  196 1    
   150   76  197 1    
   151   76  198 1    
   152   76  199 1    
   153   77   78 2    
   154   77   79 am   BACKBONE|DICT|INTERRES
   155   79   80 1    
   156   79  200 1    
   157   80   81 1    
   158   80   82 1    
   159   80  201 1    
   160   81  202 1    
   161   81  203 1    
   162   81  204 1    
   163   82   83 2    
   164   82   84 am   BACKBONE|DICT|INTERRES
   165   84   85 1    
   166   84  205 1    
   167   85   86 1    
   168   85   87 1    
   169   85  206 1    
   170   86  207 1    
   171   86  208 1    
   172   86  209 1    
   173   87   88 2    
   174   87   89 am   BACKBONE|DICT|INTERRES
   175   89   90 1    
   176   89  210 1    
   177   90   91 1    
   178   90   92 1    
   179   90  211 1    
   180   91  212 1    
   181   91  213 1    
   182   91  214 1    
   183   92   93 2    
   184   92   94 am   BACKBONE|DICT|INTERRES
   185   94   95 1    
   186   94  215 1    
   187   95   96 1    
   188   95   97 1    
   189   95  216 1    
   190   96  217 1    
   191   96  218 1    
   192   96  219 1    
   193   97   98 2    
   194   97   99 am   BACKBONE|DICT|INTERRES
   195   99  100 1    
   196   99  220 1    
   197  100  101 1    
   198  100  102 1    
   199  100  221 1    
   200  101  222 1    
   201  101  223 1    
   202  101  224 1    
   203  102  103 2    
   204  102  104 am   BACKBONE|DICT|INTERRES
   205  104  105 1    
   206  104  225 1    
   207  105  106 1    
   208  105  107 1    
   209  105  226 1    
   210  106  227 1    
   211  106  228 1    
   212  106  229 1    
   213  107  108 2    
   214  107  109 am   BACKBONE|DICT|INTERRES
   215  109  110 1    
   216  109  230 1    
   217  110  111 1    
   218  110  112 1    
   219  110  231 1    
   220  111  232 1    
   221  111  233 1    
   222  111  234 1    
   223  112  113 2    
   224  112  114 am   BACKBONE|DICT|INTERRES
   225  114  115 1    
   226  114  235 1    
   227  115  116 1    
   228  115  117 1    
   229  115  236 1    
   230  116  237 1    
   231  116  238 1    
   232  116  239 1    
   233  117  118 2    
   234  117  119 am   BACKBONE|DICT|INTERRES
   235  119  120 1    
   236  119  240 1    
   237  120  121 1    
   238  120  124 1    
   239  120  241 1    
   240  121  122 am   BACKBONE|DICT|INTERRES
   241  121  123 2    
   242  122  242 1    
   243  122  243 1    
   244  124  125 1    
   245  124  244 1    
   246  124  245 1    
   247  125  126 1    
   248  126  246 1    
   249  126  247 1    
@<TRIPOS>SUBSTRUCTURE
     1 UNK         1 GROUP             0       ****    0 ROOT    
