@<TRIPOS>MOLECULE
3R540
247   249    1
SMALL
USER_CHARGES


@<TRIPOS>ATOM
      1 CA          6.5215  -11.6071  -50.2992 C.3       0 UNK        -0.1800 
      2 C           5.5950  -11.7449  -49.0992 C.2       0 UNK         0.5000 
      3 O           5.7264  -10.9926  -48.1332 O.2       0 UNK        -0.5000 
      4 N           4.6658  -12.7062  -49.1536 N.am      1 UNK        -0.5000 
      5 CA          3.6556  -12.9565  -48.1219 C.3       1 UNK         0.1400 
      6 C6          2.9494  -14.3223  -48.3161 C.3       23 UNK        -0.0398 
      7 S7          4.0941  -15.7370  -48.1842 S.3       23 UNK        -0.2404 
      8 C8          4.2093  -16.2937  -49.9146 C.3       23 UNK        -0.0205 
      9 C9          2.9968  -17.1102  -50.3393 C.ar      23 UNK        -0.0193 
     10 C10         1.9189  -16.4985  -50.9853 C.ar      23 UNK        -0.1150 
     11 C11         0.8208  -17.2525  -51.4052 C.ar      23 UNK        -0.0193 
     12 C12         0.8094  -18.6331  -51.1825 C.ar      23 UNK        -0.1150 
     13 C13         1.8780  -19.2615  -50.5361 C.ar      23 UNK        -0.0193 
     14 C14         2.9699  -18.4904  -50.1197 C.ar      23 UNK        -0.1150 
     15 C15         1.8752  -20.7783  -50.3654 C.3       23 UNK        -0.0205 
     16 S16         2.4501  -21.3370  -48.7275 S.3       23 UNK        -0.2404 
     17 C17         0.9364  -21.2341  -47.7115 C.3       23 UNK        -0.0398 
     18 CA          0.3174  -22.6246  -47.4265 C.3       11 UNK         0.1400 
     19 N           1.2912  -23.5857  -46.9090 N.am      11 UNK        -0.5000 
     20 C           1.1676  -24.9144  -47.0200 C.2       10 UNK         0.5000 
     21 O           0.2322  -25.4636  -47.6010 O.2       10 UNK        -0.5000 
     22 CA          2.2470  -25.7756  -46.3364 C.3       10 UNK         0.1400 
     23 CB          3.3652  -26.1225  -47.3303 C.3       10 UNK        -0.1800 
     24 N           2.8352  -25.1405  -45.1544 N.am      10 UNK        -0.5000 
     25 C           2.1579  -24.8097  -44.0468 C.2       9 UNK         0.5000 
     26 O           0.9563  -25.0374  -43.9016 O.2       9 UNK        -0.5000 
     27 CA          2.9303  -24.0831  -42.9250 C.3       9 UNK         0.1400 
     28 CB          4.4610  -24.0546  -43.1362 C.3       9 UNK        -0.1800 
     29 N           2.4387  -22.7208  -42.6781 N.am      9 UNK        -0.5000 
     30 C           2.3322  -21.7187  -43.5639 C.2       8 UNK         0.5000 
     31 O           2.5271  -21.8488  -44.7748 O.2       8 UNK        -0.5000 
     32 CA          1.9886  -20.3361  -42.9738 C.3       8 UNK         0.1400 
     33 CB          3.1887  -19.7784  -42.1906 C.3       8 UNK        -0.1800 
     34 N           1.6395  -19.3645  -44.0085 N.am      8 UNK        -0.5000 
     35 C           0.4161  -19.1459  -44.5005 C.2       7 UNK         0.5000 
     36 O          -0.5954  -19.7295  -44.1145 O.2       7 UNK        -0.5000 
     37 CA          0.3101  -18.0486  -45.5772 C.3       7 UNK         0.1400 
     38 CB         -0.9753  -18.1674  -46.4148 C.3       7 UNK        -0.1800 
     39 N           0.3517  -16.7247  -44.9601 N.am      7 UNK        -0.5000 
     40 C           1.4570  -16.1185  -44.5053 C.2       6 UNK         0.5000 
     41 O           2.5818  -16.6123  -44.5985 O.2       6 UNK        -0.5000 
     42 CA          1.2966  -14.7417  -43.8323 C.3       6 UNK         0.1400 
     43 CB          2.1082  -13.6741  -44.5752 C.3       6 UNK        -0.1800 
     44 N          -0.0970  -14.2980  -43.7878 N.am      6 UNK        -0.5000 
     45 C          -0.8472  -14.2222  -42.6808 C.2       5 UNK         0.5000 
     46 O          -0.4409  -14.5184  -41.5566 O.2       5 UNK        -0.5000 
     47 CA         -2.3026  -13.7392  -42.8500 C.3       5 UNK         0.1400 
     48 CB         -2.4183  -12.2478  -42.5007 C.3       5 UNK        -0.1800 
     49 N          -2.8396  -13.9558  -44.1951 N.am      5 UNK        -0.5000 
     50 C          -3.0801  -15.1591  -44.7343 C.2       4 UNK         0.5000 
     51 O          -2.8980  -16.2169  -44.1340 O.2       4 UNK        -0.5000 
     52 CA         -3.5652  -15.1934  -46.1970 C.3       4 UNK         0.1400 
     53 CB         -5.0959  -15.3114  -46.2488 C.3       4 UNK        -0.1800 
     54 N          -3.1556  -14.0364  -46.9984 N.am      4 UNK        -0.5000 
     55 C          -1.8963  -13.6501  -47.2467 C.2       3 UNK         0.5000 
     56 O          -0.9054  -14.2237  -46.7860 O.2       3 UNK        -0.5000 
     57 CA         -1.7195  -12.4216  -48.1690 C.3       3 UNK         0.1400 
     58 CB         -2.9503  -11.4870  -48.2055 C.3       3 UNK        -0.1800 
     59 N          -0.5113  -11.6516  -47.8644 N.am      3 UNK        -0.5000 
     60 C          -0.1850  -11.0601  -46.7074 C.2       2 UNK         0.5000 
     61 O          -0.9002  -11.0744  -45.7036 O.2       2 UNK        -0.5000 
     62 CA          1.1933  -10.3606  -46.6766 C.3       2 UNK         0.1400 
     63 CB          1.4625   -9.6422  -45.3420 C.3       2 UNK        -0.1800 
     64 N           2.2828  -11.3072  -46.9278 N.am      2 UNK        -0.5000 
     65 C           2.6086  -11.8255  -48.1181 C.2       1 UNK         0.5000 
     66 O           2.0757  -11.4854  -49.1778 O.2       1 UNK        -0.5000 
     67 C          -0.9024  -22.5317  -46.4852 C.2       11 UNK         0.5000 
     68 O          -2.0169  -22.3425  -46.9698 O.2       11 UNK        -0.5000 
     69 N          -0.6993  -22.7341  -45.1722 N.am      12 UNK        -0.5000 
     70 CA         -1.7751  -22.8246  -44.1780 C.3       12 UNK         0.1400 
     71 CB         -1.2244  -22.7603  -42.7448 C.3       12 UNK        -0.1800 
     72 C          -2.6136  -24.0946  -44.3766 C.2       12 UNK         0.5000 
     73 O          -3.8419  -24.0212  -44.3362 O.2       12 UNK        -0.5000 
     74 N          -1.9319  -25.2141  -44.6621 N.am      13 UNK        -0.5000 
     75 CA         -2.5311  -26.4984  -45.0342 C.3       13 UNK         0.1400 
     76 CB         -1.4279  -27.5624  -45.1304 C.3       13 UNK        -0.1800 
     77 C          -3.3505  -26.4363  -46.3407 C.2       13 UNK         0.5000 
     78 O          -4.3055  -27.1977  -46.4916 O.2       13 UNK        -0.5000 
     79 N          -3.0101  -25.4915  -47.2285 N.am      14 UNK        -0.5000 
     80 CA         -3.7575  -25.1382  -48.4366 C.3       14 UNK         0.1400 
     81 CB         -2.7709  -24.6726  -49.5215 C.3       14 UNK        -0.1800 
     82 C          -4.8550  -24.0850  -48.1607 C.2       14 UNK         0.5000 
     83 O          -5.1479  -23.2679  -49.0358 O.2       14 UNK        -0.5000 
     84 N          -5.4441  -24.1208  -46.9564 N.am      15 UNK        -0.5000 
     85 CA         -6.5334  -23.2727  -46.4634 C.3       15 UNK         0.1400 
     86 CB         -7.8340  -23.5621  -47.2431 C.3       15 UNK        -0.1800 
     87 C          -6.1612  -21.7771  -46.4437 C.2       15 UNK         0.5000 
     88 O          -6.9382  -20.9428  -46.9069 O.2       15 UNK        -0.5000 
     89 N          -4.9564  -21.4715  -45.9388 N.am      16 UNK        -0.5000 
     90 CA         -4.3265  -20.1420  -45.9341 C.3       16 UNK         0.1400 
     91 CB         -5.0624  -19.1871  -44.9740 C.3       16 UNK        -0.1800 
     92 C          -4.1777  -19.5820  -47.3646 C.2       16 UNK         0.5000 
     93 O          -4.5673  -18.4487  -47.6465 O.2       16 UNK        -0.5000 
     94 N          -3.6448  -20.4422  -48.2412 N.am      17 UNK        -0.5000 
     95 CA         -3.4235  -20.2891  -49.6788 C.3       17 UNK         0.1400 
     96 CB         -2.4943  -19.0973  -49.9739 C.3       17 UNK        -0.1800 
     97 C          -4.6972  -20.2414  -50.5467 C.2       17 UNK         0.5000 
     98 O          -4.5658  -20.1335  -51.7665 O.2       17 UNK        -0.5000 
     99 N          -5.8949  -20.3495  -49.9537 N.am      18 UNK        -0.5000 
    100 CA        -7.1708  -20.2811  -50.6699 C.3       18 UNK         0.1400 
    101 CB        -8.3241  -20.1069  -49.6722 C.3       18 UNK        -0.1800 
    102 C         -7.4303  -21.4920  -51.5841 C.2       18 UNK         0.5000 
    103 O         -8.0338  -21.3199  -52.6435 O.2       18 UNK        -0.5000 
    104 N         -6.9610  -22.6833  -51.1842 N.am      19 UNK        -0.5000 
    105 CA        -7.0774  -23.9078  -51.9815 C.3       19 UNK         0.1400 
    106 CB        -6.9564  -25.1386  -51.0701 C.3       19 UNK        -0.1800 
    107 C         -6.0261  -23.9606  -53.1042 C.2       19 UNK         0.5000 
    108 O         -6.2958  -24.5256  -54.1646 O.2       19 UNK        -0.5000 
    109 N         -4.8550  -23.3574  -52.8563 N.am      20 UNK        -0.5000 
    110 CA        -3.7762  -23.2073  -53.8340 C.3       20 UNK         0.1400 
    111 CB        -2.4588  -22.9345  -53.0887 C.3       20 UNK        -0.1800 
    112 C         -4.0473  -22.0822  -54.8502 C.2       20 UNK         0.5000 
    113 O         -3.4638  -22.0953  -55.9346 O.2       20 UNK        -0.5000 
    114 N         -4.8730  -21.1001  -54.4559 N.am      21 UNK        -0.5000 
    115 CA        -5.1882  -19.8503  -55.1596 C.3       21 UNK         0.1400 
    116 CB        -6.0043  -20.1372  -56.4362 C.3       21 UNK        -0.1800 
    117 C         -3.9374  -18.9823  -55.4267 C.2       21 UNK         0.5000 
    118 O         -3.9022  -18.2288  -56.4010 O.2       21 UNK        -0.5000 
    119 N         -2.9210  -19.1333  -54.5651 N.am      22 UNK        -0.5000 
    120 CA        -1.5597  -18.5971  -54.7221 C.3       22 UNK         0.1400 
    121 C         -0.7643  -19.1846  -55.9350 C.2       22 UNK         0.5000 
    122 N         -1.1648  -20.3119  -56.5138 N.am      22 UNK        -0.7600 
    123 O          0.2496  -18.6324  -56.3520 O.2       22 UNK        -0.5000 
    124 C124       -1.5303  -17.0435  -54.6378 C.3       23 UNK        -0.0398 
    125 S125        0.0075  -16.3981  -53.8955 S.3       23 UNK        -0.2404 
    126 C126       -0.3381  -16.5724  -52.1171 C.3       23 UNK        -0.0205 
    127 H127        6.4177  -10.6161  -50.7412 H         1 UNK         0.0600 
    128 H128        6.3015  -12.3476  -51.0688 H         1 UNK         0.0600 
    129 H129        7.5585  -11.7369  -49.9895 H         1 UNK         0.0600 
    130 H130        4.5937  -13.2749  -49.9834 H         1 UNK         0.3000 
    131 H131        4.1597  -12.9690  -47.1528 H         1 UNK         0.0600 
    132 H132        2.4320  -14.3460  -49.2740 H         1 UNK         0.0800 
    133 H133        2.1732  -14.4710  -47.5645 H         1 UNK         0.0800 
    134 H134        5.1100  -16.8997  -50.0238 H         1 UNK         0.0800 
    135 H135        4.3445  -15.4367  -50.5754 H         1 UNK         0.0800 
    136 H136        1.9380  -15.4368  -51.1841 H         1 UNK         0.1150 
    137 H137       -0.0220  -19.2248  -51.5348 H         1 UNK         0.1150 
    138 H138        3.8116  -18.9671  -49.6374 H         1 UNK         0.1150 
    139 H139        0.8854  -21.1948  -50.5595 H         1 UNK         0.0800 
    140 H140        2.5371  -21.2017  -51.1217 H         1 UNK         0.0800 
    141 H141        1.2058  -20.7370  -46.7810 H         1 UNK         0.0800 
    142 H142        0.2130  -20.5884  -48.2107 H         1 UNK         0.0800 
    143 H143       -0.0512  -23.0045  -48.3820 H         1 UNK         0.0600 
    144 H144        2.0694  -23.1961  -46.3890 H         1 UNK         0.3000 
    145 H145        1.7722  -26.7049  -46.0153 H         1 UNK         0.0600 
    146 H146        4.0967  -26.7960  -46.8832 H         1 UNK         0.0600 
    147 H147        2.9621  -26.6218  -48.2125 H         1 UNK         0.0600 
    148 H148        3.8920  -25.2299  -47.6703 H         1 UNK         0.0600 
    149 H149        3.8153  -24.9042  -45.2075 H         1 UNK         0.3000 
    150 H150        2.7358  -24.6515  -42.0145 H         1 UNK         0.0600 
    151 H151        4.8643  -25.0612  -43.2551 H         1 UNK         0.0600 
    152 H152        4.9617  -23.6130  -42.2744 H         1 UNK         0.0600 
    153 H153        4.7462  -23.4713  -44.0127 H         1 UNK         0.0600 
    154 H154        2.2211  -22.5212  -41.7119 H         1 UNK         0.3000 
    155 H155        1.1501  -20.4473  -42.2845 H         1 UNK         0.0600 
    156 H156        2.9605  -18.8008  -41.7651 H         1 UNK         0.0600 
    157 H157        4.0678  -19.6680  -42.8271 H         1 UNK         0.0600 
    158 H158        3.4635  -20.4328  -41.3625 H         1 UNK         0.0600 
    159 H159        2.3997  -18.7988  -44.3655 H         1 UNK         0.3000 
    160 H160        1.1590  -18.1539  -46.2568 H         1 UNK         0.0600 
    161 H161       -1.8671  -18.0274  -45.8046 H         1 UNK         0.0600 
    162 H162       -1.0558  -19.1506  -46.8763 H         1 UNK         0.0600 
    163 H163       -0.9954  -17.4275  -47.2154 H         1 UNK         0.0600 
    164 H164       -0.5398  -16.2776  -44.7999 H         1 UNK         0.3000 
    165 H165        1.7059  -14.8361  -42.8247 H         1 UNK         0.0600 
    166 H166        1.6874  -13.5039  -45.5636 H         1 UNK         0.0600 
    167 H167        2.0960  -12.7279  -44.0346 H         1 UNK         0.0600 
    168 H168        3.1511  -13.9701  -44.6964 H         1 UNK         0.0600 
    169 H169       -0.5122  -14.0499  -44.6797 H         1 UNK         0.3000 
    170 H170       -2.9184  -14.3034  -42.1465 H         1 UNK         0.0600 
    171 H171       -2.0628  -12.0550  -41.4877 H         1 UNK         0.0600 
    172 H172       -1.8282  -11.6294  -43.1780 H         1 UNK         0.0600 
    173 H173       -3.4531  -11.9087  -42.5509 H         1 UNK         0.0600 
    174 H174       -2.9861  -13.1336  -44.7630 H         1 UNK         0.3000 
    175 H175       -3.1392  -16.0836  -46.6629 H         1 UNK         0.0600 
    176 H176       -5.5832  -14.4230  -45.8454 H         1 UNK         0.0600 
    177 H177       -5.4449  -15.4544  -47.2717 H         1 UNK         0.0600 
    178 H178       -5.4445  -16.1676  -45.6706 H         1 UNK         0.0600 
    179 H179       -3.9045  -13.5005  -47.4120 H         1 UNK         0.3000 
    180 H180       -1.5753  -12.8201  -49.1741 H         1 UNK         0.0600 
    181 H181       -3.8212  -11.9864  -48.6311 H         1 UNK         0.0600 
    182 H182       -3.2209  -11.1312  -47.2105 H         1 UNK         0.0600 
    183 H183       -2.7569  -10.6120  -48.8265 H         1 UNK         0.0600 
    184 H184        0.1867  -11.6197  -48.6011 H         1 UNK         0.3000 
    185 H185        1.1929   -9.6057  -47.4658 H         1 UNK         0.0600 
    186 H186        0.6928   -8.8967  -45.1381 H         1 UNK         0.0600 
    187 H187        1.4752  -10.3382  -44.5025 H         1 UNK         0.0600 
    188 H188        2.4198   -9.1209  -45.3607 H         1 UNK         0.0600 
    189 H189        2.7697  -11.6361  -46.1072 H         1 UNK         0.3000 
    190 H190        0.2367  -22.9369  -44.8512 H         1 UNK         0.3000 
    191 H191       -2.4317  -21.9650  -44.3113 H         1 UNK         0.0600 
    192 H192       -2.0394  -22.7847  -42.0204 H         1 UNK         0.0600 
    193 H193       -0.6760  -21.8381  -42.5705 H         1 UNK         0.0600 
    194 H194       -0.5650  -23.5940  -42.5116 H         1 UNK         0.0600 
    195 H195       -0.9181  -25.1799  -44.6160 H         1 UNK         0.3000 
    196 H196       -3.2141  -26.7866  -44.2326 H         1 UNK         0.0600 
    197 H197       -1.8522  -28.5459  -45.3359 H         1 UNK         0.0600 
    198 H198       -0.8681  -27.6373  -44.1978 H         1 UNK         0.0600 
    199 H199       -0.7206  -27.3386  -45.9284 H         1 UNK         0.0600 
    200 H200       -2.2078  -24.9138  -47.0207 H         1 UNK         0.3000 
    201 H201       -4.2634  -26.0288  -48.8140 H         1 UNK         0.0600 
    202 H202       -1.9829  -25.4084  -49.6829 H         1 UNK         0.0600 
    203 H203       -2.2976  -23.7264  -49.2606 H         1 UNK         0.0600 
    204 H204       -3.2829  -24.5329  -50.4735 H         1 UNK         0.0600 
    205 H205       -5.0951  -24.7966  -46.2907 H         1 UNK         0.3000 
    206 H206       -6.7002  -23.5585  -45.4239 H         1 UNK         0.0600 
    207 H207       -8.0847  -24.6223  -47.2110 H         1 UNK         0.0600 
    208 H208       -8.6761  -23.0170  -46.8153 H         1 UNK         0.0600 
    209 H209       -7.7546  -23.2697  -48.2901 H         1 UNK         0.0600 
    210 H210       -4.3862  -22.2390  -45.6063 H         1 UNK         0.3000 
    211 H211       -3.3131  -20.2681  -45.5530 H         1 UNK         0.0600 
    212 H212       -6.0641  -18.9416  -45.3278 H         1 UNK         0.0600 
    213 H213       -4.5134  -18.2520  -44.8691 H         1 UNK         0.0600 
    214 H214       -5.1530  -19.6213  -43.9785 H         1 UNK         0.0600 
    215 H215       -3.3307  -21.3322  -47.8618 H         1 UNK         0.3000 
    216 H216       -2.8984  -21.1948  -49.9851 H         1 UNK         0.0600 
    217 H217       -2.9541  -18.1441  -49.7131 H         1 UNK         0.0600 
    218 H218       -2.2520  -19.0569  -51.0351 H         1 UNK         0.0600 
    219 H219       -1.5567  -19.1800  -49.4252 H         1 UNK         0.0600 
    220 H220       -5.9383  -20.4687  -48.9495 H         1 UNK         0.3000 
    221 H221       -7.1433  -19.3919  -51.3034 H         1 UNK         0.0600 
    222 H222       -8.4614  -20.9959  -49.0568 H         1 UNK         0.0600 
    223 H223       -8.1502  -19.2602  -49.0078 H         1 UNK         0.0600 
    224 H224       -9.2644  -19.9250  -50.1939 H         1 UNK         0.0600 
    225 H225       -6.4340  -22.7488  -50.3158 H         1 UNK         0.3000 
    226 H226       -8.0666  -23.9314  -52.4439 H         1 UNK         0.0600 
    227 H227       -7.6427  -25.0785  -50.2252 H         1 UNK         0.0600 
    228 H228       -7.1949  -26.0497  -51.6199 H         1 UNK         0.0600 
    229 H229       -5.9464  -25.2543  -50.6789 H         1 UNK         0.0600 
    230 H230       -4.7269  -22.9162  -51.9577 H         1 UNK         0.3000 
    231 H231       -3.6683  -24.1397  -54.3922 H         1 UNK         0.0600 
    232 H232       -2.1857  -23.7740  -52.4502 H         1 UNK         0.0600 
    233 H233       -1.6358  -22.7859  -53.7892 H         1 UNK         0.0600 
    234 H234       -2.5222  -22.0423  -52.4650 H         1 UNK         0.0600 
    235 H235       -5.2164  -21.1423  -53.5042 H         1 UNK         0.3000 
    236 H236       -5.8198  -19.2726  -54.4832 H         1 UNK         0.0600 
    237 H237       -6.8781  -20.7499  -56.2139 H         1 UNK         0.0600 
    238 H238       -6.3644  -19.2120  -56.8874 H         1 UNK         0.0600 
    239 H239       -5.4110  -20.6585  -57.1879 H         1 UNK         0.0600 
    240 H240       -3.0697  -19.7483  -53.7771 H         1 UNK         0.3000 
    241 H241       -1.0312  -18.9817  -53.8497 H         1 UNK         0.0600 
    242 H242       -2.0019  -20.8017  -56.2156 H         1 UNK         0.3800 
    243 H243       -0.6331  -20.6763  -57.2881 H         1 UNK         0.3800 
    244 H244       -2.3662  -16.6747  -54.0417 H         1 UNK         0.0800 
    245 H245       -1.6615  -16.6007  -55.6265 H         1 UNK         0.0800 
    246 H246       -1.2568  -17.1366  -51.9580 H         1 UNK         0.0800 
    247 H247       -0.5129  -15.5844  -51.6884 H         1 UNK         0.0800 
@<TRIPOS>BOND
     1    1    2 1    
     2    1  127 1    
     3    1  128 1    
     4    1  129 1    
     5    2    3 2    
     6    2    4 am   BACKBONE|DICT|INTERRES
     7    4    5 1    
     8    4  130 1    
     9    5    6 1    
    10    5   65 1    
    11    5  131 1    
    12    6    7 1    
    13    6  132 1    
    14    6  133 1    
    15    7    8 1    
    16    8    9 1    
    17    8  134 1    
    18    8  135 1    
    19    9   10 ar   
    20    9   14 ar   
    21   10   11 ar   
    22   10  136 1    
    23   11   12 ar   
    24   11  126 1    
    25   12   13 ar   
    26   12  137 1    
    27   13   14 ar   
    28   13   15 1    
    29   14  138 1    
    30   15   16 1    
    31   15  139 1    
    32   15  140 1    
    33   16   17 1    
    34   17   18 1    
    35   17  141 1    
    36   17  142 1    
    37   18   19 1    
    38   18   67 1    
    39   18  143 1    
    40   19   20 am   BACKBONE|DICT|INTERRES
    41   19  144 1    
    42   20   21 2    
    43   20   22 1    
    44   22   23 1    
    45   22   24 1    
    46   22  145 1    
    47   23  146 1    
    48   23  147 1    
    49   23  148 1    
    50   24   25 am   BACKBONE|DICT|INTERRES
    51   24  149 1    
    52   25   26 2    
    53   25   27 1    
    54   27   28 1    
    55   27   29 1    
    56   27  150 1    
    57   28  151 1    
    58   28  152 1    
    59   28  153 1    
    60   29   30 am   BACKBONE|DICT|INTERRES
    61   29  154 1    
    62   30   31 2    
    63   30   32 1    
    64   32   33 1    
    65   32   34 1    
    66   32  155 1    
    67   33  156 1    
    68   33  157 1    
    69   33  158 1    
    70   34   35 am   BACKBONE|DICT|INTERRES
    71   34  159 1    
    72   35   36 2    
    73   35   37 1    
    74   37   38 1    
    75   37   39 1    
    76   37  160 1    
    77   38  161 1    
    78   38  162 1    
    79   38  163 1    
    80   39   40 am   BACKBONE|DICT|INTERRES
    81   39  164 1    
    82   40   41 2    
    83   40   42 1    
    84   42   43 1    
    85   42   44 1    
    86   42  165 1    
    87   43  166 1    
    88   43  167 1    
    89   43  168 1    
    90   44   45 am   BACKBONE|DICT|INTERRES
    91   44  169 1    
    92   45   46 2    
    93   45   47 1    
    94   47   48 1    
    95   47   49 1    
    96   47  170 1    
    97   48  171 1    
    98   48  172 1    
    99   48  173 1    
   100   49   50 am   BACKBONE|DICT|INTERRES
   101   49  174 1    
   102   50   51 2    
   103   50   52 1    
   104   52   53 1    
   105   52   54 1    
   106   52  175 1    
   107   53  176 1    
   108   53  177 1    
   109   53  178 1    
   110   54   55 am   BACKBONE|DICT|INTERRES
   111   54  179 1    
   112   55   56 2    
   113   55   57 1    
   114   57   58 1    
   115   57   59 1    
   116   57  180 1    
   117   58  181 1    
   118   58  182 1    
   119   58  183 1    
   120   59   60 am   BACKBONE|DICT|INTERRES
   121   59  184 1    
   122   60   61 2    
   123   60   62 1    
   124   62   63 1    
   125   62   64 1    
   126   62  185 1    
   127   63  186 1    
   128   63  187 1    
   129   63  188 1    
   130   64   65 am   BACKBONE|DICT|INTERRES
   131   64  189 1    
   132   65   66 2    
   133   67   68 2    
   134   67   69 am   BACKBONE|DICT|INTERRES
   135   69   70 1    
   136   69  190 1    
   137   70   71 1    
   138   70   72 1    
   139   70  191 1    
   140   71  192 1    
   141   71  193 1    
   142   71  194 1    
   143   72   73 2    
   144   72   74 am   BACKBONE|DICT|INTERRES
   145   74   75 1    
   146   74  195 1    
   147   75   76 1    
   148   75   77 1    
   149   75  196 1    
   150   76  197 1    
   151   76  198 1    
   152   76  199 1    
   153   77   78 2    
   154   77   79 am   BACKBONE|DICT|INTERRES
   155   79   80 1    
   156   79  200 1    
   157   80   81 1    
   158   80   82 1    
   159   80  201 1    
   160   81  202 1    
   161   81  203 1    
   162   81  204 1    
   163   82   83 2    
   164   82   84 am   BACKBONE|DICT|INTERRES
   165   84   85 1    
   166   84  205 1    
   167   85   86 1    
   168   85   87 1    
   169   85  206 1    
   170   86  207 1    
   171   86  208 1    
   172   86  209 1    
   173   87   88 2    
   174   87   89 am   BACKBONE|DICT|INTERRES
   175   89   90 1    
   176   89  210 1    
   177   90   91 1    
   178   90   92 1    
   179   90  211 1    
   180   91  212 1    
   181   91  213 1    
   182   91  214 1    
   183   92   93 2    
   184   92   94 am   BACKBONE|DICT|INTERRES
   185   94   95 1    
   186   94  215 1    
   187   95   96 1    
   188   95   97 1    
   189   95  216 1    
   190   96  217 1    
   191   96  218 1    
   192   96  219 1    
   193   97   98 2    
   194   97   99 am   BACKBONE|DICT|INTERRES
   195   99  100 1    
   196   99  220 1    
   197  100  101 1    
   198  100  102 1    
   199  100  221 1    
   200  101  222 1    
   201  101  223 1    
   202  101  224 1    
   203  102  103 2    
   204  102  104 am   BACKBONE|DICT|INTERRES
   205  104  105 1    
   206  104  225 1    
   207  105  106 1    
   208  105  107 1    
   209  105  226 1    
   210  106  227 1    
   211  106  228 1    
   212  106  229 1    
   213  107  108 2    
   214  107  109 am   BACKBONE|DICT|INTERRES
   215  109  110 1    
   216  109  230 1    
   217  110  111 1    
   218  110  112 1    
   219  110  231 1    
   220  111  232 1    
   221  111  233 1    
   222  111  234 1    
   223  112  113 2    
   224  112  114 am   BACKBONE|DICT|INTERRES
   225  114  115 1    
   226  114  235 1    
   227  115  116 1    
   228  115  117 1    
   229  115  236 1    
   230  116  237 1    
   231  116  238 1    
   232  116  239 1    
   233  117  118 2    
   234  117  119 am   BACKBONE|DICT|INTERRES
   235  119  120 1    
   236  119  240 1    
   237  120  121 1    
   238  120  124 1    
   239  120  241 1    
   240  121  122 am   BACKBONE|DICT|INTERRES
   241  121  123 2    
   242  122  242 1    
   243  122  243 1    
   244  124  125 1    
   245  124  244 1    
   246  124  245 1    
   247  125  126 1    
   248  126  246 1    
   249  126  247 1    
@<TRIPOS>SUBSTRUCTURE
     1 UNK         1 GROUP             0       ****    0 ROOT    
