@<TRIPOS>MOLECULE
3R540
247   249    1
SMALL
USER_CHARGES


@<TRIPOS>ATOM
      1 CA          3.5081  -13.6270  -52.1087 C.3       0 UNK        -0.1800 
      2 C           3.4526  -14.3980  -50.7974 C.2       0 UNK         0.5000 
      3 O           4.0795  -15.4505  -50.6781 O.2       0 UNK        -0.5000 
      4 N           2.7109  -13.8768  -49.8162 N.am      1 UNK        -0.5000 
      5 CA          2.5515  -14.4498  -48.4812 C.3       1 UNK         0.1400 
      6 C6          1.5781  -15.6645  -48.4532 C.3       23 UNK        -0.0398 
      7 S7         -0.2112  -15.2799  -48.5822 S.3       23 UNK        -0.2404 
      8 C8         -0.5180  -15.1858  -50.3822 C.3       23 UNK        -0.0205 
      9 C9          0.0104  -16.3764  -51.1748 C.ar      23 UNK        -0.0193 
     10 C10         0.7009  -16.1557  -52.3705 C.ar      23 UNK        -0.1150 
     11 C11         1.2575  -17.2230  -53.0798 C.ar      23 UNK        -0.0193 
     12 C12         1.1154  -18.5217  -52.5845 C.ar      23 UNK        -0.1150 
     13 C13         0.4091  -18.7588  -51.4029 C.ar      23 UNK        -0.0193 
     14 C14        -0.1614  -17.6863  -50.7142 C.ar      23 UNK        -0.1150 
     15 C15         0.2924  -20.1721  -50.8623 C.3       23 UNK        -0.0205 
     16 S16         1.6885  -20.5637  -49.7613 S.3       23 UNK        -0.2404 
     17 C17         1.0173  -20.1438  -48.1147 C.3       23 UNK        -0.0398 
     18 CA          0.4974  -21.4096  -47.3914 C.3       11 UNK         0.1400 
     19 N           0.5908  -21.3275  -45.9328 N.am      11 UNK        -0.5000 
     20 C           0.4671  -22.3962  -45.1302 C.2       10 UNK         0.5000 
     21 O           0.2845  -23.5438  -45.5405 O.2       10 UNK        -0.5000 
     22 CA          0.5137  -22.1392  -43.6159 C.3       10 UNK         0.1400 
     23 CB          1.9605  -21.9244  -43.1472 C.3       10 UNK        -0.1800 
     24 N          -0.3171  -21.0050  -43.2121 N.am      10 UNK        -0.5000 
     25 C          -1.6488  -20.9507  -43.3618 C.2       9 UNK         0.5000 
     26 O          -2.3225  -21.8656  -43.8358 O.2       9 UNK        -0.5000 
     27 CA         -2.3430  -19.6394  -42.9538 C.3       9 UNK         0.1400 
     28 CB         -2.5135  -19.5645  -41.4294 C.3       9 UNK        -0.1800 
     29 N          -1.6419  -18.4467  -43.4303 N.am      9 UNK        -0.5000 
     30 C          -1.4189  -18.1548  -44.7200 C.2       8 UNK         0.5000 
     31 O          -1.7775  -18.8630  -45.6590 O.2       8 UNK        -0.5000 
     32 CA         -0.6062  -16.8836  -45.0100 C.3       8 UNK         0.1400 
     33 CB         -1.4651  -15.6228  -44.8325 C.3       8 UNK        -0.1800 
     34 N           0.5929  -16.8017  -44.1772 N.am      8 UNK        -0.5000 
     35 C           1.6146  -17.6677  -44.2506 C.2       7 UNK         0.5000 
     36 O           1.6890  -18.5760  -45.0796 O.2       7 UNK        -0.5000 
     37 CA          2.7160  -17.5115  -43.1907 C.3       7 UNK         0.1400 
     38 CB          3.7022  -16.4066  -43.5957 C.3       7 UNK        -0.1800 
     39 N           2.1645  -17.2243  -41.8648 N.am      7 UNK        -0.5000 
     40 C           1.4820  -18.1169  -41.1312 C.2       6 UNK         0.5000 
     41 O           1.2523  -19.2671  -41.5005 O.2       6 UNK        -0.5000 
     42 CA          0.9291  -17.6452  -39.7737 C.3       6 UNK         0.1400 
     43 CB          1.9923  -17.8012  -38.6765 C.3       6 UNK        -0.1800 
     44 N           0.4540  -16.2632  -39.7896 N.am      6 UNK        -0.5000 
     45 C          -0.5391  -15.7969  -40.5592 C.2       5 UNK         0.5000 
     46 O          -1.1950  -16.4963  -41.3312 O.2       5 UNK        -0.5000 
     47 CA         -0.8098  -14.2820  -40.4903 C.3       5 UNK         0.1400 
     48 CB         -1.9133  -13.9802  -39.4659 C.3       5 UNK        -0.1800 
     49 N           0.3780  -13.4785  -40.1742 N.am      5 UNK        -0.5000 
     50 C           1.4870  -13.4323  -40.9242 C.2       4 UNK         0.5000 
     51 O           1.6386  -14.1148  -41.9418 O.2       4 UNK        -0.5000 
     52 CA          2.5906  -12.4658  -40.4475 C.3       4 UNK         0.1400 
     53 CB          3.3679  -13.0347  -39.2433 C.3       4 UNK        -0.1800 
     54 N           3.4629  -12.0741  -41.5605 N.am      4 UNK        -0.5000 
     55 C           4.4216  -12.7876  -42.1689 C.2       3 UNK         0.5000 
     56 O           4.9581  -13.7918  -41.6986 O.2       3 UNK        -0.5000 
     57 CA          4.7502  -12.3360  -43.6082 C.3       3 UNK         0.1400 
     58 CB          6.0299  -12.9879  -44.1613 C.3       3 UNK        -0.1800 
     59 N           3.6287  -12.6840  -44.4836 N.am      3 UNK        -0.5000 
     60 C           2.4578  -12.0336  -44.5364 C.2       2 UNK         0.5000 
     61 O           2.2704  -10.9356  -44.0074 O.2       2 UNK        -0.5000 
     62 CA          1.2920  -12.7745  -45.2209 C.3       2 UNK         0.1400 
     63 CB          0.1537  -11.8360  -45.6745 C.3       2 UNK        -0.1800 
     64 N           1.7144  -13.6731  -46.3020 N.am      2 UNK        -0.5000 
     65 C           2.2363  -13.3144  -47.4840 C.2       1 UNK         0.5000 
     66 O           2.4758  -12.1455  -47.8000 O.2       1 UNK        -0.5000 
     67 C          -0.9211  -21.7949  -47.8531 C.2       11 UNK         0.5000 
     68 O          -1.0511  -22.6364  -48.7394 O.2       11 UNK        -0.5000 
     69 N          -1.9577  -21.2183  -47.2267 N.am      12 UNK        -0.5000 
     70 CA         -3.3591  -21.5488  -47.4853 C.3       12 UNK         0.1400 
     71 CB         -4.2835  -20.6229  -46.6821 C.3       12 UNK        -0.1800 
     72 C          -3.6806  -23.0229  -47.1950 C.2       12 UNK         0.5000 
     73 O          -4.3239  -23.6658  -48.0230 O.2       12 UNK        -0.5000 
     74 N          -3.1937  -23.5428  -46.0597 N.am      13 UNK        -0.5000 
     75 CA         -3.3162  -24.9489  -45.6735 C.3       13 UNK         0.1400 
     76 CB         -2.7761  -25.1444  -44.2490 C.3       13 UNK        -0.1800 
     77 C          -2.6182  -25.8999  -46.6630 C.2       13 UNK         0.5000 
     78 O          -3.2142  -26.9023  -47.0601 O.2       13 UNK        -0.5000 
     79 N          -1.3929  -25.5460  -47.0788 N.am      14 UNK        -0.5000 
     80 CA         -0.6176  -26.2709  -48.0895 C.3       14 UNK         0.1400 
     81 CB          0.8017  -25.6878  -48.1612 C.3       14 UNK        -0.1800 
     82 C          -1.2839  -26.2602  -49.4797 C.2       14 UNK         0.5000 
     83 O          -1.2531  -27.2727  -50.1792 O.2       14 UNK        -0.5000 
     84 N          -1.9109  -25.1317  -49.8323 N.am      15 UNK        -0.5000 
     85 CA         -2.6573  -24.9094  -51.0698 C.3       15 UNK         0.1400 
     86 CB         -2.5262  -23.4284  -51.4655 C.3       15 UNK        -0.1800 
     87 C          -4.1346  -25.3530  -50.9859 C.2       15 UNK         0.5000 
     88 O          -4.9512  -24.8496  -51.7573 O.2       15 UNK        -0.5000 
     89 N          -4.4596  -26.2788  -50.0701 N.am      16 UNK        -0.5000 
     90 CA         -5.7584  -26.9426  -49.9017 C.3       16 UNK         0.1400 
     91 CB         -6.0416  -27.8716  -51.1013 C.3       16 UNK        -0.1800 
     92 C          -6.9142  -25.9602  -49.6176 C.2       16 UNK         0.5000 
     93 O          -7.9315  -25.9757  -50.3128 O.2       16 UNK        -0.5000 
     94 N          -6.7126  -25.1158  -48.5975 N.am      17 UNK        -0.5000 
     95 CA         -7.5742  -24.0078  -48.1700 C.3       17 UNK         0.1400 
     96 CB         -8.9785  -24.4952  -47.7538 C.3       17 UNK        -0.1800 
     97 C          -7.5919  -22.8653  -49.2059 C.2       17 UNK         0.5000 
     98 O          -8.6484  -22.2994  -49.4920 O.2       17 UNK        -0.5000 
     99 N          -6.3974  -22.5528  -49.7305 N.am      18 UNK        -0.5000 
    100 CA        -6.0904  -21.5171  -50.7201 C.3       18 UNK         0.1400 
    101 CB        -6.2349  -20.1129  -50.0987 C.3       18 UNK        -0.1800 
    102 C         -6.8883  -21.6814  -52.0290 C.2       18 UNK         0.5000 
    103 O         -7.5613  -20.7467  -52.4701 O.2       18 UNK        -0.5000 
    104 N         -6.7979  -22.8734  -52.6321 N.am      19 UNK        -0.5000 
    105 CA        -7.4439  -23.2415  -53.8919 C.3       19 UNK         0.1400 
    106 CB        -7.4441  -24.7755  -54.0183 C.3       19 UNK        -0.1800 
    107 C         -6.7698  -22.5481  -55.0948 C.2       19 UNK         0.5000 
    108 O         -5.9930  -23.1745  -55.8177 O.2       19 UNK        -0.5000 
    109 N         -7.0644  -21.2497  -55.2550 N.am      20 UNK        -0.5000 
    110 CA        -6.5324  -20.3231  -56.2616 C.3       20 UNK         0.1400 
    111 CB        -6.9676  -20.7389  -57.6827 C.3       20 UNK        -0.1800 
    112 C         -5.0093  -20.1057  -56.1313 C.2       20 UNK         0.5000 
    113 O         -4.3136  -19.9844  -57.1422 O.2       20 UNK        -0.5000 
    114 N         -4.5261  -20.0584  -54.8802 N.am      21 UNK        -0.5000 
    115 CA        -3.1266  -19.8747  -54.4876 C.3       21 UNK         0.1400 
    116 CB        -3.0375  -19.9046  -52.9528 C.3       21 UNK        -0.1800 
    117 C         -2.5250  -18.5760  -55.0599 C.2       21 UNK         0.5000 
    118 O         -2.8306  -17.4909  -54.5614 O.2       21 UNK        -0.5000 
    119 N         -1.7303  -18.7211  -56.1285 N.am      22 UNK        -0.5000 
    120 CA        -1.1642  -17.6305  -56.9434 C.3       22 UNK         0.1400 
    121 C         -2.2332  -16.7496  -57.6641 C.2       22 UNK         0.5000 
    122 N         -3.4263  -17.2656  -57.9384 N.am      22 UNK        -0.7600 
    123 O         -1.9773  -15.5995  -58.0113 O.2       22 UNK        -0.5000 
    124 C124       -0.0807  -16.8078  -56.1899 C.3       23 UNK        -0.0398 
    125 S125        1.3784  -17.8314  -55.7975 S.3       23 UNK        -0.2404 
    126 C126        2.0614  -16.9694  -54.3473 C.3       23 UNK        -0.0205 
    127 H127        2.7972  -12.8004  -52.1225 H         1 UNK         0.0600 
    128 H128        3.2757  -14.2876  -52.9436 H         1 UNK         0.0600 
    129 H129        4.5079  -13.2214  -52.2630 H         1 UNK         0.0600 
    130 H130        2.2773  -12.9694  -49.9278 H         1 UNK         0.3000 
    131 H131        3.5324  -14.8185  -48.1733 H         1 UNK         0.0600 
    132 H132        1.7178  -16.2154  -47.5222 H         1 UNK         0.0800 
    133 H133        1.8586  -16.3789  -49.2268 H         1 UNK         0.0800 
    134 H134       -1.5924  -15.1048  -50.5505 H         1 UNK         0.0800 
    135 H135       -0.0786  -14.2580  -50.7512 H         1 UNK         0.0800 
    136 H136        0.8285  -15.1468  -52.7364 H         1 UNK         0.1150 
    137 H137        1.5659  -19.3483  -53.1161 H         1 UNK         0.1150 
    138 H138       -0.7035  -17.8657  -49.7970 H         1 UNK         0.1150 
    139 H139       -0.6599  -20.3069  -50.3484 H         1 UNK         0.0800 
    140 H140        0.2896  -20.8843  -51.6888 H         1 UNK         0.0800 
    141 H141        0.2572  -19.3636  -48.1804 H         1 UNK         0.0800 
    142 H142        1.8412  -19.7060  -47.5499 H         1 UNK         0.0800 
    143 H143        1.1511  -22.2381  -47.6747 H         1 UNK         0.0600 
    144 H144        0.7503  -20.4110  -45.5285 H         1 UNK         0.3000 
    145 H145        0.1250  -23.0298  -43.1176 H         1 UNK         0.0600 
    146 H146        2.0157  -21.8593  -42.0605 H         1 UNK         0.0600 
    147 H147        2.5994  -22.7532  -43.4547 H         1 UNK         0.0600 
    148 H148        2.3860  -21.0087  -43.5595 H         1 UNK         0.0600 
    149 H149        0.1644  -20.2281  -42.7679 H         1 UNK         0.3000 
    150 H150       -3.3369  -19.6376  -43.4055 H         1 UNK         0.0600 
    151 H151       -3.0584  -20.4316  -41.0539 H         1 UNK         0.0600 
    152 H152       -3.0747  -18.6763  -41.1387 H         1 UNK         0.0600 
    153 H153       -1.5512  -19.5339  -40.9182 H         1 UNK         0.0600 
    154 H154       -1.3359  -17.7882  -42.7184 H         1 UNK         0.3000 
    155 H155       -0.2904  -16.9329  -46.0535 H         1 UNK         0.0600 
    156 H156       -1.7381  -15.4572  -43.7902 H         1 UNK         0.0600 
    157 H157       -0.9432  -14.7374  -45.1901 H         1 UNK         0.0600 
    158 H158       -2.3898  -15.6989  -45.4060 H         1 UNK         0.0600 
    159 H159        0.5943  -16.1175  -43.4334 H         1 UNK         0.3000 
    160 H160        3.2650  -18.4542  -43.1374 H         1 UNK         0.0600 
    161 H161        3.2152  -15.4338  -43.6532 H         1 UNK         0.0600 
    162 H162        4.1434  -16.6131  -44.5716 H         1 UNK         0.0600 
    163 H163        4.5203  -16.3278  -42.8796 H         1 UNK         0.0600 
    164 H164        2.2605  -16.2751  -41.5270 H         1 UNK         0.3000 
    165 H165        0.0812  -18.2847  -39.5211 H         1 UNK         0.0600 
    166 H166        1.5864  -17.5540  -37.6954 H         1 UNK         0.0600 
    167 H167        2.3544  -18.8291  -38.6274 H         1 UNK         0.0600 
    168 H168        2.8543  -17.1573  -38.8561 H         1 UNK         0.0600 
    169 H169        0.9388  -15.6094  -39.1933 H         1 UNK         0.3000 
    170 H170       -1.1650  -13.9728  -41.4757 H         1 UNK         0.0600 
    171 H171       -1.6038  -14.2392  -38.4525 H         1 UNK         0.0600 
    172 H172       -2.1837  -12.9242  -39.4760 H         1 UNK         0.0600 
    173 H173       -2.8182  -14.5476  -39.6880 H         1 UNK         0.0600 
    174 H174        0.3185  -12.8971  -39.3504 H         1 UNK         0.3000 
    175 H175        2.1004  -11.5460  -40.1254 H         1 UNK         0.0600 
    176 H176        4.2116  -12.3971  -38.9792 H         1 UNK         0.0600 
    177 H177        3.7495  -14.0376  -39.4367 H         1 UNK         0.0600 
    178 H178        2.7256  -13.1021  -38.3648 H         1 UNK         0.0600 
    179 H179        3.0870  -11.3127  -42.1155 H         1 UNK         0.3000 
    180 H180        4.8929  -11.2532  -43.6064 H         1 UNK         0.0600 
    181 H181        5.9428  -14.0740  -44.2134 H         1 UNK         0.0600 
    182 H182        6.8885  -12.7565  -43.5299 H         1 UNK         0.0600 
    183 H183        6.2554  -12.6224  -45.1633 H         1 UNK         0.0600 
    184 H184        3.6843  -13.5846  -44.9333 H         1 UNK         0.3000 
    185 H185        0.8780  -13.4219  -44.4476 H         1 UNK         0.0600 
    186 H186       -0.2822  -11.3128  -44.8228 H         1 UNK         0.0600 
    187 H187        0.5049  -11.0785  -46.3753 H         1 UNK         0.0600 
    188 H188       -0.6495  -12.3929  -46.1572 H         1 UNK         0.0600 
    189 H189        1.5406  -14.6532  -46.1363 H         1 UNK         0.3000 
    190 H190       -1.7852  -20.4974  -46.5291 H         1 UNK         0.3000 
    191 H191       -3.5459  -21.3747  -48.5467 H         1 UNK         0.0600 
    192 H192       -4.1397  -19.5807  -46.9671 H         1 UNK         0.0600 
    193 H193       -5.3320  -20.8668  -46.8584 H         1 UNK         0.0600 
    194 H194       -4.1036  -20.7040  -45.6101 H         1 UNK         0.0600 
    195 H195       -2.7073  -22.9329  -45.4078 H         1 UNK         0.3000 
    196 H196       -4.3791  -25.1988  -45.6691 H         1 UNK         0.0600 
    197 H197       -2.8642  -26.1854  -43.9361 H         1 UNK         0.0600 
    198 H198       -3.3325  -24.5407  -43.5318 H         1 UNK         0.0600 
    199 H199       -1.7247  -24.8652  -44.1739 H         1 UNK         0.0600 
    200 H200       -0.9610  -24.7179  -46.6812 H         1 UNK         0.3000 
    201 H201       -0.5413  -27.3112  -47.7668 H         1 UNK         0.0600 
    202 H202        1.3022  -25.7480  -47.1946 H         1 UNK         0.0600 
    203 H203        0.7927  -24.6416  -48.4677 H         1 UNK         0.0600 
    204 H204        1.4130  -26.2351  -48.8798 H         1 UNK         0.0600 
    205 H205       -1.8329  -24.3274  -49.2154 H         1 UNK         0.3000 
    206 H206       -2.2018  -25.5016  -51.8657 H         1 UNK         0.0600 
    207 H207       -1.4799  -23.1382  -51.5633 H         1 UNK         0.0600 
    208 H208       -3.0054  -23.2308  -52.4250 H         1 UNK         0.0600 
    209 H209       -2.9822  -22.7765  -50.7207 H         1 UNK         0.0600 
    210 H210       -3.7304  -26.5859  -49.4404 H         1 UNK         0.3000 
    211 H211       -5.6671  -27.5716  -49.0149 H         1 UNK         0.0600 
    212 H212       -6.1715  -27.3104  -52.0275 H         1 UNK         0.0600 
    213 H213       -6.9512  -28.4512  -50.9402 H         1 UNK         0.0600 
    214 H214       -5.2277  -28.5810  -51.2508 H         1 UNK         0.0600 
    215 H215       -5.7938  -25.1197  -48.1686 H         1 UNK         0.3000 
    216 H216       -7.1032  -23.5926  -47.2778 H         1 UNK         0.0600 
    217 H217       -9.5445  -23.6890  -47.2858 H         1 UNK         0.0600 
    218 H218       -8.9158  -25.3089  -47.0314 H         1 UNK         0.0600 
    219 H219       -9.5610  -24.8454  -48.6060 H         1 UNK         0.0600 
    220 H220       -5.6050  -23.0951  -49.4002 H         1 UNK         0.3000 
    221 H221       -5.0422  -21.6491  -50.9849 H         1 UNK         0.0600 
    222 H222       -7.2642  -19.9027  -49.8065 H         1 UNK         0.0600 
    223 H223       -5.6075  -20.0038  -49.2156 H         1 UNK         0.0600 
    224 H224       -5.9308  -19.3400  -50.8057 H         1 UNK         0.0600 
    225 H225       -6.1949  -23.5865  -52.2239 H         1 UNK         0.3000 
    226 H226       -8.4852  -22.9143  -53.8565 H         1 UNK         0.0600 
    227 H227       -7.9647  -25.2392  -53.1799 H         1 UNK         0.0600 
    228 H228       -7.9484  -25.0923  -54.9319 H         1 UNK         0.0600 
    229 H229       -6.4315  -25.1800  -54.0436 H         1 UNK         0.0600 
    230 H230       -7.6446  -20.8275  -54.5370 H         1 UNK         0.3000 
    231 H231       -6.9900  -19.3552  -56.0527 H         1 UNK         0.0600 
    232 H232       -6.4954  -21.6702  -57.9967 H         1 UNK         0.0600 
    233 H233       -6.6974  -19.9751  -58.4128 H         1 UNK         0.0600 
    234 H234       -8.0476  -20.8736  -57.7410 H         1 UNK         0.0600 
    235 H235       -5.1898  -20.1405  -54.1254 H         1 UNK         0.3000 
    236 H236       -2.5589  -20.7241  -54.8728 H         1 UNK         0.0600 
    237 H237       -3.3887  -20.8551  -52.5561 H         1 UNK         0.0600 
    238 H238       -2.0071  -19.7754  -52.6238 H         1 UNK         0.0600 
    239 H239       -3.6294  -19.1108  -52.4952 H         1 UNK         0.0600 
    240 H240       -1.5786  -19.6511  -56.4914 H         1 UNK         0.3000 
    241 H241       -0.6571  -18.1289  -57.7703 H         1 UNK         0.0600 
    242 H242       -3.6494  -18.2221  -57.6793 H         1 UNK         0.3800 
    243 H243       -4.1120  -16.7027  -58.4159 H         1 UNK         0.3800 
    244 H244        0.2720  -15.9731  -56.7974 H         1 UNK         0.0800 
    245 H245       -0.4909  -16.3714  -55.2784 H         1 UNK         0.0800 
    246 H246        3.0832  -17.3144  -54.1838 H         1 UNK         0.0800 
    247 H247        2.1301  -15.9025  -54.5649 H         1 UNK         0.0800 
@<TRIPOS>BOND
     1    1    2 1    
     2    1  127 1    
     3    1  128 1    
     4    1  129 1    
     5    2    3 2    
     6    2    4 am   BACKBONE|DICT|INTERRES
     7    4    5 1    
     8    4  130 1    
     9    5    6 1    
    10    5   65 1    
    11    5  131 1    
    12    6    7 1    
    13    6  132 1    
    14    6  133 1    
    15    7    8 1    
    16    8    9 1    
    17    8  134 1    
    18    8  135 1    
    19    9   10 ar   
    20    9   14 ar   
    21   10   11 ar   
    22   10  136 1    
    23   11   12 ar   
    24   11  126 1    
    25   12   13 ar   
    26   12  137 1    
    27   13   14 ar   
    28   13   15 1    
    29   14  138 1    
    30   15   16 1    
    31   15  139 1    
    32   15  140 1    
    33   16   17 1    
    34   17   18 1    
    35   17  141 1    
    36   17  142 1    
    37   18   19 1    
    38   18   67 1    
    39   18  143 1    
    40   19   20 am   BACKBONE|DICT|INTERRES
    41   19  144 1    
    42   20   21 2    
    43   20   22 1    
    44   22   23 1    
    45   22   24 1    
    46   22  145 1    
    47   23  146 1    
    48   23  147 1    
    49   23  148 1    
    50   24   25 am   BACKBONE|DICT|INTERRES
    51   24  149 1    
    52   25   26 2    
    53   25   27 1    
    54   27   28 1    
    55   27   29 1    
    56   27  150 1    
    57   28  151 1    
    58   28  152 1    
    59   28  153 1    
    60   29   30 am   BACKBONE|DICT|INTERRES
    61   29  154 1    
    62   30   31 2    
    63   30   32 1    
    64   32   33 1    
    65   32   34 1    
    66   32  155 1    
    67   33  156 1    
    68   33  157 1    
    69   33  158 1    
    70   34   35 am   BACKBONE|DICT|INTERRES
    71   34  159 1    
    72   35   36 2    
    73   35   37 1    
    74   37   38 1    
    75   37   39 1    
    76   37  160 1    
    77   38  161 1    
    78   38  162 1    
    79   38  163 1    
    80   39   40 am   BACKBONE|DICT|INTERRES
    81   39  164 1    
    82   40   41 2    
    83   40   42 1    
    84   42   43 1    
    85   42   44 1    
    86   42  165 1    
    87   43  166 1    
    88   43  167 1    
    89   43  168 1    
    90   44   45 am   BACKBONE|DICT|INTERRES
    91   44  169 1    
    92   45   46 2    
    93   45   47 1    
    94   47   48 1    
    95   47   49 1    
    96   47  170 1    
    97   48  171 1    
    98   48  172 1    
    99   48  173 1    
   100   49   50 am   BACKBONE|DICT|INTERRES
   101   49  174 1    
   102   50   51 2    
   103   50   52 1    
   104   52   53 1    
   105   52   54 1    
   106   52  175 1    
   107   53  176 1    
   108   53  177 1    
   109   53  178 1    
   110   54   55 am   BACKBONE|DICT|INTERRES
   111   54  179 1    
   112   55   56 2    
   113   55   57 1    
   114   57   58 1    
   115   57   59 1    
   116   57  180 1    
   117   58  181 1    
   118   58  182 1    
   119   58  183 1    
   120   59   60 am   BACKBONE|DICT|INTERRES
   121   59  184 1    
   122   60   61 2    
   123   60   62 1    
   124   62   63 1    
   125   62   64 1    
   126   62  185 1    
   127   63  186 1    
   128   63  187 1    
   129   63  188 1    
   130   64   65 am   BACKBONE|DICT|INTERRES
   131   64  189 1    
   132   65   66 2    
   133   67   68 2    
   134   67   69 am   BACKBONE|DICT|INTERRES
   135   69   70 1    
   136   69  190 1    
   137   70   71 1    
   138   70   72 1    
   139   70  191 1    
   140   71  192 1    
   141   71  193 1    
   142   71  194 1    
   143   72   73 2    
   144   72   74 am   BACKBONE|DICT|INTERRES
   145   74   75 1    
   146   74  195 1    
   147   75   76 1    
   148   75   77 1    
   149   75  196 1    
   150   76  197 1    
   151   76  198 1    
   152   76  199 1    
   153   77   78 2    
   154   77   79 am   BACKBONE|DICT|INTERRES
   155   79   80 1    
   156   79  200 1    
   157   80   81 1    
   158   80   82 1    
   159   80  201 1    
   160   81  202 1    
   161   81  203 1    
   162   81  204 1    
   163   82   83 2    
   164   82   84 am   BACKBONE|DICT|INTERRES
   165   84   85 1    
   166   84  205 1    
   167   85   86 1    
   168   85   87 1    
   169   85  206 1    
   170   86  207 1    
   171   86  208 1    
   172   86  209 1    
   173   87   88 2    
   174   87   89 am   BACKBONE|DICT|INTERRES
   175   89   90 1    
   176   89  210 1    
   177   90   91 1    
   178   90   92 1    
   179   90  211 1    
   180   91  212 1    
   181   91  213 1    
   182   91  214 1    
   183   92   93 2    
   184   92   94 am   BACKBONE|DICT|INTERRES
   185   94   95 1    
   186   94  215 1    
   187   95   96 1    
   188   95   97 1    
   189   95  216 1    
   190   96  217 1    
   191   96  218 1    
   192   96  219 1    
   193   97   98 2    
   194   97   99 am   BACKBONE|DICT|INTERRES
   195   99  100 1    
   196   99  220 1    
   197  100  101 1    
   198  100  102 1    
   199  100  221 1    
   200  101  222 1    
   201  101  223 1    
   202  101  224 1    
   203  102  103 2    
   204  102  104 am   BACKBONE|DICT|INTERRES
   205  104  105 1    
   206  104  225 1    
   207  105  106 1    
   208  105  107 1    
   209  105  226 1    
   210  106  227 1    
   211  106  228 1    
   212  106  229 1    
   213  107  108 2    
   214  107  109 am   BACKBONE|DICT|INTERRES
   215  109  110 1    
   216  109  230 1    
   217  110  111 1    
   218  110  112 1    
   219  110  231 1    
   220  111  232 1    
   221  111  233 1    
   222  111  234 1    
   223  112  113 2    
   224  112  114 am   BACKBONE|DICT|INTERRES
   225  114  115 1    
   226  114  235 1    
   227  115  116 1    
   228  115  117 1    
   229  115  236 1    
   230  116  237 1    
   231  116  238 1    
   232  116  239 1    
   233  117  118 2    
   234  117  119 am   BACKBONE|DICT|INTERRES
   235  119  120 1    
   236  119  240 1    
   237  120  121 1    
   238  120  124 1    
   239  120  241 1    
   240  121  122 am   BACKBONE|DICT|INTERRES
   241  121  123 2    
   242  122  242 1    
   243  122  243 1    
   244  124  125 1    
   245  124  244 1    
   246  124  245 1    
   247  125  126 1    
   248  126  246 1    
   249  126  247 1    
@<TRIPOS>SUBSTRUCTURE
     1 UNK         1 GROUP             0       ****    0 ROOT    
