@<TRIPOS>MOLECULE
3R540
247   249    1
SMALL
USER_CHARGES


@<TRIPOS>ATOM
      1 CA         -6.3293  -16.5955  -48.9710 C.3       0 UNK        -0.1800 
      2 C          -4.8438  -16.9101  -48.8919 C.2       0 UNK         0.5000 
      3 O          -4.4671  -18.0441  -48.6011 O.2       0 UNK        -0.5000 
      4 N          -3.9961  -15.8990  -49.1173 N.am      1 UNK        -0.5000 
      5 CA         -2.5257  -15.9338  -49.0963 C.3       1 UNK         0.1400 
      6 C6         -1.9152  -17.0104  -50.0366 C.3       23 UNK        -0.0398 
      7 S7         -0.3544  -16.4545  -50.7971 S.3       23 UNK        -0.2404 
      8 C8          0.8803  -17.1793  -49.6632 C.3       23 UNK        -0.0205 
      9 C9          1.5799  -18.4303  -50.1879 C.ar      23 UNK        -0.0193 
     10 C10         0.9562  -19.3382  -51.0543 C.ar      23 UNK        -0.1150 
     11 C11         1.6478  -20.4580  -51.5275 C.ar      23 UNK        -0.0193 
     12 C12         2.9647  -20.6798  -51.1172 C.ar      23 UNK        -0.1150 
     13 C13         3.5940  -19.7904  -50.2440 C.ar      23 UNK        -0.0193 
     14 C14         2.8948  -18.6735  -49.7815 C.ar      23 UNK        -0.1150 
     15 C15         5.0393  -20.0146  -49.8246 C.3       23 UNK        -0.0205 
     16 S16         5.2398  -21.4608  -48.7391 S.3       23 UNK        -0.2404 
     17 C17         4.2530  -20.9877  -47.2786 C.3       23 UNK        -0.0398 
     18 CA          3.3248  -22.1333  -46.8109 C.3       11 UNK         0.1400 
     19 N           2.9940  -21.9992  -45.3920 N.am      11 UNK        -0.5000 
     20 C           2.6263  -23.0128  -44.5975 C.2       10 UNK         0.5000 
     21 O           2.5414  -24.1827  -44.9712 O.2       10 UNK        -0.5000 
     22 CA          2.2773  -22.6557  -43.1402 C.3       10 UNK         0.1400 
     23 CB          3.5448  -22.6326  -42.2729 C.3       10 UNK        -0.1800 
     24 N           1.5790  -21.3749  -43.0185 N.am      10 UNK        -0.5000 
     25 C           0.3683  -21.1269  -43.5370 C.2       9 UNK         0.5000 
     26 O          -0.3040  -21.9695  -44.1285 O.2       9 UNK        -0.5000 
     27 CA         -0.1627  -19.6893  -43.4248 C.3       9 UNK         0.1400 
     28 CB         -0.8141  -19.4523  -42.0548 C.3       9 UNK        -0.1800 
     29 N           0.8629  -18.6745  -43.6631 N.am      9 UNK        -0.5000 
     30 C           1.5536  -18.5215  -44.8012 C.2       8 UNK         0.5000 
     31 O           1.3984  -19.2259  -45.7956 O.2       8 UNK        -0.5000 
     32 CA          2.6394  -17.4365  -44.8171 C.3       8 UNK         0.1400 
     33 CB          2.0322  -16.0446  -45.0347 C.3       8 UNK        -0.1800 
     34 N           3.4256  -17.4517  -43.5861 N.am      8 UNK        -0.5000 
     35 C           4.3198  -18.4018  -43.2813 C.2       7 UNK         0.5000 
     36 O           4.6050  -19.3395  -44.0277 O.2       7 UNK        -0.5000 
     37 CA          4.9827  -18.2995  -41.8956 C.3       7 UNK         0.1400 
     38 CB          6.1659  -17.3205  -41.9306 C.3       7 UNK        -0.1800 
     39 N           4.0454  -17.8919  -40.8461 N.am      7 UNK        -0.5000 
     40 C           3.0268  -18.6485  -40.4155 C.2       6 UNK         0.5000 
     41 O           2.7644  -19.7630  -40.8669 O.2       6 UNK        -0.5000 
     42 CA          2.1289  -18.0471  -39.3183 C.3       6 UNK         0.1400 
     43 CB          2.7692  -18.2356  -37.9347 C.3       6 UNK        -0.1800 
     44 N           1.7873  -16.6324  -39.5077 N.am      6 UNK        -0.5000 
     45 C           1.1844  -16.1271  -40.5916 C.2       5 UNK         0.5000 
     46 O           0.9843  -16.7674  -41.6230 O.2       5 UNK        -0.5000 
     47 CA          0.7154  -14.6701  -40.5170 C.3       5 UNK         0.1400 
     48 CB          1.4969  -13.7911  -41.5056 C.3       5 UNK        -0.1800 
     49 N          -0.7016  -14.6375  -40.8674 N.am      5 UNK        -0.5000 
     50 C          -1.7028  -14.3656  -40.0188 C.2       4 UNK         0.5000 
     51 O          -1.5227  -14.0625  -38.8377 O.2       4 UNK        -0.5000 
     52 CA         -3.1473  -14.4652  -40.5678 C.3       4 UNK         0.1400 
     53 CB         -4.1353  -13.5379  -39.8289 C.3       4 UNK        -0.1800 
     54 N          -3.2426  -14.2811  -42.0206 N.am      4 UNK        -0.5000 
     55 C          -2.8940  -13.1988  -42.7327 C.2       3 UNK         0.5000 
     56 O          -2.5635  -12.1263  -42.2241 O.2       3 UNK        -0.5000 
     57 CA         -2.8978  -13.3403  -44.2743 C.3       3 UNK         0.1400 
     58 CB         -1.7196  -12.5775  -44.9152 C.3       3 UNK        -0.1800 
     59 N          -2.9244  -14.7192  -44.7915 N.am      3 UNK        -0.5000 
     60 C          -2.0459  -15.7035  -44.5409 C.2       2 UNK         0.5000 
     61 O          -1.1617  -15.6336  -43.6890 O.2       2 UNK        -0.5000 
     62 CA         -2.1854  -16.9859  -45.3830 C.3       2 UNK         0.1400 
     63 CB         -3.1913  -17.9497  -44.7355 C.3       2 UNK        -0.1800 
     64 N          -2.5873  -16.7535  -46.7713 N.am      2 UNK        -0.5000 
     65 C          -1.9283  -16.0130  -47.6728 C.2       1 UNK         0.5000 
     66 O          -0.8955  -15.3936  -47.4200 O.2       1 UNK        -0.5000 
     67 C           2.0544  -22.2744  -47.6804 C.2       11 UNK         0.5000 
     68 O           2.0180  -23.1270  -48.5686 O.2       11 UNK        -0.5000 
     69 N           1.0209  -21.4732  -47.3801 N.am      12 UNK        -0.5000 
     70 CA         -0.2922  -21.5048  -48.0300 C.3       12 UNK         0.1400 
     71 CB         -1.0902  -20.2604  -47.6108 C.3       12 UNK        -0.1800 
     72 C          -1.0954  -22.7846  -47.7241 C.2       12 UNK         0.5000 
     73 O          -1.9521  -23.1607  -48.5248 O.2       12 UNK        -0.5000 
     74 N          -0.8018  -23.4227  -46.5815 N.am      13 UNK        -0.5000 
     75 CA         -1.3238  -24.6949  -46.0818 C.3       13 UNK         0.1400 
     76 CB         -0.8366  -25.8648  -46.9635 C.3       13 UNK        -0.1800 
     77 C          -2.8509  -24.6666  -45.8880 C.2       13 UNK         0.5000 
     78 O          -3.3206  -24.2820  -44.8166 O.2       13 UNK        -0.5000 
     79 N          -3.5960  -25.0642  -46.9267 N.am      14 UNK        -0.5000 
     80 CA         -5.0576  -25.0331  -46.9747 C.3       14 UNK         0.1400 
     81 CB         -5.5291  -25.8931  -48.1577 C.3       14 UNK        -0.1800 
     82 C          -5.6379  -23.6083  -47.0823 C.2       14 UNK         0.5000 
     83 O          -6.8148  -23.4230  -46.7685 O.2       14 UNK        -0.5000 
     84 N          -4.8147  -22.6429  -47.5240 N.am      15 UNK        -0.5000 
     85 CA         -5.1664  -21.2471  -47.8042 C.3       15 UNK         0.1400 
     86 CB         -5.6051  -20.5169  -46.5139 C.3       15 UNK        -0.1800 
     87 C          -6.1771  -21.1451  -48.9683 C.2       15 UNK         0.5000 
     88 O          -6.1502  -21.9997  -49.8578 O.2       15 UNK        -0.5000 
     89 N          -7.0258  -20.1056  -48.9610 N.am      16 UNK        -0.5000 
     90 CA         -8.1113  -19.8243  -49.9099 C.3       16 UNK         0.1400 
     91 CB         -9.2861  -20.7979  -49.6718 C.3       16 UNK        -0.1800 
     92 C          -7.6272  -19.7972  -51.3750 C.2       16 UNK         0.5000 
     93 O          -7.0906  -18.7818  -51.8205 O.2       16 UNK        -0.5000 
     94 N          -7.7712  -20.9309  -52.0764 N.am      17 UNK        -0.5000 
     95 CA         -7.2797  -21.1826  -53.4333 C.3       17 UNK         0.1400 
     96 CB         -7.7176  -22.5891  -53.8675 C.3       17 UNK        -0.1800 
     97 C          -5.7547  -21.0183  -53.5989 C.2       17 UNK         0.5000 
     98 O          -5.2976  -20.8085  -54.7216 O.2       17 UNK        -0.5000 
     99 N          -4.9983  -21.0542  -52.4901 N.am      18 UNK        -0.5000 
    100 CA        -3.5680  -20.7395  -52.4244 C.3       18 UNK         0.1400 
    101 CB        -3.0910  -20.8352  -50.9684 C.3       18 UNK        -0.1800 
    102 C         -3.2034  -19.3555  -53.0019 C.2       18 UNK         0.5000 
    103 O         -2.1110  -19.1984  -53.5464 O.2       18 UNK        -0.5000 
    104 N         -4.1314  -18.3909  -52.9053 N.am      19 UNK        -0.5000 
    105 CA        -3.9925  -17.0450  -53.4631 C.3       19 UNK         0.1400 
    106 CB        -5.1075  -16.1521  -52.9003 C.3       19 UNK        -0.1800 
    107 C         -4.0008  -17.0071  -55.0038 C.2       19 UNK         0.5000 
    108 O         -3.4432  -16.0739  -55.5829 O.2       19 UNK        -0.5000 
    109 N         -4.5985  -18.0170  -55.6521 N.am      20 UNK        -0.5000 
    110 CA        -4.6569  -18.1604  -57.1071 C.3       20 UNK         0.1400 
    111 CB        -5.9492  -18.9045  -57.4899 C.3       20 UNK        -0.1800 
    112 C         -3.3847  -18.8538  -57.6330 C.2       20 UNK         0.5000 
    113 O         -3.4635  -19.9290  -58.2309 O.2       20 UNK        -0.5000 
    114 N         -2.2260  -18.2351  -57.3583 N.am      21 UNK        -0.5000 
    115 CA        -0.8711  -18.6628  -57.7336 C.3       21 UNK         0.1400 
    116 CB        -0.6517  -18.4511  -59.2459 C.3       21 UNK        -0.1800 
    117 C         -0.5296  -20.0985  -57.2751 C.2       21 UNK         0.5000 
    118 O          0.1307  -20.8416  -58.0039 O.2       21 UNK        -0.5000 
    119 N         -1.0163  -20.4644  -56.0824 N.am      22 UNK        -0.5000 
    120 CA        -0.9274  -21.8023  -55.4748 C.3       22 UNK         0.1400 
    121 C         -1.7570  -22.9088  -56.1973 C.2       22 UNK         0.5000 
    122 N         -2.6572  -22.5823  -57.1177 N.am      22 UNK        -0.7600 
    123 O         -1.6085  -24.0898  -55.8956 O.2       22 UNK        -0.5000 
    124 C124        0.5267  -22.2536  -55.1569 C.3       23 UNK        -0.0398 
    125 S125        1.4723  -21.0111  -54.2116 S.3       23 UNK        -0.2404 
    126 C126        0.9887  -21.4153  -52.5057 C.3       23 UNK        -0.0205 
    127 H127       -6.7445  -16.9865  -49.8981 H         1 UNK         0.0600 
    128 H128       -6.5150  -15.5217  -48.9429 H         1 UNK         0.0600 
    129 H129       -6.8585  -17.0512  -48.1345 H         1 UNK         0.0600 
    130 H130       -4.3857  -14.9879  -49.3165 H         1 UNK         0.3000 
    131 H131       -2.2439  -14.9525  -49.4821 H         1 UNK         0.0600 
    132 H132       -2.5997  -17.2091  -50.8589 H         1 UNK         0.0800 
    133 H133       -1.7840  -17.9711  -49.5361 H         1 UNK         0.0800 
    134 H134        0.4340  -17.4083  -48.6966 H         1 UNK         0.0800 
    135 H135        1.6236  -16.4046  -49.4688 H         1 UNK         0.0800 
    136 H136       -0.0592  -19.1679  -51.3821 H         1 UNK         0.1150 
    137 H137        3.5048  -21.5408  -51.4857 H         1 UNK         0.1150 
    138 H138        3.3820  -17.9810  -49.1093 H         1 UNK         0.1150 
    139 H139        5.6493  -20.1584  -50.7175 H         1 UNK         0.0800 
    140 H140        5.4406  -19.1336  -49.3212 H         1 UNK         0.0800 
    141 H141        3.6894  -20.0707  -47.4542 H         1 UNK         0.0800 
    142 H142        4.9679  -20.7442  -46.4911 H         1 UNK         0.0800 
    143 H143        3.8831  -23.0669  -46.9141 H         1 UNK         0.0600 
    144 H144        3.0309  -21.0667  -45.0025 H         1 UNK         0.3000 
    145 H145        1.6162  -23.4360  -42.7573 H         1 UNK         0.0600 
    146 H146        3.2989  -22.4859  -41.2211 H         1 UNK         0.0600 
    147 H147        4.2225  -21.8322  -42.5727 H         1 UNK         0.0600 
    148 H148        4.0905  -23.5738  -42.3502 H         1 UNK         0.0600 
    149 H149        2.0471  -20.6476  -42.4858 H         1 UNK         0.3000 
    150 H150       -0.9271  -19.5694  -44.1923 H         1 UNK         0.0600 
    151 H151       -1.6264  -20.1589  -41.8805 H         1 UNK         0.0600 
    152 H152       -1.2327  -18.4481  -41.9842 H         1 UNK         0.0600 
    153 H153       -0.0948  -19.5694  -41.2441 H         1 UNK         0.0600 
    154 H154        1.0230  -18.0130  -42.9040 H         1 UNK         0.3000 
    155 H155        3.3058  -17.6457  -45.6570 H         1 UNK         0.0600 
    156 H156        1.4285  -16.0185  -45.9429 H         1 UNK         0.0600 
    157 H157        2.8081  -15.2859  -45.1356 H         1 UNK         0.0600 
    158 H158        1.3880  -15.7564  -44.2058 H         1 UNK         0.0600 
    159 H159        3.1972  -16.7570  -42.8903 H         1 UNK         0.3000 
    160 H160        5.3678  -19.2891  -41.6401 H         1 UNK         0.0600 
    161 H161        5.8423  -16.3030  -42.1535 H         1 UNK         0.0600 
    162 H162        6.8889  -17.6101  -42.6943 H         1 UNK         0.0600 
    163 H163        6.6923  -17.3043  -40.9761 H         1 UNK         0.0600 
    164 H164        4.1839  -16.9830  -40.4296 H         1 UNK         0.3000 
    165 H165        1.1912  -18.6060  -39.3307 H         1 UNK         0.0600 
    166 H166        2.0894  -17.9285  -37.1398 H         1 UNK         0.0600 
    167 H167        3.0191  -19.2829  -37.7588 H         1 UNK         0.0600 
    168 H168        3.6883  -17.6572  -37.8334 H         1 UNK         0.0600 
    169 H169        1.9264  -16.0324  -38.7075 H         1 UNK         0.3000 
    170 H170        0.8832  -14.2875  -39.5083 H         1 UNK         0.0600 
    171 H171        1.3375  -14.1032  -42.5379 H         1 UNK         0.0600 
    172 H172        1.1903  -12.7481  -41.4259 H         1 UNK         0.0600 
    173 H173        2.5685  -13.8333  -41.3075 H         1 UNK         0.0600 
    174 H174       -0.9200  -14.9503  -41.8102 H         1 UNK         0.3000 
    175 H175       -3.4624  -15.4920  -40.3779 H         1 UNK         0.0600 
    176 H176       -3.8408  -12.4907  -39.9007 H         1 UNK         0.0600 
    177 H177       -5.1429  -13.6321  -40.2338 H         1 UNK         0.0600 
    178 H178       -4.1895  -13.7885  -38.7689 H         1 UNK         0.0600 
    179 H179       -3.4822  -15.1092  -42.5463 H         1 UNK         0.3000 
    180 H180       -3.8214  -12.8706  -44.6147 H         1 UNK         0.0600 
    181 H181       -1.7388  -12.6628  -46.0018 H         1 UNK         0.0600 
    182 H182       -0.7586  -12.9598  -44.5681 H         1 UNK         0.0600 
    183 H183       -1.7565  -11.5145  -44.6747 H         1 UNK         0.0600 
    184 H184       -3.6316  -14.9033  -45.4886 H         1 UNK         0.3000 
    185 H185       -1.2062  -17.4658  -45.4053 H         1 UNK         0.0600 
    186 H186       -4.2090  -17.5602  -44.7808 H         1 UNK         0.0600 
    187 H187       -3.1821  -18.9185  -45.2347 H         1 UNK         0.0600 
    188 H188       -2.9555  -18.1225  -43.6854 H         1 UNK         0.0600 
    189 H189       -3.4010  -17.2593  -47.1044 H         1 UNK         0.3000 
    190 H190        1.1503  -20.7519  -46.6722 H         1 UNK         0.3000 
    191 H191       -0.1317  -21.4632  -49.1091 H         1 UNK         0.0600 
    192 H192       -0.5294  -19.3479  -47.8063 H         1 UNK         0.0600 
    193 H193       -1.3348  -20.2789  -46.5484 H         1 UNK         0.0600 
    194 H194       -2.0248  -20.1880  -48.1652 H         1 UNK         0.0600 
    195 H195       -0.1841  -22.9436  -45.9358 H         1 UNK         0.3000 
    196 H196       -0.8890  -24.8317  -45.0904 H         1 UNK         0.0600 
    197 H197        0.2516  -25.9307  -46.9479 H         1 UNK         0.0600 
    198 H198       -1.1420  -25.7598  -48.0048 H         1 UNK         0.0600 
    199 H199       -1.2231  -26.8173  -46.5989 H         1 UNK         0.0600 
    200 H200       -3.1204  -25.3104  -47.7833 H         1 UNK         0.3000 
    201 H201       -5.4411  -25.4765  -46.0534 H         1 UNK         0.0600 
    202 H202       -5.1776  -26.9209  -48.0650 H         1 UNK         0.0600 
    203 H203       -5.1702  -25.4977  -49.1090 H         1 UNK         0.0600 
    204 H204       -6.6183  -25.9262  -48.2071 H         1 UNK         0.0600 
    205 H205       -3.8813  -22.9215  -47.8076 H         1 UNK         0.3000 
    206 H206       -4.2511  -20.7729  -48.1533 H         1 UNK         0.0600 
    207 H207       -6.5899  -20.8397  -46.1749 H         1 UNK         0.0600 
    208 H208       -4.9000  -20.7014  -45.7034 H         1 UNK         0.0600 
    209 H209       -5.6448  -19.4375  -46.6583 H         1 UNK         0.0600 
    210 H210       -6.9186  -19.4316  -48.2172 H         1 UNK         0.3000 
    211 H211       -8.4710  -18.8188  -49.6880 H         1 UNK         0.0600 
    212 H212       -8.9874  -21.8422  -49.7684 H         1 UNK         0.0600 
    213 H213      -10.0978  -20.6161  -50.3776 H         1 UNK         0.0600 
    214 H214       -9.6971  -20.6690  -48.6705 H         1 UNK         0.0600 
    215 H215       -8.1657  -21.7262  -51.5954 H         1 UNK         0.3000 
    216 H216       -7.7543  -20.4546  -54.0942 H         1 UNK         0.0600 
    217 H217       -7.3943  -22.8024  -54.8873 H         1 UNK         0.0600 
    218 H218       -8.8029  -22.6900  -53.8447 H         1 UNK         0.0600 
    219 H219       -7.2936  -23.3582  -53.2205 H         1 UNK         0.0600 
    220 H220       -5.4551  -21.2804  -51.6120 H         1 UNK         0.3000 
    221 H221       -3.0489  -21.5003  -53.0060 H         1 UNK         0.0600 
    222 H222       -3.3119  -21.8137  -50.5416 H         1 UNK         0.0600 
    223 H223       -2.0132  -20.6870  -50.8967 H         1 UNK         0.0600 
    224 H224       -3.5658  -20.0772  -50.3451 H         1 UNK         0.0600 
    225 H225       -5.0192  -18.6079  -52.4657 H         1 UNK         0.3000 
    226 H226       -3.0326  -16.6394  -53.1372 H         1 UNK         0.0600 
    227 H227       -5.0661  -16.1070  -51.8134 H         1 UNK         0.0600 
    228 H228       -5.0161  -15.1302  -53.2705 H         1 UNK         0.0600 
    229 H229       -6.0957  -16.5175  -53.1829 H         1 UNK         0.0600 
    230 H230       -4.9540  -18.8025  -55.1184 H         1 UNK         0.3000 
    231 H231       -4.7027  -17.1718  -57.5686 H         1 UNK         0.0600 
    232 H232       -6.0563  -18.9640  -58.5736 H         1 UNK         0.0600 
    233 H233       -6.8296  -18.3901  -57.1045 H         1 UNK         0.0600 
    234 H234       -5.9619  -19.9243  -57.1051 H         1 UNK         0.0600 
    235 H235       -2.2840  -17.3736  -56.8267 H         1 UNK         0.3000 
    236 H236       -0.1820  -18.0044  -57.2030 H         1 UNK         0.0600 
    237 H237       -1.2829  -19.1122  -59.8408 H         1 UNK         0.0600 
    238 H238       -0.8738  -17.4244  -59.5366 H         1 UNK         0.0600 
    239 H239        0.3843  -18.6480  -59.5241 H         1 UNK         0.0600 
    240 H240       -1.5201  -19.7806  -55.5303 H         1 UNK         0.3000 
    241 H241       -1.4244  -21.6961  -54.5142 H         1 UNK         0.0600 
    242 H242       -2.8109  -21.6174  -57.3924 H         1 UNK         0.3800 
    243 H243       -3.1912  -23.3116  -57.5620 H         1 UNK         0.3800 
    244 H244        1.0687  -22.4618  -56.0801 H         1 UNK         0.0800 
    245 H245        0.5268  -23.1882  -54.5938 H         1 UNK         0.0800 
    246 H246       -0.0968  -21.3639  -52.4122 H         1 UNK         0.0800 
    247 H247        1.2764  -22.4415  -52.2719 H         1 UNK         0.0800 
@<TRIPOS>BOND
     1    1    2 1    
     2    1  127 1    
     3    1  128 1    
     4    1  129 1    
     5    2    3 2    
     6    2    4 am   BACKBONE|DICT|INTERRES
     7    4    5 1    
     8    4  130 1    
     9    5    6 1    
    10    5   65 1    
    11    5  131 1    
    12    6    7 1    
    13    6  132 1    
    14    6  133 1    
    15    7    8 1    
    16    8    9 1    
    17    8  134 1    
    18    8  135 1    
    19    9   10 ar   
    20    9   14 ar   
    21   10   11 ar   
    22   10  136 1    
    23   11   12 ar   
    24   11  126 1    
    25   12   13 ar   
    26   12  137 1    
    27   13   14 ar   
    28   13   15 1    
    29   14  138 1    
    30   15   16 1    
    31   15  139 1    
    32   15  140 1    
    33   16   17 1    
    34   17   18 1    
    35   17  141 1    
    36   17  142 1    
    37   18   19 1    
    38   18   67 1    
    39   18  143 1    
    40   19   20 am   BACKBONE|DICT|INTERRES
    41   19  144 1    
    42   20   21 2    
    43   20   22 1    
    44   22   23 1    
    45   22   24 1    
    46   22  145 1    
    47   23  146 1    
    48   23  147 1    
    49   23  148 1    
    50   24   25 am   BACKBONE|DICT|INTERRES
    51   24  149 1    
    52   25   26 2    
    53   25   27 1    
    54   27   28 1    
    55   27   29 1    
    56   27  150 1    
    57   28  151 1    
    58   28  152 1    
    59   28  153 1    
    60   29   30 am   BACKBONE|DICT|INTERRES
    61   29  154 1    
    62   30   31 2    
    63   30   32 1    
    64   32   33 1    
    65   32   34 1    
    66   32  155 1    
    67   33  156 1    
    68   33  157 1    
    69   33  158 1    
    70   34   35 am   BACKBONE|DICT|INTERRES
    71   34  159 1    
    72   35   36 2    
    73   35   37 1    
    74   37   38 1    
    75   37   39 1    
    76   37  160 1    
    77   38  161 1    
    78   38  162 1    
    79   38  163 1    
    80   39   40 am   BACKBONE|DICT|INTERRES
    81   39  164 1    
    82   40   41 2    
    83   40   42 1    
    84   42   43 1    
    85   42   44 1    
    86   42  165 1    
    87   43  166 1    
    88   43  167 1    
    89   43  168 1    
    90   44   45 am   BACKBONE|DICT|INTERRES
    91   44  169 1    
    92   45   46 2    
    93   45   47 1    
    94   47   48 1    
    95   47   49 1    
    96   47  170 1    
    97   48  171 1    
    98   48  172 1    
    99   48  173 1    
   100   49   50 am   BACKBONE|DICT|INTERRES
   101   49  174 1    
   102   50   51 2    
   103   50   52 1    
   104   52   53 1    
   105   52   54 1    
   106   52  175 1    
   107   53  176 1    
   108   53  177 1    
   109   53  178 1    
   110   54   55 am   BACKBONE|DICT|INTERRES
   111   54  179 1    
   112   55   56 2    
   113   55   57 1    
   114   57   58 1    
   115   57   59 1    
   116   57  180 1    
   117   58  181 1    
   118   58  182 1    
   119   58  183 1    
   120   59   60 am   BACKBONE|DICT|INTERRES
   121   59  184 1    
   122   60   61 2    
   123   60   62 1    
   124   62   63 1    
   125   62   64 1    
   126   62  185 1    
   127   63  186 1    
   128   63  187 1    
   129   63  188 1    
   130   64   65 am   BACKBONE|DICT|INTERRES
   131   64  189 1    
   132   65   66 2    
   133   67   68 2    
   134   67   69 am   BACKBONE|DICT|INTERRES
   135   69   70 1    
   136   69  190 1    
   137   70   71 1    
   138   70   72 1    
   139   70  191 1    
   140   71  192 1    
   141   71  193 1    
   142   71  194 1    
   143   72   73 2    
   144   72   74 am   BACKBONE|DICT|INTERRES
   145   74   75 1    
   146   74  195 1    
   147   75   76 1    
   148   75   77 1    
   149   75  196 1    
   150   76  197 1    
   151   76  198 1    
   152   76  199 1    
   153   77   78 2    
   154   77   79 am   BACKBONE|DICT|INTERRES
   155   79   80 1    
   156   79  200 1    
   157   80   81 1    
   158   80   82 1    
   159   80  201 1    
   160   81  202 1    
   161   81  203 1    
   162   81  204 1    
   163   82   83 2    
   164   82   84 am   BACKBONE|DICT|INTERRES
   165   84   85 1    
   166   84  205 1    
   167   85   86 1    
   168   85   87 1    
   169   85  206 1    
   170   86  207 1    
   171   86  208 1    
   172   86  209 1    
   173   87   88 2    
   174   87   89 am   BACKBONE|DICT|INTERRES
   175   89   90 1    
   176   89  210 1    
   177   90   91 1    
   178   90   92 1    
   179   90  211 1    
   180   91  212 1    
   181   91  213 1    
   182   91  214 1    
   183   92   93 2    
   184   92   94 am   BACKBONE|DICT|INTERRES
   185   94   95 1    
   186   94  215 1    
   187   95   96 1    
   188   95   97 1    
   189   95  216 1    
   190   96  217 1    
   191   96  218 1    
   192   96  219 1    
   193   97   98 2    
   194   97   99 am   BACKBONE|DICT|INTERRES
   195   99  100 1    
   196   99  220 1    
   197  100  101 1    
   198  100  102 1    
   199  100  221 1    
   200  101  222 1    
   201  101  223 1    
   202  101  224 1    
   203  102  103 2    
   204  102  104 am   BACKBONE|DICT|INTERRES
   205  104  105 1    
   206  104  225 1    
   207  105  106 1    
   208  105  107 1    
   209  105  226 1    
   210  106  227 1    
   211  106  228 1    
   212  106  229 1    
   213  107  108 2    
   214  107  109 am   BACKBONE|DICT|INTERRES
   215  109  110 1    
   216  109  230 1    
   217  110  111 1    
   218  110  112 1    
   219  110  231 1    
   220  111  232 1    
   221  111  233 1    
   222  111  234 1    
   223  112  113 2    
   224  112  114 am   BACKBONE|DICT|INTERRES
   225  114  115 1    
   226  114  235 1    
   227  115  116 1    
   228  115  117 1    
   229  115  236 1    
   230  116  237 1    
   231  116  238 1    
   232  116  239 1    
   233  117  118 2    
   234  117  119 am   BACKBONE|DICT|INTERRES
   235  119  120 1    
   236  119  240 1    
   237  120  121 1    
   238  120  124 1    
   239  120  241 1    
   240  121  122 am   BACKBONE|DICT|INTERRES
   241  121  123 2    
   242  122  242 1    
   243  122  243 1    
   244  124  125 1    
   245  124  244 1    
   246  124  245 1    
   247  125  126 1    
   248  126  246 1    
   249  126  247 1    
@<TRIPOS>SUBSTRUCTURE
     1 UNK         1 GROUP             0       ****    0 ROOT    
