@<TRIPOS>MOLECULE
3R540
247   249    1
SMALL
USER_CHARGES


@<TRIPOS>ATOM
      1 CA          9.2499  -12.4360  -48.8375 C.3       0 UNK        -0.1800 
      2 C           8.6269  -12.8928  -50.1558 C.2       0 UNK         0.5000 
      3 O           9.1992  -12.6346  -51.2132 O.2       0 UNK        -0.5000 
      4 N           7.4773  -13.5812  -50.1536 N.am      1 UNK        -0.5000 
      5 CA          6.6341  -13.9026  -48.9948 C.3       1 UNK         0.1400 
      6 C6          5.5875  -14.9942  -49.3298 C.3       23 UNK        -0.0398 
      7 S7          6.3563  -16.5556  -49.8826 S.3       23 UNK        -0.2404 
      8 C8          5.5526  -16.8196  -51.4957 C.3       23 UNK        -0.0205 
      9 C9          4.1238  -17.3183  -51.3356 C.ar      23 UNK        -0.0193 
     10 C10         3.0443  -16.4377  -51.4422 C.ar      23 UNK        -0.1150 
     11 C11         1.7292  -16.8895  -51.2888 C.ar      23 UNK        -0.0193 
     12 C12         1.5041  -18.2502  -51.0332 C.ar      23 UNK        -0.1150 
     13 C13         2.5755  -19.1431  -50.9321 C.ar      23 UNK        -0.0193 
     14 C14         3.8810  -18.6705  -51.0888 C.ar      23 UNK        -0.1150 
     15 C15         2.3356  -20.6239  -50.6768 C.3       23 UNK        -0.0205 
     16 S16         2.9545  -21.1360  -49.0432 S.3       23 UNK        -0.2404 
     17 C17         1.5809  -20.6446  -47.9478 C.3       23 UNK        -0.0398 
     18 CA          0.8388  -21.8771  -47.3768 C.3       11 UNK         0.1400 
     19 N           0.1506  -21.5841  -46.1187 N.am      11 UNK        -0.5000 
     20 C          -0.3732  -22.5141  -45.3076 C.2       10 UNK         0.5000 
     21 O          -0.3008  -23.7246  -45.5199 O.2       10 UNK        -0.5000 
     22 CA         -1.1474  -22.0069  -44.0786 C.3       10 UNK         0.1400 
     23 CB         -0.1838  -21.5979  -42.9550 C.3       10 UNK        -0.1800 
     24 N          -2.0433  -20.8935  -44.3970 N.am      10 UNK        -0.5000 
     25 C          -3.0956  -20.9851  -45.2236 C.2       9 UNK         0.5000 
     26 O          -3.4332  -22.0276  -45.7839 O.2       9 UNK        -0.5000 
     27 CA         -3.8811  -19.6925  -45.5012 C.3       9 UNK         0.1400 
     28 CB         -4.8521  -19.3859  -44.3524 C.3       9 UNK        -0.1800 
     29 N          -3.0016  -18.5464  -45.7259 N.am      9 UNK        -0.5000 
     30 C          -2.2148  -18.3996  -46.8007 C.2       8 UNK         0.5000 
     31 O          -2.2125  -19.1753  -47.7575 O.2       8 UNK        -0.5000 
     32 CA         -1.2611  -17.1932  -46.8039 C.3       8 UNK         0.1400 
     33 CB         -2.0011  -15.9130  -47.2165 C.3       8 UNK        -0.1800 
     34 N          -0.6328  -16.9701  -45.5065 N.am      8 UNK        -0.5000 
     35 C           0.1778  -17.8221  -44.8697 C.2       7 UNK         0.5000 
     36 O           0.5231  -18.9108  -45.3239 O.2       7 UNK        -0.5000 
     37 CA          0.6391  -17.3993  -43.4657 C.3       7 UNK         0.1400 
     38 CB          1.8124  -16.4103  -43.5497 C.3       7 UNK        -0.1800 
     39 N          -0.4495  -16.8045  -42.6894 N.am      7 UNK        -0.5000 
     40 C          -1.5171  -17.4773  -42.2385 C.2       6 UNK         0.5000 
     41 O          -1.6932  -18.6824  -42.4179 O.2       6 UNK        -0.5000 
     42 CA         -2.5827  -16.6536  -41.4925 C.3       6 UNK         0.1400 
     43 CB         -2.1474  -16.3833  -40.0444 C.3       6 UNK        -0.1800 
     44 N          -2.8819  -15.3837  -42.1572 N.am      6 UNK        -0.5000 
     45 C          -3.4939  -15.2866  -43.3451 C.2       5 UNK         0.5000 
     46 O          -3.8721  -16.2574  -44.0006 O.2       5 UNK        -0.5000 
     47 CA         -3.6773  -13.8683  -43.9204 C.3       5 UNK         0.1400 
     48 CB         -4.9044  -13.1882  -43.2950 C.3       5 UNK        -0.1800 
     49 N          -2.5121  -12.9816  -43.7953 N.am      5 UNK        -0.5000 
     50 C          -1.2684  -13.2797  -44.1935 C.2       4 UNK         0.5000 
     51 O          -0.9120  -14.4056  -44.5397 O.2       4 UNK        -0.5000 
     52 CA         -0.2327  -12.1421  -44.2066 C.3       4 UNK         0.1400 
     53 CB          0.5375  -12.1036  -42.8783 C.3       4 UNK        -0.1800 
     54 N           0.7191  -12.3427  -45.3013 N.am      4 UNK        -0.5000 
     55 C           0.4102  -12.2626  -46.6041 C.2       3 UNK         0.5000 
     56 O          -0.6684  -11.8351  -47.0203 O.2       3 UNK        -0.5000 
     57 CA          1.4765  -12.7757  -47.5978 C.3       3 UNK         0.1400 
     58 CB          1.2924  -12.2198  -49.0250 C.3       3 UNK        -0.1800 
     59 N           2.8595  -12.5844  -47.1430 N.am      3 UNK        -0.5000 
     60 C           3.4704  -11.4225  -46.8596 C.2       2 UNK         0.5000 
     61 O           2.9224  -10.3207  -46.8995 O.2       2 UNK        -0.5000 
     62 CA          4.9596  -11.5136  -46.4717 C.3       2 UNK         0.1400 
     63 CB          5.1067  -11.6812  -44.9512 C.3       2 UNK        -0.1800 
     64 N           5.6669  -12.6070  -47.1482 N.am      2 UNK        -0.5000 
     65 C           5.9218  -12.6408  -48.4637 C.2       1 UNK         0.5000 
     66 O           5.6026  -11.7415  -49.2452 O.2       1 UNK        -0.5000 
     67 C          -0.1117  -22.5108  -48.4114 C.2       11 UNK         0.5000 
     68 O           0.2742  -23.4749  -49.0716 O.2       11 UNK        -0.5000 
     69 N          -1.3514  -22.0047  -48.4967 N.am      12 UNK        -0.5000 
     70 CA         -2.4073  -22.5821  -49.3266 C.3       12 UNK         0.1400 
     71 CB         -3.6501  -21.6914  -49.2965 C.3       12 UNK        -0.1800 
     72 C          -2.7723  -24.0147  -48.9100 C.2       12 UNK         0.5000 
     73 O          -2.8460  -24.8875  -49.7722 O.2       12 UNK        -0.5000 
     74 N          -2.9465  -24.2415  -47.6008 N.am      13 UNK        -0.5000 
     75 CA         -3.2202  -25.5563  -47.0206 C.3       13 UNK         0.1400 
     76 CB         -3.5072  -25.4095  -45.5190 C.3       13 UNK        -0.1800 
     77 C          -2.0865  -26.5682  -47.2733 C.2       13 UNK         0.5000 
     78 O          -2.3685  -27.7128  -47.6283 O.2       13 UNK        -0.5000 
     79 N          -0.8304  -26.1183  -47.1386 N.am      14 UNK        -0.5000 
     80 CA          0.3722  -26.8991  -47.4394 C.3       14 UNK         0.1400 
     81 CB          1.6126  -26.1369  -46.9491 C.3       14 UNK        -0.1800 
     82 C           0.5045  -27.2531  -48.9341 C.2       14 UNK         0.5000 
     83 O           0.9111  -28.3687  -49.2607 O.2       14 UNK        -0.5000 
     84 N           0.1344  -26.3112  -49.8119 N.am      15 UNK        -0.5000 
     85 CA          0.1095  -26.4775  -51.2674 C.3       15 UNK         0.1400 
     86 CB          0.1157  -25.0852  -51.9204 C.3       15 UNK        -0.1800 
     87 C          -1.0903  -27.3021  -51.7810 C.2       15 UNK         0.5000 
     88 O          -1.1035  -27.6630  -52.9586 O.2       15 UNK        -0.5000 
     89 N          -2.0762  -27.5613  -50.9088 N.am      16 UNK        -0.5000 
     90 CA         -3.3770  -28.1836  -51.1816 C.3       16 UNK         0.1400 
     91 CB         -3.2147  -29.6435  -51.6542 C.3       16 UNK        -0.1800 
     92 C          -4.2629  -27.3294  -52.1167 C.2       16 UNK         0.5000 
     93 O          -5.0314  -27.8694  -52.9152 O.2       16 UNK        -0.5000 
     94 N          -4.1405  -26.0044  -51.9860 N.am      17 UNK        -0.5000 
     95 CA         -4.9589  -24.9926  -52.6453 C.3       17 UNK         0.1400 
     96 CB         -4.0539  -23.7939  -52.9827 C.3       17 UNK        -0.1800 
     97 C          -6.1183  -24.5663  -51.7240 C.2       17 UNK         0.5000 
     98 O          -6.2140  -25.0288  -50.5833 O.2       17 UNK        -0.5000 
     99 N          -6.9827  -23.6773  -52.2313 N.am      18 UNK        -0.5000 
    100 CA        -8.0652  -23.0511  -51.4712 C.3       18 UNK         0.1400 
    101 CB        -8.9508  -22.2340  -52.4247 C.3       18 UNK        -0.1800 
    102 C         -7.5046  -22.1583  -50.3490 C.2       18 UNK         0.5000 
    103 O         -6.7080  -21.2611  -50.6296 O.2       18 UNK        -0.5000 
    104 N         -7.9334  -22.4171  -49.1069 N.am      19 UNK        -0.5000 
    105 CA        -7.4189  -21.7964  -47.8803 C.3       19 UNK         0.1400 
    106 CB        -7.9843  -22.5517  -46.6677 C.3       19 UNK        -0.1800 
    107 C         -7.6793  -20.2819  -47.7464 C.2       19 UNK         0.5000 
    108 O         -7.1044  -19.6506  -46.8594 O.2       19 UNK        -0.5000 
    109 N         -8.5164  -19.7133  -48.6232 N.am      20 UNK        -0.5000 
    110 CA        -8.8382  -18.2889  -48.7241 C.3       20 UNK         0.1400 
    111 CB       -10.1433  -18.1430  -49.5280 C.3       20 UNK        -0.1800 
    112 C         -7.6763  -17.4498  -49.3093 C.2       20 UNK         0.5000 
    113 O         -7.8630  -16.7561  -50.3095 O.2       20 UNK        -0.5000 
    114 N         -6.5139  -17.5271  -48.6471 N.am      21 UNK        -0.5000 
    115 CA        -5.2497  -16.8332  -48.8970 C.3       21 UNK         0.1400 
    116 CB        -5.4119  -15.3087  -48.7298 C.3       21 UNK        -0.1800 
    117 C         -4.5907  -17.2013  -50.2429 C.2       21 UNK         0.5000 
    118 O         -4.9766  -16.6752  -51.2878 O.2       21 UNK        -0.5000 
    119 N         -3.5683  -18.0652  -50.1772 N.am      22 UNK        -0.5000 
    120 CA        -2.6691  -18.4415  -51.2870 C.3       22 UNK         0.1400 
    121 C         -3.3200  -19.2979  -52.4181 C.2       22 UNK         0.5000 
    122 N         -4.4979  -19.8790  -52.2313 N.am      22 UNK        -0.7600 
    123 O         -2.7318  -19.4699  -53.4821 O.2       22 UNK        -0.5000 
    124 C124       -1.8599  -17.2387  -51.8582 C.3       23 UNK        -0.0398 
    125 S125       -0.9577  -16.2946  -50.5795 S.3       23 UNK        -0.2404 
    126 C126        0.5966  -15.8720  -51.4346 C.3       23 UNK        -0.0205 
    127 H127        9.3265  -13.2587  -48.1273 H         1 UNK         0.0600 
    128 H128        8.6646  -11.6334  -48.3894 H         1 UNK         0.0600 
    129 H129       10.2578  -12.0559  -49.0058 H         1 UNK         0.0600 
    130 H130        7.0938  -13.8633  -51.0432 H         1 UNK         0.3000 
    131 H131        7.2755  -14.2924  -48.2025 H         1 UNK         0.0600 
    132 H132        4.8950  -14.6311  -50.0904 H         1 UNK         0.0800 
    133 H133        4.9787  -15.2269  -48.4544 H         1 UNK         0.0800 
    134 H134        5.5818  -15.9005  -52.0829 H         1 UNK         0.0800 
    135 H135        6.1303  -17.5548  -52.0579 H         1 UNK         0.0800 
    136 H136        3.2279  -15.3927  -51.6485 H         1 UNK         0.1150 
    137 H137        0.4987  -18.6252  -50.9189 H         1 UNK         0.1150 
    138 H138        4.7118  -19.3579  -51.0090 H         1 UNK         0.1150 
    139 H139        1.2788  -20.8789  -50.7714 H         1 UNK         0.0800 
    140 H140        2.8559  -21.2008  -51.4427 H         1 UNK         0.0800 
    141 H141        0.8992  -19.9551  -48.4497 H         1 UNK         0.0800 
    142 H142        2.0330  -20.0754  -47.1351 H         1 UNK         0.0800 
    143 H143        1.5897  -22.6322  -47.1326 H         1 UNK         0.0600 
    144 H144        0.0976  -20.6045  -45.8457 H         1 UNK         0.3000 
    145 H145       -1.7614  -22.8321  -43.7121 H         1 UNK         0.0600 
    146 H146       -0.7277  -21.3195  -42.0523 H         1 UNK         0.0600 
    147 H147        0.4821  -22.4209  -42.6927 H         1 UNK         0.0600 
    148 H148        0.4384  -20.7511  -43.2447 H         1 UNK         0.0600 
    149 H149       -1.8519  -20.0097  -43.9362 H         1 UNK         0.3000 
    150 H150       -4.4675  -19.8509  -46.4080 H         1 UNK         0.0600 
    151 H151       -5.5221  -20.2277  -44.1732 H         1 UNK         0.0600 
    152 H152       -5.4748  -18.5224  -44.5872 H         1 UNK         0.0600 
    153 H153       -4.3248  -19.1759  -43.4211 H         1 UNK         0.0600 
    154 H154       -2.9967  -17.8296  -45.0077 H         1 UNK         0.3000 
    155 H155       -0.4724  -17.3905  -47.5330 H         1 UNK         0.0600 
    156 H156       -2.7796  -15.6469  -46.5017 H         1 UNK         0.0600 
    157 H157       -2.4767  -16.0301  -48.1873 H         1 UNK         0.0600 
    158 H158       -1.3157  -15.0687  -47.2941 H         1 UNK         0.0600 
    159 H159       -0.8260  -16.0721  -45.0634 H         1 UNK         0.3000 
    160 H160        0.9832  -18.2932  -42.9417 H         1 UNK         0.0600 
    161 H161        1.5307  -15.4867  -44.0563 H         1 UNK         0.0600 
    162 H162        2.6476  -16.8442  -44.1010 H         1 UNK         0.0600 
    163 H163        2.1793  -16.1491  -42.5570 H         1 UNK         0.0600 
    164 H164       -0.4256  -15.8023  -42.5715 H         1 UNK         0.3000 
    165 H165       -3.4995  -17.2466  -41.4655 H         1 UNK         0.0600 
    166 H166       -2.9333  -15.8751  -39.4854 H         1 UNK         0.0600 
    167 H167       -1.9300  -17.3161  -39.5223 H         1 UNK         0.0600 
    168 H168       -1.2500  -15.7650  -39.9998 H         1 UNK         0.0600 
    169 H169       -2.5886  -14.5371  -41.6925 H         1 UNK         0.3000 
    170 H170       -3.8703  -13.9831  -44.9888 H         1 UNK         0.0600 
    171 H171       -5.7906  -13.8177  -43.3876 H         1 UNK         0.0600 
    172 H172       -4.7552  -12.9850  -42.2338 H         1 UNK         0.0600 
    173 H173       -5.1274  -12.2429  -43.7901 H         1 UNK         0.0600 
    174 H174       -2.7083  -12.0363  -43.4995 H         1 UNK         0.3000 
    175 H175       -0.7443  -11.1889  -44.3545 H         1 UNK         0.0600 
    176 H176       -0.1377  -11.9299  -42.0395 H         1 UNK         0.0600 
    177 H177        1.0624  -13.0410  -42.6887 H         1 UNK         0.0600 
    178 H178        1.2742  -11.2999  -42.8732 H         1 UNK         0.0600 
    179 H179        1.6180  -12.7240  -45.0502 H         1 UNK         0.3000 
    180 H180        1.3259  -13.8551  -47.6524 H         1 UNK         0.0600 
    181 H181        1.3668  -11.1322  -49.0475 H         1 UNK         0.0600 
    182 H182        0.3161  -12.4909  -49.4288 H         1 UNK         0.0600 
    183 H183        2.0447  -12.6216  -49.7040 H         1 UNK         0.0600 
    184 H184        3.4080  -13.4272  -47.0556 H         1 UNK         0.3000 
    185 H185        5.4339  -10.5725  -46.7584 H         1 UNK         0.0600 
    186 H186        4.6054  -10.8716  -44.4189 H         1 UNK         0.0600 
    187 H187        4.6734  -12.6197  -44.6034 H         1 UNK         0.0600 
    188 H188        6.1550  -11.6636  -44.6523 H         1 UNK         0.0600 
    189 H189        5.9702  -13.3731  -46.5637 H         1 UNK         0.3000 
    190 H190       -1.6009  -21.1945  -47.9412 H         1 UNK         0.3000 
    191 H191       -2.0395  -22.6163  -50.3540 H         1 UNK         0.0600 
    192 H192       -4.0393  -21.5624  -48.2883 H         1 UNK         0.0600 
    193 H193       -4.4400  -22.1273  -49.9057 H         1 UNK         0.0600 
    194 H194       -3.4340  -20.7065  -49.6966 H         1 UNK         0.0600 
    195 H195       -2.9099  -23.4565  -46.9557 H         1 UNK         0.3000 
    196 H196       -4.1212  -25.9441  -47.5006 H         1 UNK         0.0600 
    197 H197       -3.7406  -26.3754  -45.0696 H         1 UNK         0.0600 
    198 H198       -4.3606  -24.7539  -45.3442 H         1 UNK         0.0600 
    199 H199       -2.6533  -24.9949  -44.9832 H         1 UNK         0.0600 
    200 H200       -0.6858  -25.1737  -46.7929 H         1 UNK         0.3000 
    201 H201        0.3083  -27.8358  -46.8821 H         1 UNK         0.0600 
    202 H202        1.5581  -25.9430  -45.8777 H         1 UNK         0.0600 
    203 H203        1.7230  -25.1783  -47.4564 H         1 UNK         0.0600 
    204 H204        2.5215  -26.7115  -47.1307 H         1 UNK         0.0600 
    205 H205       -0.1249  -25.3937  -49.4614 H         1 UNK         0.3000 
    206 H206        1.0185  -27.0000  -51.5722 H         1 UNK         0.0600 
    207 H207        0.9895  -24.5095  -51.6147 H         1 UNK         0.0600 
    208 H208        0.1410  -25.1600  -53.0081 H         1 UNK         0.0600 
    209 H209       -0.7729  -24.5128  -51.6516 H         1 UNK         0.0600 
    210 H210       -1.9699  -27.1839  -49.9761 H         1 UNK         0.3000 
    211 H211       -3.8971  -28.2089  -50.2229 H         1 UNK         0.0600 
    212 H212       -2.7735  -29.7036  -52.6493 H         1 UNK         0.0600 
    213 H213       -4.1804  -30.1484  -51.6963 H         1 UNK         0.0600 
    214 H214       -2.5827  -30.2106  -50.9708 H         1 UNK         0.0600 
    215 H215       -3.5544  -25.6573  -51.2280 H         1 UNK         0.3000 
    216 H216       -5.3785  -25.3927  -53.5704 H         1 UNK         0.0600 
    217 H217       -3.6790  -23.3064  -52.0828 H         1 UNK         0.0600 
    218 H218       -4.5882  -23.0417  -53.5635 H         1 UNK         0.0600 
    219 H219       -3.1930  -24.1050  -53.5749 H         1 UNK         0.0600 
    220 H220       -6.8326  -23.3256  -53.1652 H         1 UNK         0.3000 
    221 H221       -8.6747  -23.8433  -51.0312 H         1 UNK         0.0600 
    222 H222       -9.3830  -22.8658  -53.2009 H         1 UNK         0.0600 
    223 H223       -8.3890  -21.4372  -52.9141 H         1 UNK         0.0600 
    224 H224       -9.7781  -21.7691  -51.8869 H         1 UNK         0.0600 
    225 H225       -8.5971  -23.1665  -48.9737 H         1 UNK         0.3000 
    226 H226       -6.3360  -21.9283  -47.8775 H         1 UNK         0.0600 
    227 H227       -7.7155  -23.6078  -46.7003 H         1 UNK         0.0600 
    228 H228       -7.5881  -22.1487  -45.7345 H         1 UNK         0.0600 
    229 H229       -9.0716  -22.4806  -46.6215 H         1 UNK         0.0600 
    230 H230       -8.9056  -20.3069  -49.3399 H         1 UNK         0.3000 
    231 H231       -9.0276  -17.9095  -47.7178 H         1 UNK         0.0600 
    232 H232      -10.0306  -18.5122  -50.5482 H         1 UNK         0.0600 
    233 H233      -10.4533  -17.0988  -49.5871 H         1 UNK         0.0600 
    234 H234      -10.9589  -18.6943  -49.0598 H         1 UNK         0.0600 
    235 H235       -6.5047  -18.1717  -47.8605 H         1 UNK         0.3000 
    236 H236       -4.5845  -17.1671  -48.1010 H         1 UNK         0.0600 
    237 H237       -4.4596  -14.7965  -48.8701 H         1 UNK         0.0600 
    238 H238       -6.1114  -14.8898  -49.4535 H         1 UNK         0.0600 
    239 H239       -5.7716  -15.0587  -47.7317 H         1 UNK         0.0600 
    240 H240       -3.3068  -18.4617  -49.2810 H         1 UNK         0.3000 
    241 H241       -1.9419  -19.1152  -50.8329 H         1 UNK         0.0600 
    242 H242       -4.8929  -20.4270  -52.9766 H         1 UNK         0.3800 
    243 H243       -5.0107  -19.7889  -51.3667 H         1 UNK         0.3800 
    244 H244       -2.5186  -16.5514  -52.3905 H         1 UNK         0.0800 
    245 H245       -1.1375  -17.5926  -52.5954 H         1 UNK         0.0800 
    246 H246        0.4006  -15.7016  -52.4939 H         1 UNK         0.0800 
    247 H247        0.9289  -14.9143  -51.0309 H         1 UNK         0.0800 
@<TRIPOS>BOND
     1    1    2 1    
     2    1  127 1    
     3    1  128 1    
     4    1  129 1    
     5    2    3 2    
     6    2    4 am   BACKBONE|DICT|INTERRES
     7    4    5 1    
     8    4  130 1    
     9    5    6 1    
    10    5   65 1    
    11    5  131 1    
    12    6    7 1    
    13    6  132 1    
    14    6  133 1    
    15    7    8 1    
    16    8    9 1    
    17    8  134 1    
    18    8  135 1    
    19    9   10 ar   
    20    9   14 ar   
    21   10   11 ar   
    22   10  136 1    
    23   11   12 ar   
    24   11  126 1    
    25   12   13 ar   
    26   12  137 1    
    27   13   14 ar   
    28   13   15 1    
    29   14  138 1    
    30   15   16 1    
    31   15  139 1    
    32   15  140 1    
    33   16   17 1    
    34   17   18 1    
    35   17  141 1    
    36   17  142 1    
    37   18   19 1    
    38   18   67 1    
    39   18  143 1    
    40   19   20 am   BACKBONE|DICT|INTERRES
    41   19  144 1    
    42   20   21 2    
    43   20   22 1    
    44   22   23 1    
    45   22   24 1    
    46   22  145 1    
    47   23  146 1    
    48   23  147 1    
    49   23  148 1    
    50   24   25 am   BACKBONE|DICT|INTERRES
    51   24  149 1    
    52   25   26 2    
    53   25   27 1    
    54   27   28 1    
    55   27   29 1    
    56   27  150 1    
    57   28  151 1    
    58   28  152 1    
    59   28  153 1    
    60   29   30 am   BACKBONE|DICT|INTERRES
    61   29  154 1    
    62   30   31 2    
    63   30   32 1    
    64   32   33 1    
    65   32   34 1    
    66   32  155 1    
    67   33  156 1    
    68   33  157 1    
    69   33  158 1    
    70   34   35 am   BACKBONE|DICT|INTERRES
    71   34  159 1    
    72   35   36 2    
    73   35   37 1    
    74   37   38 1    
    75   37   39 1    
    76   37  160 1    
    77   38  161 1    
    78   38  162 1    
    79   38  163 1    
    80   39   40 am   BACKBONE|DICT|INTERRES
    81   39  164 1    
    82   40   41 2    
    83   40   42 1    
    84   42   43 1    
    85   42   44 1    
    86   42  165 1    
    87   43  166 1    
    88   43  167 1    
    89   43  168 1    
    90   44   45 am   BACKBONE|DICT|INTERRES
    91   44  169 1    
    92   45   46 2    
    93   45   47 1    
    94   47   48 1    
    95   47   49 1    
    96   47  170 1    
    97   48  171 1    
    98   48  172 1    
    99   48  173 1    
   100   49   50 am   BACKBONE|DICT|INTERRES
   101   49  174 1    
   102   50   51 2    
   103   50   52 1    
   104   52   53 1    
   105   52   54 1    
   106   52  175 1    
   107   53  176 1    
   108   53  177 1    
   109   53  178 1    
   110   54   55 am   BACKBONE|DICT|INTERRES
   111   54  179 1    
   112   55   56 2    
   113   55   57 1    
   114   57   58 1    
   115   57   59 1    
   116   57  180 1    
   117   58  181 1    
   118   58  182 1    
   119   58  183 1    
   120   59   60 am   BACKBONE|DICT|INTERRES
   121   59  184 1    
   122   60   61 2    
   123   60   62 1    
   124   62   63 1    
   125   62   64 1    
   126   62  185 1    
   127   63  186 1    
   128   63  187 1    
   129   63  188 1    
   130   64   65 am   BACKBONE|DICT|INTERRES
   131   64  189 1    
   132   65   66 2    
   133   67   68 2    
   134   67   69 am   BACKBONE|DICT|INTERRES
   135   69   70 1    
   136   69  190 1    
   137   70   71 1    
   138   70   72 1    
   139   70  191 1    
   140   71  192 1    
   141   71  193 1    
   142   71  194 1    
   143   72   73 2    
   144   72   74 am   BACKBONE|DICT|INTERRES
   145   74   75 1    
   146   74  195 1    
   147   75   76 1    
   148   75   77 1    
   149   75  196 1    
   150   76  197 1    
   151   76  198 1    
   152   76  199 1    
   153   77   78 2    
   154   77   79 am   BACKBONE|DICT|INTERRES
   155   79   80 1    
   156   79  200 1    
   157   80   81 1    
   158   80   82 1    
   159   80  201 1    
   160   81  202 1    
   161   81  203 1    
   162   81  204 1    
   163   82   83 2    
   164   82   84 am   BACKBONE|DICT|INTERRES
   165   84   85 1    
   166   84  205 1    
   167   85   86 1    
   168   85   87 1    
   169   85  206 1    
   170   86  207 1    
   171   86  208 1    
   172   86  209 1    
   173   87   88 2    
   174   87   89 am   BACKBONE|DICT|INTERRES
   175   89   90 1    
   176   89  210 1    
   177   90   91 1    
   178   90   92 1    
   179   90  211 1    
   180   91  212 1    
   181   91  213 1    
   182   91  214 1    
   183   92   93 2    
   184   92   94 am   BACKBONE|DICT|INTERRES
   185   94   95 1    
   186   94  215 1    
   187   95   96 1    
   188   95   97 1    
   189   95  216 1    
   190   96  217 1    
   191   96  218 1    
   192   96  219 1    
   193   97   98 2    
   194   97   99 am   BACKBONE|DICT|INTERRES
   195   99  100 1    
   196   99  220 1    
   197  100  101 1    
   198  100  102 1    
   199  100  221 1    
   200  101  222 1    
   201  101  223 1    
   202  101  224 1    
   203  102  103 2    
   204  102  104 am   BACKBONE|DICT|INTERRES
   205  104  105 1    
   206  104  225 1    
   207  105  106 1    
   208  105  107 1    
   209  105  226 1    
   210  106  227 1    
   211  106  228 1    
   212  106  229 1    
   213  107  108 2    
   214  107  109 am   BACKBONE|DICT|INTERRES
   215  109  110 1    
   216  109  230 1    
   217  110  111 1    
   218  110  112 1    
   219  110  231 1    
   220  111  232 1    
   221  111  233 1    
   222  111  234 1    
   223  112  113 2    
   224  112  114 am   BACKBONE|DICT|INTERRES
   225  114  115 1    
   226  114  235 1    
   227  115  116 1    
   228  115  117 1    
   229  115  236 1    
   230  116  237 1    
   231  116  238 1    
   232  116  239 1    
   233  117  118 2    
   234  117  119 am   BACKBONE|DICT|INTERRES
   235  119  120 1    
   236  119  240 1    
   237  120  121 1    
   238  120  124 1    
   239  120  241 1    
   240  121  122 am   BACKBONE|DICT|INTERRES
   241  121  123 2    
   242  122  242 1    
   243  122  243 1    
   244  124  125 1    
   245  124  244 1    
   246  124  245 1    
   247  125  126 1    
   248  126  246 1    
   249  126  247 1    
@<TRIPOS>SUBSTRUCTURE
     1 UNK         1 GROUP             0       ****    0 ROOT    
