@<TRIPOS>MOLECULE
3R540
247   249    1
SMALL
USER_CHARGES


@<TRIPOS>ATOM
      1 CA          4.3996  -10.1815  -49.5547 C.3       0 UNK        -0.1800 
      2 C           3.5055  -10.9018  -48.5564 C.2       0 UNK         0.5000 
      3 O           3.9505  -11.2264  -47.4556 O.2       0 UNK        -0.5000 
      4 N           2.2360  -11.1334  -48.9214 N.am      1 UNK        -0.5000 
      5 CA          1.2426  -11.8546  -48.1094 C.3       1 UNK         0.1400 
      6 C6          0.0178  -12.2970  -48.9514 C.3       23 UNK        -0.0398 
      7 S7         -0.6098  -13.9392  -48.4542 S.3       23 UNK        -0.2404 
      8 C8          0.1103  -14.9855  -49.7591 C.3       23 UNK        -0.0205 
      9 C9         -0.3561  -16.4312  -49.6649 C.ar      23 UNK        -0.0193 
     10 C10        -1.7090  -16.7385  -49.8371 C.ar      23 UNK        -0.1150 
     11 C11        -2.1483  -18.0647  -49.8228 C.ar      23 UNK        -0.0193 
     12 C12        -1.2199  -19.0898  -49.6245 C.ar      23 UNK        -0.1150 
     13 C13         0.1342  -18.7985  -49.4360 C.ar      23 UNK        -0.0193 
     14 C14         0.5622  -17.4667  -49.4588 C.ar      23 UNK        -0.1150 
     15 C15         1.1281  -19.9289  -49.2208 C.3       23 UNK        -0.0205 
     16 S16         1.4759  -20.1642  -47.4504 S.3       23 UNK        -0.2404 
     17 C17         1.9204  -21.9328  -47.3862 C.3       23 UNK        -0.0398 
     18 CA          0.8322  -22.8722  -46.8039 C.3       11 UNK         0.1400 
     19 N           0.5943  -22.6929  -45.3649 N.am      11 UNK        -0.5000 
     20 C           0.0579  -23.6565  -44.5977 C.2       10 UNK         0.5000 
     21 O          -0.2849  -24.7558  -45.0343 O.2       10 UNK        -0.5000 
     22 CA         -0.1724  -23.3467  -43.1075 C.3       10 UNK         0.1400 
     23 CB          1.1303  -23.5170  -42.3121 C.3       10 UNK        -0.1800 
     24 N          -0.7225  -22.0161  -42.8565 N.am      10 UNK        -0.5000 
     25 C          -1.8866  -21.5532  -43.3305 C.2       9 UNK         0.5000 
     26 O          -2.6322  -22.2047  -44.0611 O.2       9 UNK        -0.5000 
     27 CA         -2.2766  -20.1077  -42.9583 C.3       9 UNK         0.1400 
     28 CB         -1.6013  -19.5947  -41.6668 C.3       9 UNK        -0.1800 
     29 N          -2.0403  -19.1699  -44.0613 N.am      9 UNK        -0.5000 
     30 C          -0.8833  -18.9655  -44.7083 C.2       8 UNK         0.5000 
     31 O           0.1440  -19.6088  -44.4795 O.2       8 UNK        -0.5000 
     32 CA         -0.8748  -17.8914  -45.8199 C.3       8 UNK         0.1400 
     33 CB         -1.9580  -16.8023  -45.6606 C.3       8 UNK        -0.1800 
     34 N           0.4512  -17.2907  -45.9887 N.am      8 UNK        -0.5000 
     35 C           1.1560  -16.6184  -45.0693 C.2       7 UNK         0.5000 
     36 O           0.7229  -16.2952  -43.9613 O.2       7 UNK        -0.5000 
     37 CA          2.5817  -16.2183  -45.4853 C.3       7 UNK         0.1400 
     38 CB          2.5594  -14.9074  -46.2818 C.3       7 UNK        -0.1800 
     39 N           3.4497  -16.0430  -44.3236 N.am      7 UNK        -0.5000 
     40 C           4.0766  -17.0380  -43.6842 C.2       6 UNK         0.5000 
     41 O           4.0135  -18.2183  -44.0297 O.2       6 UNK        -0.5000 
     42 CA          4.9298  -16.6578  -42.4633 C.3       6 UNK         0.1400 
     43 CB          6.2723  -16.0550  -42.9091 C.3       6 UNK        -0.1800 
     44 N           4.2403  -15.6994  -41.6002 N.am      6 UNK        -0.5000 
     45 C           3.9438  -15.8997  -40.3079 C.2       5 UNK         0.5000 
     46 O           4.2196  -16.9314  -39.6939 O.2       5 UNK        -0.5000 
     47 CA          3.2304  -14.7544  -39.5576 C.3       5 UNK         0.1400 
     48 CB          4.2435  -13.9348  -38.7435 C.3       5 UNK        -0.1800 
     49 N           2.5068  -13.8522  -40.4520 N.am      5 UNK        -0.5000 
     50 C           1.3717  -14.1613  -41.0915 C.2       4 UNK         0.5000 
     51 O           0.7232  -15.1811  -40.8565 O.2       4 UNK        -0.5000 
     52 CA          0.8788  -13.1764  -42.1741 C.3       4 UNK         0.1400 
     53 CB         -0.4275  -12.4957  -41.7366 C.3       4 UNK        -0.1800 
     54 N           1.8373  -12.1339  -42.5606 N.am      4 UNK        -0.5000 
     55 C           3.0311  -12.3153  -43.1396 C.2       3 UNK         0.5000 
     56 O           3.5369  -13.4254  -43.3132 O.2       3 UNK        -0.5000 
     57 CA          3.7667  -11.0390  -43.6014 C.3       3 UNK         0.1400 
     58 CB          5.1518  -11.3437  -44.1988 C.3       3 UNK        -0.1800 
     59 N           2.9729  -10.3060  -44.5893 N.am      3 UNK        -0.5000 
     60 C           1.9118   -9.5316  -44.3124 C.2       2 UNK         0.5000 
     61 O           1.5522   -9.2668  -43.1640 O.2       2 UNK        -0.5000 
     62 CA          1.0818   -9.0030  -45.5011 C.3       2 UNK         0.1400 
     63 CB          1.4855   -7.5600  -45.8391 C.3       2 UNK        -0.1800 
     64 N           1.2025   -9.8249  -46.7064 N.am      2 UNK        -0.5000 
     65 C           0.8263  -11.1082  -46.8178 C.2       1 UNK         0.5000 
     66 O           0.2119  -11.7089  -45.9362 O.2       1 UNK        -0.5000 
     67 C          -0.4848  -22.8464  -47.6068 C.2       11 UNK         0.5000 
     68 O          -0.6017  -23.5692  -48.5951 O.2       11 UNK        -0.5000 
     69 N          -1.4671  -22.0587  -47.1426 N.am      12 UNK        -0.5000 
     70 CA         -2.8158  -22.0077  -47.7047 C.3       12 UNK         0.1400 
     71 CB         -3.5759  -20.7971  -47.1418 C.3       12 UNK        -0.1800 
     72 C          -3.5821  -23.3157  -47.4566 C.2       12 UNK         0.5000 
     73 O          -4.2192  -23.8224  -48.3786 O.2       12 UNK        -0.5000 
     74 N          -3.4627  -23.8625  -46.2390 N.am      13 UNK        -0.5000 
     75 CA         -4.0143  -25.1581  -45.8462 C.3       13 UNK         0.1400 
     76 CB         -3.8366  -25.3588  -44.3338 C.3       13 UNK        -0.1800 
     77 C          -3.3947  -26.3255  -46.6347 C.2       13 UNK         0.5000 
     78 O          -4.1341  -27.1821  -47.1189 O.2       13 UNK        -0.5000 
     79 N          -2.0626  -26.3143  -46.7951 N.am      14 UNK        -0.5000 
     80 CA         -1.3108  -27.2943  -47.5858 C.3       14 UNK         0.1400 
     81 CB          0.1952  -27.0685  -47.3870 C.3       14 UNK        -0.1800 
     82 C          -1.6694  -27.2640  -49.0843 C.2       14 UNK         0.5000 
     83 O          -1.7628  -28.3196  -49.7110 O.2       14 UNK        -0.5000 
     84 N          -1.8985  -26.0577  -49.6191 N.am      15 UNK        -0.5000 
     85 CA         -2.3611  -25.8160  -50.9864 C.3       15 UNK         0.1400 
     86 CB         -2.0565  -24.3524  -51.3443 C.3       15 UNK        -0.1800 
     87 C          -3.8623  -26.1024  -51.1961 C.2       15 UNK         0.5000 
     88 O          -4.3208  -26.0779  -52.3405 O.2       15 UNK        -0.5000 
     89 N          -4.6083  -26.2985  -50.0964 N.am      16 UNK        -0.5000 
     90 CA         -6.0709  -26.3938  -50.0119 C.3       16 UNK         0.1400 
     91 CB         -6.5605  -27.7188  -50.6304 C.3       16 UNK        -0.1800 
     92 C          -6.7719  -25.1547  -50.6117 C.2       16 UNK         0.5000 
     93 O          -7.8232  -25.2806  -51.2427 O.2       16 UNK        -0.5000 
     94 N          -6.1248  -23.9885  -50.4602 N.am      17 UNK        -0.5000 
     95 CA         -6.3603  -22.6876  -51.0967 C.3       17 UNK         0.1400 
     96 CB         -7.7239  -22.1045  -50.6856 C.3       17 UNK        -0.1800 
     97 C          -6.1880  -22.6887  -52.6315 C.2       17 UNK         0.5000 
     98 O          -5.5310  -21.7953  -53.1674 O.2       17 UNK        -0.5000 
     99 N          -6.7672  -23.6889  -53.3046 N.am      18 UNK        -0.5000 
    100 CA        -6.8619  -23.8436  -54.7534 C.3       18 UNK         0.1400 
    101 CB        -7.6501  -25.1235  -55.0689 C.3       18 UNK        -0.1800 
    102 C         -5.5133  -23.8461  -55.4908 C.2       18 UNK         0.5000 
    103 O         -5.3952  -23.1708  -56.5134 O.2       18 UNK        -0.5000 
    104 N         -4.5101  -24.5649  -54.9635 N.am      19 UNK        -0.5000 
    105 CA        -3.1836  -24.6619  -55.5879 C.3       19 UNK         0.1400 
    106 CB        -2.4235  -25.8716  -55.0244 C.3       19 UNK        -0.1800 
    107 C         -2.3504  -23.3701  -55.4587 C.2       19 UNK         0.5000 
    108 O         -1.4161  -23.1745  -56.2363 O.2       19 UNK        -0.5000 
    109 N         -2.7182  -22.5036  -54.5054 N.am      20 UNK        -0.5000 
    110 CA        -2.1578  -21.1641  -54.3237 C.3       20 UNK         0.1400 
    111 CB        -2.1027  -20.8583  -52.8166 C.3       20 UNK        -0.1800 
    112 C         -2.9693  -20.0904  -55.0810 C.2       20 UNK         0.5000 
    113 O         -2.5625  -18.9283  -55.0889 O.2       20 UNK        -0.5000 
    114 N         -4.0959  -20.4925  -55.6938 N.am      21 UNK        -0.5000 
    115 CA        -5.1043  -19.6661  -56.3669 C.3       21 UNK         0.1400 
    116 CB        -4.5145  -18.9733  -57.6132 C.3       21 UNK        -0.1800 
    117 C         -5.8247  -18.6897  -55.4110 C.2       21 UNK         0.5000 
    118 O         -6.2725  -17.6239  -55.8394 O.2       21 UNK        -0.5000 
    119 N         -5.9242  -19.0726  -54.1338 N.am      22 UNK        -0.5000 
    120 CA        -6.5777  -18.3076  -53.0656 C.3       22 UNK         0.1400 
    121 C         -8.0975  -18.6159  -52.9798 C.2       22 UNK         0.5000 
    122 N         -8.8818  -17.7171  -52.4006 N.am      22 UNK        -0.7600 
    123 O         -8.5752  -19.6663  -53.4040 O.2       22 UNK        -0.5000 
    124 C124       -5.8792  -18.5433  -51.7020 C.3       23 UNK        -0.0398 
    125 S125       -4.1383  -18.0037  -51.7322 S.3       23 UNK        -0.2404 
    126 C126       -3.6217  -18.3825  -50.0316 C.3       23 UNK        -0.0205 
    127 H127        4.7682   -9.2505  -49.1240 H         1 UNK         0.0600 
    128 H128        5.2575  -10.8051  -49.8061 H         1 UNK         0.0600 
    129 H129        3.8692   -9.9441  -50.4771 H         1 UNK         0.0600 
    130 H130        1.9221  -10.8224  -49.8301 H         1 UNK         0.3000 
    131 H131        1.7584  -12.7541  -47.7752 H         1 UNK         0.0600 
    132 H132        0.2765  -12.3416  -50.0101 H         1 UNK         0.0800 
    133 H133       -0.7959  -11.5722  -48.8881 H         1 UNK         0.0800 
    134 H134       -0.1751  -14.5944  -50.7368 H         1 UNK         0.0800 
    135 H135        1.1983  -14.9245  -49.7049 H         1 UNK         0.0800 
    136 H136       -2.4212  -15.9424  -50.0036 H         1 UNK         0.1150 
    137 H137       -1.5474  -20.1182  -49.6234 H         1 UNK         0.1150 
    138 H138        1.6115  -17.2407  -49.3307 H         1 UNK         0.1150 
    139 H139        0.7332  -20.8508  -49.6509 H         1 UNK         0.0800 
    140 H140        2.0594  -19.7178  -49.7483 H         1 UNK         0.0800 
    141 H141        2.2037  -22.2688  -48.3850 H         1 UNK         0.0800 
    142 H142        2.8280  -22.0224  -46.7880 H         1 UNK         0.0800 
    143 H143        1.2320  -23.8810  -46.9283 H         1 UNK         0.0600 
    144 H144        0.8022  -21.7843  -44.9668 H         1 UNK         0.3000 
    145 H145       -0.8955  -24.0733  -42.7314 H         1 UNK         0.0600 
    146 H146        0.9570  -23.4024  -41.2419 H         1 UNK         0.0600 
    147 H147        1.5555  -24.5096  -42.4667 H         1 UNK         0.0600 
    148 H148        1.8832  -22.7865  -42.6110 H         1 UNK         0.0600 
    149 H149       -0.1499  -21.3863  -42.3139 H         1 UNK         0.3000 
    150 H150       -3.3533  -20.1196  -42.7830 H         1 UNK         0.0600 
    151 H151       -1.7722  -20.2786  -40.8344 H         1 UNK         0.0600 
    152 H152       -2.0104  -18.6272  -41.3755 H         1 UNK         0.0600 
    153 H153       -0.5240  -19.4699  -41.7811 H         1 UNK         0.0600 
    154 H154       -2.8391  -18.6160  -44.3347 H         1 UNK         0.3000 
    155 H155       -1.0807  -18.4220  -46.7493 H         1 UNK         0.0600 
    156 H156       -1.8652  -16.0466  -46.4409 H         1 UNK         0.0600 
    157 H157       -1.8881  -16.2952  -44.6977 H         1 UNK         0.0600 
    158 H158       -2.9606  -17.2217  -45.7469 H         1 UNK         0.0600 
    159 H159        0.9095  -17.5357  -46.8545 H         1 UNK         0.3000 
    160 H160        2.9960  -17.0028  -46.1228 H         1 UNK         0.0600 
    161 H161        2.0921  -14.1014  -45.7139 H         1 UNK         0.0600 
    162 H162        1.9957  -15.0326  -47.2060 H         1 UNK         0.0600 
    163 H163        3.5652  -14.5867  -46.5540 H         1 UNK         0.0600 
    164 H164        3.5198  -15.0943  -43.9633 H         1 UNK         0.3000 
    165 H165        5.1409  -17.5812  -41.9200 H         1 UNK         0.0600 
    166 H166        6.1340  -15.1164  -43.4477 H         1 UNK         0.0600 
    167 H167        6.9166  -15.8565  -42.0525 H         1 UNK         0.0600 
    168 H168        6.8086  -16.7383  -43.5687 H         1 UNK         0.0600 
    169 H169        3.9500  -14.8316  -42.0393 H         1 UNK         0.3000 
    170 H170        2.5168  -15.2044  -38.8641 H         1 UNK         0.0600 
    171 H171        4.7850  -14.5698  -38.0411 H         1 UNK         0.0600 
    172 H172        4.9815  -13.4534  -39.3866 H         1 UNK         0.0600 
    173 H173        3.7466  -13.1586  -38.1612 H         1 UNK         0.0600 
    174 H174        2.9628  -12.9844  -40.6907 H         1 UNK         0.3000 
    175 H175        0.6694  -13.7666  -43.0679 H         1 UNK         0.0600 
    176 H176       -0.2764  -11.8643  -40.8603 H         1 UNK         0.0600 
    177 H177       -0.8329  -11.8733  -42.5349 H         1 UNK         0.0600 
    178 H178       -1.1901  -13.2337  -41.4841 H         1 UNK         0.0600 
    179 H179        1.5121  -11.1766  -42.4767 H         1 UNK         0.3000 
    180 H180        3.9146  -10.4079  -42.7227 H         1 UNK         0.0600 
    181 H181        5.0799  -11.9927  -45.0725 H         1 UNK         0.0600 
    182 H182        5.7902  -11.8447  -43.4701 H         1 UNK         0.0600 
    183 H183        5.6607  -10.4289  -44.5027 H         1 UNK         0.0600 
    184 H184        3.1863  -10.5060  -45.5601 H         1 UNK         0.3000 
    185 H185        0.0333   -9.0063  -45.1966 H         1 UNK         0.0600 
    186 H186        1.3819   -6.9112  -44.9683 H         1 UNK         0.0600 
    187 H187        2.5226   -7.4999  -46.1718 H         1 UNK         0.0600 
    188 H188        0.8546   -7.1473  -46.6266 H         1 UNK         0.0600 
    189 H189        1.7028   -9.4151  -47.4815 H         1 UNK         0.3000 
    190 H190       -1.3011  -21.5384  -46.2942 H         1 UNK         0.3000 
    191 H191       -2.7306  -21.8821  -48.7854 H         1 UNK         0.0600 
    192 H192       -4.5633  -20.7142  -47.5976 H         1 UNK         0.0600 
    193 H193       -3.0459  -19.8671  -47.3436 H         1 UNK         0.0600 
    194 H194       -3.7209  -20.8708  -46.0643 H         1 UNK         0.0600 
    195 H195       -2.9711  -23.3419  -45.5168 H         1 UNK         0.3000 
    196 H196       -5.0845  -25.1419  -46.0625 H         1 UNK         0.0600 
    197 H197       -4.2628  -26.3101  -44.0130 H         1 UNK         0.0600 
    198 H198       -4.3377  -24.5710  -43.7711 H         1 UNK         0.0600 
    199 H199       -2.7851  -25.3558  -44.0462 H         1 UNK         0.0600 
    200 H200       -1.5175  -25.6028  -46.3170 H         1 UNK         0.3000 
    201 H201       -1.5586  -28.2875  -47.2060 H         1 UNK         0.0600 
    202 H202        0.4722  -27.1551  -46.3362 H         1 UNK         0.0600 
    203 H203        0.5025  -26.0821  -47.7349 H         1 UNK         0.0600 
    204 H204        0.7774  -27.8075  -47.9387 H         1 UNK         0.0600 
    205 H205       -1.7304  -25.2330  -49.0526 H         1 UNK         0.3000 
    206 H206       -1.8042  -26.4642  -51.6655 H         1 UNK         0.0600 
    207 H207       -0.9855  -24.1524  -51.3135 H         1 UNK         0.0600 
    208 H208       -2.4021  -24.1087  -52.3465 H         1 UNK         0.0600 
    209 H209       -2.5468  -23.6603  -50.6592 H         1 UNK         0.0600 
    210 H210       -4.1317  -26.2813  -49.2039 H         1 UNK         0.3000 
    211 H211       -6.3196  -26.4053  -48.9499 H         1 UNK         0.0600 
    212 H212       -6.3916  -27.7495  -51.7073 H         1 UNK         0.0600 
    213 H213       -7.6288  -27.8584  -50.4621 H         1 UNK         0.0600 
    214 H214       -6.0484  -28.5723  -50.1861 H         1 UNK         0.0600 
    215 H215       -5.3014  -24.0145  -49.8612 H         1 UNK         0.3000 
    216 H216       -5.5879  -22.0275  -50.6990 H         1 UNK         0.0600 
    217 H217       -8.5543  -22.7067  -51.0548 H         1 UNK         0.0600 
    218 H218       -7.8544  -21.0982  -51.0828 H         1 UNK         0.0600 
    219 H219       -7.8127  -22.0395  -49.6012 H         1 UNK         0.0600 
    220 H220       -7.2620  -24.3793  -52.7452 H         1 UNK         0.3000 
    221 H221       -7.4344  -22.9920  -55.1268 H         1 UNK         0.0600 
    222 H222       -7.1555  -26.0084  -54.6658 H         1 UNK         0.0600 
    223 H223       -8.6546  -25.0815  -54.6473 H         1 UNK         0.0600 
    224 H224       -7.7553  -25.2652  -56.1453 H         1 UNK         0.0600 
    225 H225       -4.6552  -25.0840  -54.1019 H         1 UNK         0.3000 
    226 H226       -3.3297  -24.8406  -56.6554 H         1 UNK         0.0600 
    227 H227       -3.0113  -26.7854  -55.1132 H         1 UNK         0.0600 
    228 H228       -1.4912  -26.0305  -55.5676 H         1 UNK         0.0600 
    229 H229       -2.1667  -25.7387  -53.9760 H         1 UNK         0.0600 
    230 H230       -3.5237  -22.7272  -53.9360 H         1 UNK         0.3000 
    231 H231       -1.1373  -21.1318  -54.7104 H         1 UNK         0.0600 
    232 H232       -3.0923  -20.8897  -52.3604 H         1 UNK         0.0600 
    233 H233       -1.4683  -21.5719  -52.2913 H         1 UNK         0.0600 
    234 H234       -1.6896  -19.8657  -52.6323 H         1 UNK         0.0600 
    235 H235       -4.3281  -21.4762  -55.6441 H         1 UNK         0.3000 
    236 H236       -5.8718  -20.3593  -56.7137 H         1 UNK         0.0600 
    237 H237       -4.0146  -19.6913  -58.2634 H         1 UNK         0.0600 
    238 H238       -5.2984  -18.4957  -58.2019 H         1 UNK         0.0600 
    239 H239       -3.7926  -18.2014  -57.3459 H         1 UNK         0.0600 
    240 H240       -5.5933  -19.9965  -53.8721 H         1 UNK         0.3000 
    241 H241       -6.4846  -17.2455  -53.3017 H         1 UNK         0.0600 
    242 H242       -8.5209  -16.8446  -52.0462 H         1 UNK         0.3800 
    243 H243       -9.8698  -17.9062  -52.3295 H         1 UNK         0.3800 
    244 H244       -6.3887  -17.9964  -50.9068 H         1 UNK         0.0800 
    245 H245       -5.9145  -19.5979  -51.4281 H         1 UNK         0.0800 
    246 H246       -3.8217  -19.4350  -49.8265 H         1 UNK         0.0800 
    247 H247       -4.2215  -17.8038  -49.3278 H         1 UNK         0.0800 
@<TRIPOS>BOND
     1    1    2 1    
     2    1  127 1    
     3    1  128 1    
     4    1  129 1    
     5    2    3 2    
     6    2    4 am   BACKBONE|DICT|INTERRES
     7    4    5 1    
     8    4  130 1    
     9    5    6 1    
    10    5   65 1    
    11    5  131 1    
    12    6    7 1    
    13    6  132 1    
    14    6  133 1    
    15    7    8 1    
    16    8    9 1    
    17    8  134 1    
    18    8  135 1    
    19    9   10 ar   
    20    9   14 ar   
    21   10   11 ar   
    22   10  136 1    
    23   11   12 ar   
    24   11  126 1    
    25   12   13 ar   
    26   12  137 1    
    27   13   14 ar   
    28   13   15 1    
    29   14  138 1    
    30   15   16 1    
    31   15  139 1    
    32   15  140 1    
    33   16   17 1    
    34   17   18 1    
    35   17  141 1    
    36   17  142 1    
    37   18   19 1    
    38   18   67 1    
    39   18  143 1    
    40   19   20 am   BACKBONE|DICT|INTERRES
    41   19  144 1    
    42   20   21 2    
    43   20   22 1    
    44   22   23 1    
    45   22   24 1    
    46   22  145 1    
    47   23  146 1    
    48   23  147 1    
    49   23  148 1    
    50   24   25 am   BACKBONE|DICT|INTERRES
    51   24  149 1    
    52   25   26 2    
    53   25   27 1    
    54   27   28 1    
    55   27   29 1    
    56   27  150 1    
    57   28  151 1    
    58   28  152 1    
    59   28  153 1    
    60   29   30 am   BACKBONE|DICT|INTERRES
    61   29  154 1    
    62   30   31 2    
    63   30   32 1    
    64   32   33 1    
    65   32   34 1    
    66   32  155 1    
    67   33  156 1    
    68   33  157 1    
    69   33  158 1    
    70   34   35 am   BACKBONE|DICT|INTERRES
    71   34  159 1    
    72   35   36 2    
    73   35   37 1    
    74   37   38 1    
    75   37   39 1    
    76   37  160 1    
    77   38  161 1    
    78   38  162 1    
    79   38  163 1    
    80   39   40 am   BACKBONE|DICT|INTERRES
    81   39  164 1    
    82   40   41 2    
    83   40   42 1    
    84   42   43 1    
    85   42   44 1    
    86   42  165 1    
    87   43  166 1    
    88   43  167 1    
    89   43  168 1    
    90   44   45 am   BACKBONE|DICT|INTERRES
    91   44  169 1    
    92   45   46 2    
    93   45   47 1    
    94   47   48 1    
    95   47   49 1    
    96   47  170 1    
    97   48  171 1    
    98   48  172 1    
    99   48  173 1    
   100   49   50 am   BACKBONE|DICT|INTERRES
   101   49  174 1    
   102   50   51 2    
   103   50   52 1    
   104   52   53 1    
   105   52   54 1    
   106   52  175 1    
   107   53  176 1    
   108   53  177 1    
   109   53  178 1    
   110   54   55 am   BACKBONE|DICT|INTERRES
   111   54  179 1    
   112   55   56 2    
   113   55   57 1    
   114   57   58 1    
   115   57   59 1    
   116   57  180 1    
   117   58  181 1    
   118   58  182 1    
   119   58  183 1    
   120   59   60 am   BACKBONE|DICT|INTERRES
   121   59  184 1    
   122   60   61 2    
   123   60   62 1    
   124   62   63 1    
   125   62   64 1    
   126   62  185 1    
   127   63  186 1    
   128   63  187 1    
   129   63  188 1    
   130   64   65 am   BACKBONE|DICT|INTERRES
   131   64  189 1    
   132   65   66 2    
   133   67   68 2    
   134   67   69 am   BACKBONE|DICT|INTERRES
   135   69   70 1    
   136   69  190 1    
   137   70   71 1    
   138   70   72 1    
   139   70  191 1    
   140   71  192 1    
   141   71  193 1    
   142   71  194 1    
   143   72   73 2    
   144   72   74 am   BACKBONE|DICT|INTERRES
   145   74   75 1    
   146   74  195 1    
   147   75   76 1    
   148   75   77 1    
   149   75  196 1    
   150   76  197 1    
   151   76  198 1    
   152   76  199 1    
   153   77   78 2    
   154   77   79 am   BACKBONE|DICT|INTERRES
   155   79   80 1    
   156   79  200 1    
   157   80   81 1    
   158   80   82 1    
   159   80  201 1    
   160   81  202 1    
   161   81  203 1    
   162   81  204 1    
   163   82   83 2    
   164   82   84 am   BACKBONE|DICT|INTERRES
   165   84   85 1    
   166   84  205 1    
   167   85   86 1    
   168   85   87 1    
   169   85  206 1    
   170   86  207 1    
   171   86  208 1    
   172   86  209 1    
   173   87   88 2    
   174   87   89 am   BACKBONE|DICT|INTERRES
   175   89   90 1    
   176   89  210 1    
   177   90   91 1    
   178   90   92 1    
   179   90  211 1    
   180   91  212 1    
   181   91  213 1    
   182   91  214 1    
   183   92   93 2    
   184   92   94 am   BACKBONE|DICT|INTERRES
   185   94   95 1    
   186   94  215 1    
   187   95   96 1    
   188   95   97 1    
   189   95  216 1    
   190   96  217 1    
   191   96  218 1    
   192   96  219 1    
   193   97   98 2    
   194   97   99 am   BACKBONE|DICT|INTERRES
   195   99  100 1    
   196   99  220 1    
   197  100  101 1    
   198  100  102 1    
   199  100  221 1    
   200  101  222 1    
   201  101  223 1    
   202  101  224 1    
   203  102  103 2    
   204  102  104 am   BACKBONE|DICT|INTERRES
   205  104  105 1    
   206  104  225 1    
   207  105  106 1    
   208  105  107 1    
   209  105  226 1    
   210  106  227 1    
   211  106  228 1    
   212  106  229 1    
   213  107  108 2    
   214  107  109 am   BACKBONE|DICT|INTERRES
   215  109  110 1    
   216  109  230 1    
   217  110  111 1    
   218  110  112 1    
   219  110  231 1    
   220  111  232 1    
   221  111  233 1    
   222  111  234 1    
   223  112  113 2    
   224  112  114 am   BACKBONE|DICT|INTERRES
   225  114  115 1    
   226  114  235 1    
   227  115  116 1    
   228  115  117 1    
   229  115  236 1    
   230  116  237 1    
   231  116  238 1    
   232  116  239 1    
   233  117  118 2    
   234  117  119 am   BACKBONE|DICT|INTERRES
   235  119  120 1    
   236  119  240 1    
   237  120  121 1    
   238  120  124 1    
   239  120  241 1    
   240  121  122 am   BACKBONE|DICT|INTERRES
   241  121  123 2    
   242  122  242 1    
   243  122  243 1    
   244  124  125 1    
   245  124  244 1    
   246  124  245 1    
   247  125  126 1    
   248  126  246 1    
   249  126  247 1    
@<TRIPOS>SUBSTRUCTURE
     1 UNK         1 GROUP             0       ****    0 ROOT    
