@<TRIPOS>MOLECULE
3R540
247   249    1
SMALL
USER_CHARGES


@<TRIPOS>ATOM
      1 CA          6.2946  -19.8572  -45.1881 C.3       0 UNK        -0.1800 
      2 C           5.7063  -18.4541  -45.1412 C.2       0 UNK         0.5000 
      3 O           5.5395  -17.8970  -44.0564 O.2       0 UNK        -0.5000 
      4 N           5.3807  -17.8921  -46.3116 N.am      1 UNK        -0.5000 
      5 CA          4.8134  -16.5506  -46.4762 C.3       1 UNK         0.1400 
      6 C6          4.3270  -16.3024  -47.9267 C.3       23 UNK        -0.0398 
      7 S7          3.0803  -17.5127  -48.4917 S.3       23 UNK        -0.2404 
      8 C8          2.1762  -16.5104  -49.7080 C.3       23 UNK        -0.0205 
      9 C9          1.0933  -17.3086  -50.4187 C.ar      23 UNK        -0.0193 
     10 C10         1.4247  -18.1199  -51.5073 C.ar      23 UNK        -0.1150 
     11 C11         0.4392  -18.8087  -52.2214 C.ar      23 UNK        -0.0193 
     12 C12        -0.8984  -18.6716  -51.8254 C.ar      23 UNK        -0.1150 
     13 C13        -1.2464  -17.8639  -50.7385 C.ar      23 UNK        -0.0193 
     14 C14        -0.2442  -17.1957  -50.0289 C.ar      23 UNK        -0.1150 
     15 C15        -2.7121  -17.6641  -50.3768 C.3       23 UNK        -0.0205 
     16 S16        -3.4897  -19.1728  -49.7203 S.3       23 UNK        -0.2404 
     17 C17        -2.7108  -19.3185  -48.0794 C.3       23 UNK        -0.0398 
     18 CA         -1.7012  -20.4888  -47.9926 C.3       11 UNK         0.1400 
     19 N          -0.7327  -20.2851  -46.9075 N.am      11 UNK        -0.5000 
     20 C           0.2533  -21.1223  -46.5524 C.2       10 UNK         0.5000 
     21 O           0.4704  -22.1977  -47.1098 O.2       10 UNK        -0.5000 
     22 CA          1.1060  -20.7319  -45.3338 C.3       10 UNK         0.1400 
     23 CB          2.3180  -19.8982  -45.7652 C.3       10 UNK        -0.1800 
     24 N           0.3558  -20.0092  -44.3061 N.am      10 UNK        -0.5000 
     25 C          -0.6552  -20.5228  -43.5915 C.2       9 UNK         0.5000 
     26 O          -1.0693  -21.6747  -43.7238 O.2       9 UNK        -0.5000 
     27 CA         -1.3385  -19.5820  -42.5821 C.3       9 UNK         0.1400 
     28 CB         -0.4822  -19.4130  -41.3179 C.3       9 UNK        -0.1800 
     29 N          -1.6340  -18.2694  -43.1560 N.am      9 UNK        -0.5000 
     30 C          -2.5263  -18.0577  -44.1341 C.2       8 UNK         0.5000 
     31 O          -3.2384  -18.9396  -44.6151 O.2       8 UNK        -0.5000 
     32 CA         -2.6146  -16.6267  -44.6966 C.3       8 UNK         0.1400 
     33 CB         -3.5005  -15.7448  -43.8043 C.3       8 UNK        -0.1800 
     34 N          -1.3045  -15.9958  -44.8699 N.am      8 UNK        -0.5000 
     35 C          -0.3449  -16.4588  -45.6838 C.2       7 UNK         0.5000 
     36 O          -0.4705  -17.4557  -46.3906 O.2       7 UNK        -0.5000 
     37 CA          1.0029  -15.7241  -45.6698 C.3       7 UNK         0.1400 
     38 CB          0.9345  -14.4127  -46.4652 C.3       7 UNK        -0.1800 
     39 N           1.4851  -15.4570  -44.3175 N.am      7 UNK        -0.5000 
     40 C           1.7589  -16.3904  -43.3957 C.2       6 UNK         0.5000 
     41 O           1.6927  -17.5999  -43.6020 O.2       6 UNK        -0.5000 
     42 CA          2.1055  -15.8815  -41.9880 C.3       6 UNK         0.1400 
     43 CB          3.5704  -15.4243  -41.9108 C.3       6 UNK        -0.1800 
     44 N           1.2215  -14.7908  -41.5759 N.am      6 UNK        -0.5000 
     45 C          -0.0864  -14.9325  -41.3172 C.2       5 UNK         0.5000 
     46 O          -0.6816  -16.0094  -41.3654 O.2       5 UNK        -0.5000 
     47 CA         -0.8645  -13.6466  -40.9823 C.3       5 UNK         0.1400 
     48 CB         -0.6937  -13.2796  -39.5006 C.3       5 UNK        -0.1800 
     49 N          -0.4600  -12.5112  -41.8140 N.am      5 UNK        -0.5000 
     50 C          -0.7009  -12.4187  -43.1293 C.2       4 UNK         0.5000 
     51 O          -1.3107  -13.2718  -43.7735 O.2       4 UNK        -0.5000 
     52 CA         -0.1173  -11.1912  -43.8570 C.3       4 UNK         0.1400 
     53 CB         -1.0509   -9.9807  -43.7074 C.3       4 UNK        -0.1800 
     54 N           1.2350  -10.8216  -43.4210 N.am      4 UNK        -0.5000 
     55 C           2.2951  -11.6397  -43.4511 C.2       3 UNK         0.5000 
     56 O           2.2263  -12.8242  -43.7859 O.2       3 UNK        -0.5000 
     57 CA          3.6455  -11.0535  -42.9929 C.3       3 UNK         0.1400 
     58 CB          3.6672  -10.8964  -41.4640 C.3       3 UNK        -0.1800 
     59 N           4.7625  -11.9161  -43.3841 N.am      3 UNK        -0.5000 
     60 C           5.1549  -12.1422  -44.6447 C.2       2 UNK         0.5000 
     61 O           4.7353  -11.5137  -45.6178 O.2       2 UNK        -0.5000 
     62 CA          6.1317  -13.3047  -44.8685 C.3       2 UNK         0.1400 
     63 CB          6.9443  -13.7035  -43.6163 C.3       2 UNK        -0.1800 
     64 N           5.3467  -14.4389  -45.3461 N.am      2 UNK        -0.5000 
     65 C           5.8270  -15.4630  -46.0587 C.2       1 UNK         0.5000 
     66 O           7.0063  -15.5619  -46.4080 O.2       1 UNK        -0.5000 
     67 C          -2.4383  -21.8450  -47.9157 C.2       11 UNK         0.5000 
     68 O          -2.7368  -22.4300  -48.9551 O.2       11 UNK        -0.5000 
     69 N          -2.6770  -22.3475  -46.6951 N.am      12 UNK        -0.5000 
     70 CA         -3.3057  -23.6450  -46.4425 C.3       12 UNK         0.1400 
     71 CB         -3.6221  -23.7671  -44.9453 C.3       12 UNK        -0.1800 
     72 C          -2.4760  -24.8527  -46.9248 C.2       12 UNK         0.5000 
     73 O          -3.0557  -25.9126  -47.1649 O.2       12 UNK        -0.5000 
     74 N          -1.1539  -24.6761  -47.0506 N.am      13 UNK        -0.5000 
     75 CA         -0.2202  -25.6768  -47.5624 C.3       13 UNK         0.1400 
     76 CB          0.9651  -25.7934  -46.5909 C.3       13 UNK        -0.1800 
     77 C           0.2775  -25.3161  -48.9727 C.2       13 UNK         0.5000 
     78 O           0.4617  -26.2164  -49.7929 O.2       13 UNK        -0.5000 
     79 N           0.5095  -24.0197  -49.2279 N.am      14 UNK        -0.5000 
     80 CA          1.0256  -23.4972  -50.4939 C.3       14 UNK         0.1400 
     81 CB          1.4828  -22.0432  -50.2983 C.3       14 UNK        -0.1800 
     82 C           0.0126  -23.6050  -51.6479 C.2       14 UNK         0.5000 
     83 O           0.4128  -23.9085  -52.7726 O.2       14 UNK        -0.5000 
     84 N          -1.2713  -23.3878  -51.3419 N.am      15 UNK        -0.5000 
     85 CA         -2.4008  -23.6073  -52.2376 C.3       15 UNK         0.1400 
     86 CB         -3.2510  -22.3265  -52.2871 C.3       15 UNK        -0.1800 
     87 C          -3.2355  -24.7869  -51.7128 C.2       15 UNK         0.5000 
     88 O          -3.0070  -25.2713  -50.6016 O.2       15 UNK        -0.5000 
     89 N          -4.2139  -25.2204  -52.5165 N.am      16 UNK        -0.5000 
     90 CA         -5.1850  -26.2567  -52.1671 C.3       16 UNK         0.1400 
     91 CB         -5.9393  -26.6822  -53.4383 C.3       16 UNK        -0.1800 
     92 C          -6.1475  -25.7627  -51.0698 C.2       16 UNK         0.5000 
     93 O          -7.1591  -25.1316  -51.3835 O.2       16 UNK        -0.5000 
     94 N          -5.7739  -26.0021  -49.8038 N.am      17 UNK        -0.5000 
     95 CA         -6.5090  -25.6807  -48.5719 C.3       17 UNK         0.1400 
     96 CB         -7.7540  -26.5840  -48.4539 C.3       17 UNK        -0.1800 
     97 C          -6.8565  -24.1829  -48.4147 C.2       17 UNK         0.5000 
     98 O          -7.8518  -23.8501  -47.7704 O.2       17 UNK        -0.5000 
     99 N          -6.0478  -23.3131  -49.0404 N.am      18 UNK        -0.5000 
    100 CA        -6.2291  -21.8637  -49.1949 C.3       18 UNK         0.1400 
    101 CB        -6.2237  -21.1499  -47.8265 C.3       18 UNK        -0.1800 
    102 C         -7.4542  -21.4584  -50.0489 C.2       18 UNK         0.5000 
    103 O         -7.7480  -20.2664  -50.1423 O.2       18 UNK        -0.5000 
    104 N         -8.1418  -22.4276  -50.6716 N.am      19 UNK        -0.5000 
    105 CA        -9.3435  -22.2058  -51.4759 C.3       19 UNK         0.1400 
    106 CB       -10.1845  -23.4915  -51.5063 C.3       19 UNK        -0.1800 
    107 C         -8.9946  -21.7454  -52.8991 C.2       19 UNK         0.5000 
    108 O         -9.6468  -20.8427  -53.4246 O.2       19 UNK        -0.5000 
    109 N         -7.9561  -22.3578  -53.4865 N.am      20 UNK        -0.5000 
    110 CA        -7.4126  -21.9796  -54.7945 C.3       20 UNK         0.1400 
    111 CB        -6.5460  -23.1290  -55.3311 C.3       20 UNK        -0.1800 
    112 C         -6.5978  -20.6731  -54.7383 C.2       20 UNK         0.5000 
    113 O         -6.5112  -19.9628  -55.7413 O.2       20 UNK        -0.5000 
    114 N         -6.0003  -20.4016  -53.5671 N.am      21 UNK        -0.5000 
    115 CA        -5.2354  -19.2043  -53.1935 C.3       21 UNK         0.1400 
    116 CB        -6.1925  -18.0101  -53.0096 C.3       21 UNK        -0.1800 
    117 C         -4.0453  -18.8685  -54.1216 C.2       21 UNK         0.5000 
    118 O         -3.6238  -17.7126  -54.1773 O.2       21 UNK        -0.5000 
    119 N         -3.5370  -19.8801  -54.8400 N.am      22 UNK        -0.5000 
    120 CA        -2.5266  -19.7688  -55.9072 C.3       22 UNK         0.1400 
    121 C         -2.9961  -18.9379  -57.1440 C.2       22 UNK         0.5000 
    122 N         -4.2948  -18.7767  -57.3761 N.am      22 UNK        -0.7600 
    123 O         -2.1804  -18.4591  -57.9278 O.2       22 UNK        -0.5000 
    124 C124       -1.1220  -19.3563  -55.3805 C.3       23 UNK        -0.0398 
    125 S125       -0.4180  -20.6171  -54.2651 S.3       23 UNK        -0.2404 
    126 C126        0.8834  -19.6610  -53.4138 C.3       23 UNK        -0.0205 
    127 H127        5.6674  -20.5449  -44.6207 H         1 UNK         0.0600 
    128 H128        7.2920  -19.8610  -44.7486 H         1 UNK         0.0600 
    129 H129        6.3705  -20.2314  -46.2094 H         1 UNK         0.0600 
    130 H130        5.5475  -18.3984  -47.1689 H         1 UNK         0.3000 
    131 H131        3.9559  -16.4855  -45.8054 H         1 UNK         0.0600 
    132 H132        3.8988  -15.3014  -48.0064 H         1 UNK         0.0800 
    133 H133        5.1662  -16.3314  -48.6244 H         1 UNK         0.0800 
    134 H134        2.8800  -16.1189  -50.4443 H         1 UNK         0.0800 
    135 H135        1.7399  -15.6433  -49.2123 H         1 UNK         0.0800 
    136 H136        2.4597  -18.2039  -51.8086 H         1 UNK         0.1150 
    137 H137       -1.6856  -19.1762  -52.3632 H         1 UNK         0.1150 
    138 H138       -0.5065  -16.5642  -49.1916 H         1 UNK         0.1150 
    139 H139       -2.8318  -16.8516  -49.6584 H         1 UNK         0.0800 
    140 H140       -3.2529  -17.3550  -51.2722 H         1 UNK         0.0800 
    141 H141       -3.4906  -19.4109  -47.3214 H         1 UNK         0.0800 
    142 H142       -2.2148  -18.3735  -47.8712 H         1 UNK         0.0800 
    143 H143       -1.1152  -20.4942  -48.9127 H         1 UNK         0.0600 
    144 H144       -0.7772  -19.3850  -46.4383 H         1 UNK         0.3000 
    145 H145        1.4751  -21.6569  -44.8864 H         1 UNK         0.0600 
    146 H146        2.9938  -19.7311  -44.9271 H         1 UNK         0.0600 
    147 H147        2.8863  -20.3972  -46.5512 H         1 UNK         0.0600 
    148 H148        2.0120  -18.9235  -46.1445 H         1 UNK         0.0600 
    149 H149        0.6666  -19.0601  -44.1090 H         1 UNK         0.3000 
    150 H150       -2.2847  -20.0412  -42.2884 H         1 UNK         0.0600 
    151 H151       -0.2628  -20.3796  -40.8626 H         1 UNK         0.0600 
    152 H152       -0.9992  -18.8107  -40.5707 H         1 UNK         0.0600 
    153 H153        0.4698  -18.9281  -41.5352 H         1 UNK         0.0600 
    154 H154       -1.1155  -17.4807  -42.7846 H         1 UNK         0.3000 
    155 H155       -3.0823  -16.6895  -45.6814 H         1 UNK         0.0600 
    156 H156       -3.0610  -15.6014  -42.8168 H         1 UNK         0.0600 
    157 H157       -4.4851  -16.1928  -43.6651 H         1 UNK         0.0600 
    158 H158       -3.6512  -14.7611  -44.2490 H         1 UNK         0.0600 
    159 H159       -1.1402  -15.1392  -44.3490 H         1 UNK         0.3000 
    160 H160        1.7226  -16.3797  -46.1574 H         1 UNK         0.0600 
    161 H161        0.2840  -13.6838  -45.9826 H         1 UNK         0.0600 
    162 H162        0.5438  -14.5816  -47.4688 H         1 UNK         0.0600 
    163 H163        1.9217  -13.9618  -46.5678 H         1 UNK         0.0600 
    164 H164        1.5942  -14.4775  -44.0595 H         1 UNK         0.3000 
    165 H165        1.9714  -16.7104  -41.2897 H         1 UNK         0.0600 
    166 H166        3.8314  -15.1025  -40.9027 H         1 UNK         0.0600 
    167 H167        4.2450  -16.2389  -42.1771 H         1 UNK         0.0600 
    168 H168        3.7754  -14.5985  -42.5905 H         1 UNK         0.0600 
    169 H169        1.6156  -13.8623  -41.5772 H         1 UNK         0.3000 
    170 H170       -1.9235  -13.8424  -41.1642 H         1 UNK         0.0600 
    171 H171       -1.0030  -14.1041  -38.8568 H         1 UNK         0.0600 
    172 H172        0.3437  -13.0452  -39.2587 H         1 UNK         0.0600 
    173 H173       -1.3038  -12.4158  -39.2359 H         1 UNK         0.0600 
    174 H174        0.0530  -11.7685  -41.3628 H         1 UNK         0.3000 
    175 H175       -0.0583  -11.4419  -44.9180 H         1 UNK         0.0600 
    176 H176       -1.1181   -9.6487  -42.6706 H         1 UNK         0.0600 
    177 H177       -0.7055   -9.1393  -44.3083 H         1 UNK         0.0600 
    178 H178       -2.0610  -10.2228  -44.0409 H         1 UNK         0.0600 
    179 H179        1.3631   -9.8662  -43.1201 H         1 UNK         0.3000 
    180 H180        3.7774  -10.0748  -43.4588 H         1 UNK         0.0600 
    181 H181        3.5257  -11.8527  -40.9583 H         1 UNK         0.0600 
    182 H182        2.8783  -10.2249  -41.1232 H         1 UNK         0.0600 
    183 H183        4.6143  -10.4760  -41.1252 H         1 UNK         0.0600 
    184 H184        5.1527  -12.4944  -42.6555 H         1 UNK         0.3000 
    185 H185        6.8268  -12.9892  -45.6495 H         1 UNK         0.0600 
    186 H186        7.4617  -12.8424  -43.1913 H         1 UNK         0.0600 
    187 H187        6.3156  -14.1381  -42.8385 H         1 UNK         0.0600 
    188 H188        7.7070  -14.4411  -43.8662 H         1 UNK         0.0600 
    189 H189        4.3590  -14.3923  -45.1343 H         1 UNK         0.3000 
    190 H190       -2.3672  -21.8274  -45.8845 H         1 UNK         0.3000 
    191 H191       -4.2494  -23.6664  -46.9865 H         1 UNK         0.0600 
    192 H192       -2.7135  -23.7665  -44.3423 H         1 UNK         0.0600 
    193 H193       -4.1554  -24.6947  -44.7333 H         1 UNK         0.0600 
    194 H194       -4.2523  -22.9449  -44.6056 H         1 UNK         0.0600 
    195 H195       -0.7659  -23.7594  -46.8579 H         1 UNK         0.3000 
    196 H196       -0.7025  -26.6545  -47.6235 H         1 UNK         0.0600 
    197 H197        1.6858  -26.5337  -46.9407 H         1 UNK         0.0600 
    198 H198        0.6320  -26.1060  -45.6011 H         1 UNK         0.0600 
    199 H199        1.4932  -24.8451  -46.4820 H         1 UNK         0.0600 
    200 H200        0.3956  -23.3429  -48.4769 H         1 UNK         0.3000 
    201 H201        1.9022  -24.0902  -50.7634 H         1 UNK         0.0600 
    202 H202        2.1728  -21.9512  -49.4592 H         1 UNK         0.0600 
    203 H203        0.6423  -21.3740  -50.1163 H         1 UNK         0.0600 
    204 H204        2.0035  -21.6809  -51.1838 H         1 UNK         0.0600 
    205 H205       -1.5304  -23.2119  -50.3761 H         1 UNK         0.3000 
    206 H206       -2.0575  -23.8452  -53.2463 H         1 UNK         0.0600 
    207 H207       -2.6411  -21.4557  -52.5218 H         1 UNK         0.0600 
    208 H208       -4.0231  -22.4012  -53.0513 H         1 UNK         0.0600 
    209 H209       -3.7461  -22.1295  -51.3377 H         1 UNK         0.0600 
    210 H210       -4.3391  -24.7815  -53.4159 H         1 UNK         0.3000 
    211 H211       -4.6469  -27.1291  -51.7898 H         1 UNK         0.0600 
    212 H212       -6.4768  -25.8490  -53.8914 H         1 UNK         0.0600 
    213 H213       -6.6712  -27.4591  -53.2137 H         1 UNK         0.0600 
    214 H214       -5.2565  -27.0865  -54.1858 H         1 UNK         0.0600 
    215 H215       -4.8601  -26.4151  -49.6613 H         1 UNK         0.3000 
    216 H216       -5.8418  -25.9241  -47.7441 H         1 UNK         0.0600 
    217 H217       -8.2383  -26.4639  -47.4841 H         1 UNK         0.0600 
    218 H218       -7.4882  -27.6366  -48.5519 H         1 UNK         0.0600 
    219 H219       -8.4939  -26.3520  -49.2210 H         1 UNK         0.0600 
    220 H220       -5.2471  -23.6984  -49.5231 H         1 UNK         0.3000 
    221 H221       -5.3558  -21.5160  -49.7450 H         1 UNK         0.0600 
    222 H222       -7.1279  -21.3583  -47.2545 H         1 UNK         0.0600 
    223 H223       -5.3696  -21.4494  -47.2218 H         1 UNK         0.0600 
    224 H224       -6.1628  -20.0684  -47.9528 H         1 UNK         0.0600 
    225 H225       -7.8214  -23.3876  -50.5973 H         1 UNK         0.3000 
    226 H226       -9.9443  -21.4242  -51.0055 H         1 UNK         0.0600 
    227 H227      -10.4502  -23.8116  -50.4985 H         1 UNK         0.0600 
    228 H228      -11.1143  -23.3350  -52.0544 H         1 UNK         0.0600 
    229 H229       -9.6548  -24.3134  -51.9888 H         1 UNK         0.0600 
    230 H230       -7.5078  -23.1200  -52.9972 H         1 UNK         0.3000 
    231 H231       -8.2414  -21.8238  -55.4884 H         1 UNK         0.0600 
    232 H232       -7.1368  -24.0353  -55.4638 H         1 UNK         0.0600 
    233 H233       -5.7191  -23.3611  -54.6602 H         1 UNK         0.0600 
    234 H234       -6.1203  -22.8770  -56.3034 H         1 UNK         0.0600 
    235 H235       -6.1556  -21.0609  -52.8201 H         1 UNK         0.3000 
    236 H236       -4.7978  -19.4278  -52.2226 H         1 UNK         0.0600 
    237 H237       -6.6380  -17.7036  -53.9565 H         1 UNK         0.0600 
    238 H238       -7.0016  -18.2585  -52.3224 H         1 UNK         0.0600 
    239 H239       -5.6722  -17.1464  -52.5942 H         1 UNK         0.0600 
    240 H240       -3.9587  -20.7893  -54.7351 H         1 UNK         0.3000 
    241 H241       -2.4253  -20.7783  -56.3073 H         1 UNK         0.0600 
    242 H242       -4.9938  -19.1745  -56.7561 H         1 UNK         0.3800 
    243 H243       -4.5899  -18.2491  -58.1823 H         1 UNK         0.3800 
    244 H244       -1.1636  -18.3923  -54.8724 H         1 UNK         0.0800 
    245 H245       -0.4171  -19.2359  -56.2045 H         1 UNK         0.0800 
    246 H246        1.3830  -19.0205  -54.1420 H         1 UNK         0.0800 
    247 H247        1.6368  -20.3692  -53.0695 H         1 UNK         0.0800 
@<TRIPOS>BOND
     1    1    2 1    
     2    1  127 1    
     3    1  128 1    
     4    1  129 1    
     5    2    3 2    
     6    2    4 am   BACKBONE|DICT|INTERRES
     7    4    5 1    
     8    4  130 1    
     9    5    6 1    
    10    5   65 1    
    11    5  131 1    
    12    6    7 1    
    13    6  132 1    
    14    6  133 1    
    15    7    8 1    
    16    8    9 1    
    17    8  134 1    
    18    8  135 1    
    19    9   10 ar   
    20    9   14 ar   
    21   10   11 ar   
    22   10  136 1    
    23   11   12 ar   
    24   11  126 1    
    25   12   13 ar   
    26   12  137 1    
    27   13   14 ar   
    28   13   15 1    
    29   14  138 1    
    30   15   16 1    
    31   15  139 1    
    32   15  140 1    
    33   16   17 1    
    34   17   18 1    
    35   17  141 1    
    36   17  142 1    
    37   18   19 1    
    38   18   67 1    
    39   18  143 1    
    40   19   20 am   BACKBONE|DICT|INTERRES
    41   19  144 1    
    42   20   21 2    
    43   20   22 1    
    44   22   23 1    
    45   22   24 1    
    46   22  145 1    
    47   23  146 1    
    48   23  147 1    
    49   23  148 1    
    50   24   25 am   BACKBONE|DICT|INTERRES
    51   24  149 1    
    52   25   26 2    
    53   25   27 1    
    54   27   28 1    
    55   27   29 1    
    56   27  150 1    
    57   28  151 1    
    58   28  152 1    
    59   28  153 1    
    60   29   30 am   BACKBONE|DICT|INTERRES
    61   29  154 1    
    62   30   31 2    
    63   30   32 1    
    64   32   33 1    
    65   32   34 1    
    66   32  155 1    
    67   33  156 1    
    68   33  157 1    
    69   33  158 1    
    70   34   35 am   BACKBONE|DICT|INTERRES
    71   34  159 1    
    72   35   36 2    
    73   35   37 1    
    74   37   38 1    
    75   37   39 1    
    76   37  160 1    
    77   38  161 1    
    78   38  162 1    
    79   38  163 1    
    80   39   40 am   BACKBONE|DICT|INTERRES
    81   39  164 1    
    82   40   41 2    
    83   40   42 1    
    84   42   43 1    
    85   42   44 1    
    86   42  165 1    
    87   43  166 1    
    88   43  167 1    
    89   43  168 1    
    90   44   45 am   BACKBONE|DICT|INTERRES
    91   44  169 1    
    92   45   46 2    
    93   45   47 1    
    94   47   48 1    
    95   47   49 1    
    96   47  170 1    
    97   48  171 1    
    98   48  172 1    
    99   48  173 1    
   100   49   50 am   BACKBONE|DICT|INTERRES
   101   49  174 1    
   102   50   51 2    
   103   50   52 1    
   104   52   53 1    
   105   52   54 1    
   106   52  175 1    
   107   53  176 1    
   108   53  177 1    
   109   53  178 1    
   110   54   55 am   BACKBONE|DICT|INTERRES
   111   54  179 1    
   112   55   56 2    
   113   55   57 1    
   114   57   58 1    
   115   57   59 1    
   116   57  180 1    
   117   58  181 1    
   118   58  182 1    
   119   58  183 1    
   120   59   60 am   BACKBONE|DICT|INTERRES
   121   59  184 1    
   122   60   61 2    
   123   60   62 1    
   124   62   63 1    
   125   62   64 1    
   126   62  185 1    
   127   63  186 1    
   128   63  187 1    
   129   63  188 1    
   130   64   65 am   BACKBONE|DICT|INTERRES
   131   64  189 1    
   132   65   66 2    
   133   67   68 2    
   134   67   69 am   BACKBONE|DICT|INTERRES
   135   69   70 1    
   136   69  190 1    
   137   70   71 1    
   138   70   72 1    
   139   70  191 1    
   140   71  192 1    
   141   71  193 1    
   142   71  194 1    
   143   72   73 2    
   144   72   74 am   BACKBONE|DICT|INTERRES
   145   74   75 1    
   146   74  195 1    
   147   75   76 1    
   148   75   77 1    
   149   75  196 1    
   150   76  197 1    
   151   76  198 1    
   152   76  199 1    
   153   77   78 2    
   154   77   79 am   BACKBONE|DICT|INTERRES
   155   79   80 1    
   156   79  200 1    
   157   80   81 1    
   158   80   82 1    
   159   80  201 1    
   160   81  202 1    
   161   81  203 1    
   162   81  204 1    
   163   82   83 2    
   164   82   84 am   BACKBONE|DICT|INTERRES
   165   84   85 1    
   166   84  205 1    
   167   85   86 1    
   168   85   87 1    
   169   85  206 1    
   170   86  207 1    
   171   86  208 1    
   172   86  209 1    
   173   87   88 2    
   174   87   89 am   BACKBONE|DICT|INTERRES
   175   89   90 1    
   176   89  210 1    
   177   90   91 1    
   178   90   92 1    
   179   90  211 1    
   180   91  212 1    
   181   91  213 1    
   182   91  214 1    
   183   92   93 2    
   184   92   94 am   BACKBONE|DICT|INTERRES
   185   94   95 1    
   186   94  215 1    
   187   95   96 1    
   188   95   97 1    
   189   95  216 1    
   190   96  217 1    
   191   96  218 1    
   192   96  219 1    
   193   97   98 2    
   194   97   99 am   BACKBONE|DICT|INTERRES
   195   99  100 1    
   196   99  220 1    
   197  100  101 1    
   198  100  102 1    
   199  100  221 1    
   200  101  222 1    
   201  101  223 1    
   202  101  224 1    
   203  102  103 2    
   204  102  104 am   BACKBONE|DICT|INTERRES
   205  104  105 1    
   206  104  225 1    
   207  105  106 1    
   208  105  107 1    
   209  105  226 1    
   210  106  227 1    
   211  106  228 1    
   212  106  229 1    
   213  107  108 2    
   214  107  109 am   BACKBONE|DICT|INTERRES
   215  109  110 1    
   216  109  230 1    
   217  110  111 1    
   218  110  112 1    
   219  110  231 1    
   220  111  232 1    
   221  111  233 1    
   222  111  234 1    
   223  112  113 2    
   224  112  114 am   BACKBONE|DICT|INTERRES
   225  114  115 1    
   226  114  235 1    
   227  115  116 1    
   228  115  117 1    
   229  115  236 1    
   230  116  237 1    
   231  116  238 1    
   232  116  239 1    
   233  117  118 2    
   234  117  119 am   BACKBONE|DICT|INTERRES
   235  119  120 1    
   236  119  240 1    
   237  120  121 1    
   238  120  124 1    
   239  120  241 1    
   240  121  122 am   BACKBONE|DICT|INTERRES
   241  121  123 2    
   242  122  242 1    
   243  122  243 1    
   244  124  125 1    
   245  124  244 1    
   246  124  245 1    
   247  125  126 1    
   248  126  246 1    
   249  126  247 1    
@<TRIPOS>SUBSTRUCTURE
     1 UNK         1 GROUP             0       ****    0 ROOT    
