@<TRIPOS>MOLECULE
3R540
247   249    1
SMALL
USER_CHARGES


@<TRIPOS>ATOM
      1 CA          3.5638  -11.8515  -48.8337 C.3       0 UNK        -0.1800 
      2 C           2.3695  -12.7110  -48.4431 C.2       0 UNK         0.5000 
      3 O           2.4428  -13.4367  -47.4519 O.2       0 UNK        -0.5000 
      4 N           1.2850  -12.6236  -49.2248 N.am      1 UNK        -0.5000 
      5 CA          0.0211  -13.3679  -49.1247 C.3       1 UNK         0.1400 
      6 C6         -0.9727  -12.9109  -50.2229 C.3       23 UNK        -0.0398 
      7 S7         -0.3221  -13.1298  -51.9144 S.3       23 UNK        -0.2404 
      8 C8         -1.4779  -14.3545  -52.5990 C.3       23 UNK        -0.0205 
      9 C9         -1.1464  -15.7685  -52.1487 C.ar      23 UNK        -0.0193 
     10 C10        -0.2364  -16.5334  -52.8820 C.ar      23 UNK        -0.1150 
     11 C11         0.0513  -17.8497  -52.5123 C.ar      23 UNK        -0.0193 
     12 C12        -0.5688  -18.3958  -51.3847 C.ar      23 UNK        -0.1150 
     13 C13        -1.4654  -17.6330  -50.6294 C.ar      23 UNK        -0.0193 
     14 C14        -1.7583  -16.3232  -51.0208 C.ar      23 UNK        -0.1150 
     15 C15        -2.1235  -18.2310  -49.3975 C.3       23 UNK        -0.0205 
     16 S16        -1.0145  -18.1915  -47.9545 S.3       23 UNK        -0.2404 
     17 C17        -1.9839  -19.2021  -46.7874 C.3       23 UNK        -0.0398 
     18 CA         -1.4781  -20.6658  -46.7147 C.3       11 UNK         0.1400 
     19 N          -0.2675  -20.8103  -45.8986 N.am      11 UNK        -0.5000 
     20 C           0.4138  -21.9538  -45.7268 C.2       10 UNK         0.5000 
     21 O           0.1303  -23.0121  -46.2878 O.2       10 UNK        -0.5000 
     22 CA          1.5669  -21.9334  -44.7077 C.3       10 UNK         0.1400 
     23 CB          2.8196  -21.2717  -45.3003 C.3       10 UNK        -0.1800 
     24 N           1.1940  -21.2778  -43.4528 N.am      10 UNK        -0.5000 
     25 C           0.2342  -21.7204  -42.6267 C.2       9 UNK         0.5000 
     26 O          -0.4042  -22.7545  -42.8144 O.2       9 UNK        -0.5000 
     27 CA         -0.1092  -20.8438  -41.4104 C.3       9 UNK         0.1400 
     28 CB          0.8967  -21.0710  -40.2726 C.3       9 UNK        -0.1800 
     29 N          -0.1763  -19.4213  -41.7425 N.am      9 UNK        -0.5000 
     30 C          -1.0534  -18.8805  -42.6010 C.2       8 UNK         0.5000 
     31 O          -1.9413  -19.5179  -43.1676 O.2       8 UNK        -0.5000 
     32 CA         -0.8664  -17.3893  -42.9320 C.3       8 UNK         0.1400 
     33 CB         -1.4343  -16.4962  -41.8198 C.3       8 UNK        -0.1800 
     34 N           0.5355  -17.0474  -43.1670 N.am      8 UNK        -0.5000 
     35 C           1.2860  -17.5493  -44.1574 C.2       7 UNK         0.5000 
     36 O           0.8591  -18.3206  -45.0141 O.2       7 UNK        -0.5000 
     37 CA          2.7720  -17.1571  -44.1628 C.3       7 UNK         0.1400 
     38 CB          2.9744  -15.7724  -44.7978 C.3       7 UNK        -0.1800 
     39 N           3.3413  -17.1774  -42.8151 N.am      7 UNK        -0.5000 
     40 C           3.5558  -18.2948  -42.1057 C.2       6 UNK         0.5000 
     41 O           3.3284  -19.4273  -42.5301 O.2       6 UNK        -0.5000 
     42 CA          4.0756  -18.1130  -40.6678 C.3       6 UNK         0.1400 
     43 CB          5.5991  -17.9177  -40.6626 C.3       6 UNK        -0.1800 
     44 N           3.4396  -16.9902  -39.9770 N.am      6 UNK        -0.5000 
     45 C           2.1449  -16.9496  -39.6320 C.2       5 UNK         0.5000 
     46 O           1.3549  -17.8708  -39.8317 O.2       5 UNK        -0.5000 
     47 CA          1.6344  -15.6362  -39.0100 C.3       5 UNK         0.1400 
     48 CB          1.8777  -15.6260  -37.4936 C.3       5 UNK        -0.1800 
     49 N           2.2270  -14.4351  -39.6078 N.am      5 UNK        -0.5000 
     50 C           2.1401  -14.1091  -40.9034 C.2       4 UNK         0.5000 
     51 O           1.5779  -14.8102  -41.7501 O.2       4 UNK        -0.5000 
     52 CA          2.8310  -12.8101  -41.3342 C.3       4 UNK         0.1400 
     53 CB          4.3543  -13.0012  -41.4224 C.3       4 UNK        -0.1800 
     54 N           2.3194  -12.4464  -42.6480 N.am      4 UNK        -0.5000 
     55 C           2.0237  -11.2160  -43.0717 C.2       3 UNK         0.5000 
     56 O           2.2293  -10.1974  -42.4101 O.2       3 UNK        -0.5000 
     57 CA          1.3955  -11.0967  -44.4744 C.3       3 UNK         0.1400 
     58 CB          2.4098  -10.5081  -45.4658 C.3       3 UNK        -0.1800 
     59 N           0.8875  -12.3630  -45.0153 N.am      3 UNK        -0.5000 
     60 C          -0.2454  -12.9651  -44.6213 C.2       2 UNK         0.5000 
     61 O          -0.9413  -12.5543  -43.6916 O.2       2 UNK        -0.5000 
     62 CA         -0.6698  -14.2257  -45.4121 C.3       2 UNK         0.1400 
     63 CB         -2.1678  -14.5619  -45.2648 C.3       2 UNK        -0.1800 
     64 N          -0.2902  -14.1809  -46.8293 N.am      2 UNK        -0.5000 
     65 C          -0.6262  -13.2424  -47.7276 C.2       1 UNK         0.5000 
     66 O          -1.3744  -12.2930  -47.4862 O.2       1 UNK        -0.5000 
     67 C          -2.6058  -21.6036  -46.2412 C.2       11 UNK         0.5000 
     68 O          -3.2128  -22.2743  -47.0764 O.2       11 UNK        -0.5000 
     69 N          -2.8465  -21.6575  -44.9238 N.am      12 UNK        -0.5000 
     70 CA         -3.8418  -22.5303  -44.3017 C.3       12 UNK         0.1400 
     71 CB         -3.9968  -22.1639  -42.8179 C.3       12 UNK        -0.1800 
     72 C          -3.5161  -24.0256  -44.4694 C.2       12 UNK         0.5000 
     73 O          -4.3998  -24.7957  -44.8456 O.2       12 UNK        -0.5000 
     74 N          -2.2550  -24.4040  -44.2174 N.am      13 UNK        -0.5000 
     75 CA         -1.7542  -25.7757  -44.3297 C.3       13 UNK         0.1400 
     76 CB         -0.3348  -25.8549  -43.7474 C.3       13 UNK        -0.1800 
     77 C          -1.7757  -26.3120  -45.7716 C.2       13 UNK         0.5000 
     78 O          -2.1456  -27.4673  -45.9844 O.2       13 UNK        -0.5000 
     79 N          -1.4005  -25.4611  -46.7356 N.am      14 UNK        -0.5000 
     80 CA         -1.4175  -25.7760  -48.1646 C.3       14 UNK         0.1400 
     81 CB         -0.4623  -24.8175  -48.8948 C.3       14 UNK        -0.1800 
     82 C          -2.8214  -25.6913  -48.7926 C.2       14 UNK         0.5000 
     83 O          -2.9827  -26.1162  -49.9365 O.2       14 UNK        -0.5000 
     84 N          -3.7855  -25.0892  -48.0780 N.am      15 UNK        -0.5000 
     85 CA         -5.1297  -24.7148  -48.5364 C.3       15 UNK         0.1400 
     86 CB         -5.9955  -25.9689  -48.7754 C.3       15 UNK        -0.1800 
     87 C          -5.0671  -23.7783  -49.7625 C.2       15 UNK         0.5000 
     88 O          -5.7640  -23.9984  -50.7542 O.2       15 UNK        -0.5000 
     89 N          -4.1534  -22.7978  -49.6911 N.am      16 UNK        -0.5000 
     90 CA         -3.7385  -21.8758  -50.7552 C.3       16 UNK         0.1400 
     91 CB         -4.8312  -20.8208  -51.0157 C.3       16 UNK        -0.1800 
     92 C          -3.2670  -22.5933  -52.0395 C.2       16 UNK         0.5000 
     93 O          -3.5097  -22.1096  -53.1433 O.2       16 UNK        -0.5000 
     94 N          -2.6216  -23.7561  -51.8621 N.am      17 UNK        -0.5000 
     95 CA         -2.1685  -24.6954  -52.8946 C.3       17 UNK         0.1400 
     96 CB         -1.1016  -24.0503  -53.8031 C.3       17 UNK        -0.1800 
     97 C          -3.3278  -25.3335  -53.6927 C.2       17 UNK         0.5000 
     98 O          -3.1184  -25.7663  -54.8272 O.2       17 UNK        -0.5000 
     99 N          -4.5242  -25.3833  -53.0842 N.am      18 UNK        -0.5000 
    100 CA        -5.7898  -25.8754  -53.6374 C.3       18 UNK         0.1400 
    101 CB        -5.7287  -27.3977  -53.8820 C.3       18 UNK        -0.1800 
    102 C         -6.2578  -25.0760  -54.8730 C.2       18 UNK         0.5000 
    103 O         -6.8458  -25.6461  -55.7945 O.2       18 UNK        -0.5000 
    104 N         -5.9897  -23.7660  -54.8687 N.am      19 UNK        -0.5000 
    105 CA        -6.3348  -22.8222  -55.9242 C.3       19 UNK         0.1400 
    106 CB        -5.1758  -22.7500  -56.9342 C.3       19 UNK        -0.1800 
    107 C         -6.6170  -21.4491  -55.2995 C.2       19 UNK         0.5000 
    108 O         -6.3050  -21.2241  -54.1282 O.2       19 UNK        -0.5000 
    109 N         -7.1959  -20.5421  -56.0939 N.am      20 UNK        -0.5000 
    110 CA        -7.4233  -19.1491  -55.7161 C.3       20 UNK         0.1400 
    111 CB        -8.3917  -18.5041  -56.7214 C.3       20 UNK        -0.1800 
    112 C         -6.0828  -18.3952  -55.6558 C.2       20 UNK         0.5000 
    113 O         -5.5016  -18.1147  -56.7070 O.2       20 UNK        -0.5000 
    114 N         -5.6003  -18.1331  -54.4310 N.am      21 UNK        -0.5000 
    115 CA        -4.3487  -17.4332  -54.1069 C.3       21 UNK         0.1400 
    116 CB        -4.5068  -15.9267  -54.3982 C.3       21 UNK        -0.1800 
    117 C         -3.1153  -18.0562  -54.7990 C.2       21 UNK         0.5000 
    118 O         -2.3099  -17.3359  -55.3890 O.2       21 UNK        -0.5000 
    119 N         -3.0535  -19.3945  -54.7638 N.am      22 UNK        -0.5000 
    120 CA        -2.0880  -20.2708  -55.4477 C.3       22 UNK         0.1400 
    121 C         -2.0179  -20.1614  -57.0033 C.2       22 UNK         0.5000 
    122 N         -2.9640  -19.5108  -57.6720 N.am      22 UNK        -0.7600 
    123 O         -1.1223  -20.7252  -57.6263 O.2       22 UNK        -0.5000 
    124 C124       -0.7137  -20.3805  -54.7225 C.3       23 UNK        -0.0398 
    125 S125        0.4765  -19.0230  -55.0054 S.3       23 UNK        -0.2404 
    126 C126        1.0573  -18.6609  -53.3163 C.3       23 UNK        -0.0205 
    127 H127        3.8246  -11.1715  -48.0237 H         1 UNK         0.0600 
    128 H128        3.3620  -11.2561  -49.7244 H         1 UNK         0.0600 
    129 H129        4.4274  -12.4845  -49.0374 H         1 UNK         0.0600 
    130 H130        1.3235  -11.9956  -50.0148 H         1 UNK         0.3000 
    131 H131        0.2482  -14.4224  -49.2960 H         1 UNK         0.0600 
    132 H132       -1.9204  -13.4417  -50.1242 H         1 UNK         0.0800 
    133 H133       -1.2140  -11.8530  -50.1028 H         1 UNK         0.0800 
    134 H134       -2.5027  -14.0933  -52.3309 H         1 UNK         0.0800 
    135 H135       -1.4300  -14.3014  -53.6878 H         1 UNK         0.0800 
    136 H136        0.2391  -16.1095  -53.7555 H         1 UNK         0.1150 
    137 H137       -0.3437  -19.4092  -51.0832 H         1 UNK         0.1150 
    138 H138       -2.4633  -15.7383  -50.4478 H         1 UNK         0.1150 
    139 H139       -2.4098  -19.2607  -49.6055 H         1 UNK         0.0800 
    140 H140       -3.0451  -17.6971  -49.1601 H         1 UNK         0.0800 
    141 H141       -3.0324  -19.1555  -47.0891 H         1 UNK         0.0800 
    142 H142       -1.9420  -18.7326  -45.8040 H         1 UNK         0.0800 
    143 H143       -1.2194  -20.9893  -47.7253 H         1 UNK         0.0600 
    144 H144        0.0682  -19.9669  -45.4386 H         1 UNK         0.3000 
    145 H145        1.8167  -22.9704  -44.4739 H         1 UNK         0.0600 
    146 H146        3.6583  -21.3242  -44.6061 H         1 UNK         0.0600 
    147 H147        3.1263  -21.7727  -46.2193 H         1 UNK         0.0600 
    148 H148        2.6501  -20.2227  -45.5408 H         1 UNK         0.0600 
    149 H149        1.7115  -20.4412  -43.2041 H         1 UNK         0.3000 
    150 H150       -1.0957  -21.1463  -41.0532 H         1 UNK         0.0600 
    151 H151        0.9558  -22.1275  -40.0082 H         1 UNK         0.0600 
    152 H152        0.6036  -20.5276  -39.3742 H         1 UNK         0.0600 
    153 H153        1.8993  -20.7443  -40.5489 H         1 UNK         0.0600 
    154 H154        0.4926  -18.8162  -41.2747 H         1 UNK         0.3000 
    155 H155       -1.4177  -17.1806  -43.8508 H         1 UNK         0.0600 
    156 H156       -2.4980  -16.6868  -41.6725 H         1 UNK         0.0600 
    157 H157       -1.3219  -15.4397  -42.0649 H         1 UNK         0.0600 
    158 H158       -0.9340  -16.6712  -40.8674 H         1 UNK         0.0600 
    159 H159        0.9585  -16.3829  -42.5233 H         1 UNK         0.3000 
    160 H160        3.3088  -17.8882  -44.7709 H         1 UNK         0.0600 
    161 H161        2.4576  -14.9891  -44.2458 H         1 UNK         0.0600 
    162 H162        2.5942  -15.7558  -45.8199 H         1 UNK         0.0600 
    163 H163        4.0311  -15.5086  -44.8422 H         1 UNK         0.0600 
    164 H164        3.4975  -16.2846  -42.3725 H         1 UNK         0.3000 
    165 H165        3.8470  -19.0259  -40.1138 H         1 UNK         0.0600 
    166 H166        5.9863  -17.8676  -39.6448 H         1 UNK         0.0600 
    167 H167        6.1003  -18.7496  -41.1593 H         1 UNK         0.0600 
    168 H168        5.8915  -17.0024  -41.1789 H         1 UNK         0.0600 
    169 H169        4.0172  -16.1873  -39.7766 H         1 UNK         0.3000 
    170 H170        0.5570  -15.5906  -39.1810 H         1 UNK         0.0600 
    171 H171        1.4303  -16.5015  -37.0208 H         1 UNK         0.0600 
    172 H172        2.9421  -15.6320  -37.2555 H         1 UNK         0.0600 
    173 H173        1.4339  -14.7456  -37.0286 H         1 UNK         0.0600 
    174 H174        2.7141  -13.8141  -38.9777 H         1 UNK         0.3000 
    175 H175        2.5929  -12.0341  -40.6037 H         1 UNK         0.0600 
    176 H176        4.6214  -13.7883  -42.1289 H         1 UNK         0.0600 
    177 H177        4.8459  -12.0834  -41.7458 H         1 UNK         0.0600 
    178 H178        4.7764  -13.2693  -40.4533 H         1 UNK         0.0600 
    179 H179        2.0322  -13.2316  -43.2155 H         1 UNK         0.3000 
    180 H180        0.5585  -10.3999  -44.3943 H         1 UNK         0.0600 
    181 H181        3.2636  -11.1724  -45.6042 H         1 UNK         0.0600 
    182 H182        2.7930   -9.5492  -45.1145 H         1 UNK         0.0600 
    183 H183        1.9518  -10.3346  -46.4396 H         1 UNK         0.0600 
    184 H184        1.4026  -12.7635  -45.7932 H         1 UNK         0.3000 
    185 H185       -0.1070  -15.0495  -44.9768 H         1 UNK         0.0600 
    186 H186       -2.4369  -14.7131  -44.2191 H         1 UNK         0.0600 
    187 H187       -2.8012  -13.7637  -45.6525 H         1 UNK         0.0600 
    188 H188       -2.4181  -15.4791  -45.7983 H         1 UNK         0.0600 
    189 H189        0.3809  -14.8799  -47.1179 H         1 UNK         0.3000 
    190 H190       -2.3305  -21.0412  -44.3016 H         1 UNK         0.3000 
    191 H191       -4.7984  -22.3441  -44.7945 H         1 UNK         0.0600 
    192 H192       -3.0640  -22.2954  -42.2694 H         1 UNK         0.0600 
    193 H193       -4.3092  -21.1262  -42.6996 H         1 UNK         0.0600 
    194 H194       -4.7515  -22.7881  -42.3379 H         1 UNK         0.0600 
    195 H195       -1.5932  -23.7104  -43.8750 H         1 UNK         0.3000 
    196 H196       -2.4028  -26.4166  -43.7290 H         1 UNK         0.0600 
    197 H197        0.0616  -26.8687  -43.8154 H         1 UNK         0.0600 
    198 H198       -0.3252  -25.5723  -42.6946 H         1 UNK         0.0600 
    199 H199        0.3535  -25.1949  -44.2769 H         1 UNK         0.0600 
    200 H200       -1.0545  -24.5401  -46.4774 H         1 UNK         0.3000 
    201 H201       -1.0528  -26.7953  -48.3071 H         1 UNK         0.0600 
    202 H202       -0.3932  -25.0606  -49.9558 H         1 UNK         0.0600 
    203 H203        0.5458  -24.8778  -48.4841 H         1 UNK         0.0600 
    204 H204       -0.7939  -23.7813  -48.8141 H         1 UNK         0.0600 
    205 H205       -3.5373  -24.7509  -47.1575 H         1 UNK         0.3000 
    206 H206       -5.5854  -24.1407  -47.7283 H         1 UNK         0.0600 
    207 H207       -6.0205  -26.6030  -47.8892 H         1 UNK         0.0600 
    208 H208       -7.0248  -25.6930  -49.0070 H         1 UNK         0.0600 
    209 H209       -5.6237  -26.5688  -49.6067 H         1 UNK         0.0600 
    210 H210       -3.6744  -22.6851  -48.7988 H         1 UNK         0.3000 
    211 H211       -2.8585  -21.3580  -50.3755 H         1 UNK         0.0600 
    212 H212       -5.0969  -20.2947  -50.0989 H         1 UNK         0.0600 
    213 H213       -4.4934  -20.0718  -51.7329 H         1 UNK         0.0600 
    214 H214       -5.7378  -21.2741  -51.4175 H         1 UNK         0.0600 
    215 H215       -2.5391  -24.1032  -50.9166 H         1 UNK         0.3000 
    216 H216       -1.6878  -25.5157  -52.3601 H         1 UNK         0.0600 
    217 H217       -0.6092  -24.8029  -54.4197 H         1 UNK         0.0600 
    218 H218       -1.5405  -23.3173  -54.4789 H         1 UNK         0.0600 
    219 H219       -0.3280  -23.5528  -53.2183 H         1 UNK         0.0600 
    220 H220       -4.6042  -24.9699  -52.1614 H         1 UNK         0.3000 
    221 H221       -6.5416  -25.7001  -52.8667 H         1 UNK         0.0600 
    222 H222       -5.0427  -27.6523  -54.6902 H         1 UNK         0.0600 
    223 H223       -5.4042  -27.9273  -52.9862 H         1 UNK         0.0600 
    224 H224       -6.7100  -27.7897  -54.1515 H         1 UNK         0.0600 
    225 H225       -5.5408  -23.3448  -54.0628 H         1 UNK         0.3000 
    226 H226       -7.2444  -23.1492  -56.4323 H         1 UNK         0.0600 
    227 H227       -5.0089  -23.7164  -57.4103 H         1 UNK         0.0600 
    228 H228       -5.3791  -22.0290  -57.7267 H         1 UNK         0.0600 
    229 H229       -4.2450  -22.4546  -56.4506 H         1 UNK         0.0600 
    230 H230       -7.4013  -20.7851  -57.0521 H         1 UNK         0.3000 
    231 H231       -7.8948  -19.1218  -54.7312 H         1 UNK         0.0600 
    232 H232       -8.5729  -17.4583  -56.4702 H         1 UNK         0.0600 
    233 H233       -9.3570  -19.0107  -56.7186 H         1 UNK         0.0600 
    234 H234       -8.0008  -18.5341  -57.7393 H         1 UNK         0.0600 
    235 H235       -6.1243  -18.4755  -53.6374 H         1 UNK         0.3000 
    236 H236       -4.1869  -17.5495  -53.0341 H         1 UNK         0.0600 
    237 H237       -5.3435  -15.5032  -53.8428 H         1 UNK         0.0600 
    238 H238       -3.6142  -15.3755  -54.1087 H         1 UNK         0.0600 
    239 H239       -4.6761  -15.7357  -55.4583 H         1 UNK         0.0600 
    240 H240       -3.7848  -19.8909  -54.2710 H         1 UNK         0.3000 
    241 H241       -2.5390  -21.2537  -55.3267 H         1 UNK         0.0600 
    242 H242       -2.9112  -19.4649  -58.6768 H         1 UNK         0.3800 
    243 H243       -3.7138  -19.0275  -57.1901 H         1 UNK         0.3800 
    244 H244       -0.8844  -20.4982  -53.6518 H         1 UNK         0.0800 
    245 H245       -0.2173  -21.3002  -55.0344 H         1 UNK         0.0800 
    246 H246        1.3077  -19.5937  -52.8086 H         1 UNK         0.0800 
    247 H247        1.9868  -18.0940  -53.3833 H         1 UNK         0.0800 
@<TRIPOS>BOND
     1    1    2 1    
     2    1  127 1    
     3    1  128 1    
     4    1  129 1    
     5    2    3 2    
     6    2    4 am   BACKBONE|DICT|INTERRES
     7    4    5 1    
     8    4  130 1    
     9    5    6 1    
    10    5   65 1    
    11    5  131 1    
    12    6    7 1    
    13    6  132 1    
    14    6  133 1    
    15    7    8 1    
    16    8    9 1    
    17    8  134 1    
    18    8  135 1    
    19    9   10 ar   
    20    9   14 ar   
    21   10   11 ar   
    22   10  136 1    
    23   11   12 ar   
    24   11  126 1    
    25   12   13 ar   
    26   12  137 1    
    27   13   14 ar   
    28   13   15 1    
    29   14  138 1    
    30   15   16 1    
    31   15  139 1    
    32   15  140 1    
    33   16   17 1    
    34   17   18 1    
    35   17  141 1    
    36   17  142 1    
    37   18   19 1    
    38   18   67 1    
    39   18  143 1    
    40   19   20 am   BACKBONE|DICT|INTERRES
    41   19  144 1    
    42   20   21 2    
    43   20   22 1    
    44   22   23 1    
    45   22   24 1    
    46   22  145 1    
    47   23  146 1    
    48   23  147 1    
    49   23  148 1    
    50   24   25 am   BACKBONE|DICT|INTERRES
    51   24  149 1    
    52   25   26 2    
    53   25   27 1    
    54   27   28 1    
    55   27   29 1    
    56   27  150 1    
    57   28  151 1    
    58   28  152 1    
    59   28  153 1    
    60   29   30 am   BACKBONE|DICT|INTERRES
    61   29  154 1    
    62   30   31 2    
    63   30   32 1    
    64   32   33 1    
    65   32   34 1    
    66   32  155 1    
    67   33  156 1    
    68   33  157 1    
    69   33  158 1    
    70   34   35 am   BACKBONE|DICT|INTERRES
    71   34  159 1    
    72   35   36 2    
    73   35   37 1    
    74   37   38 1    
    75   37   39 1    
    76   37  160 1    
    77   38  161 1    
    78   38  162 1    
    79   38  163 1    
    80   39   40 am   BACKBONE|DICT|INTERRES
    81   39  164 1    
    82   40   41 2    
    83   40   42 1    
    84   42   43 1    
    85   42   44 1    
    86   42  165 1    
    87   43  166 1    
    88   43  167 1    
    89   43  168 1    
    90   44   45 am   BACKBONE|DICT|INTERRES
    91   44  169 1    
    92   45   46 2    
    93   45   47 1    
    94   47   48 1    
    95   47   49 1    
    96   47  170 1    
    97   48  171 1    
    98   48  172 1    
    99   48  173 1    
   100   49   50 am   BACKBONE|DICT|INTERRES
   101   49  174 1    
   102   50   51 2    
   103   50   52 1    
   104   52   53 1    
   105   52   54 1    
   106   52  175 1    
   107   53  176 1    
   108   53  177 1    
   109   53  178 1    
   110   54   55 am   BACKBONE|DICT|INTERRES
   111   54  179 1    
   112   55   56 2    
   113   55   57 1    
   114   57   58 1    
   115   57   59 1    
   116   57  180 1    
   117   58  181 1    
   118   58  182 1    
   119   58  183 1    
   120   59   60 am   BACKBONE|DICT|INTERRES
   121   59  184 1    
   122   60   61 2    
   123   60   62 1    
   124   62   63 1    
   125   62   64 1    
   126   62  185 1    
   127   63  186 1    
   128   63  187 1    
   129   63  188 1    
   130   64   65 am   BACKBONE|DICT|INTERRES
   131   64  189 1    
   132   65   66 2    
   133   67   68 2    
   134   67   69 am   BACKBONE|DICT|INTERRES
   135   69   70 1    
   136   69  190 1    
   137   70   71 1    
   138   70   72 1    
   139   70  191 1    
   140   71  192 1    
   141   71  193 1    
   142   71  194 1    
   143   72   73 2    
   144   72   74 am   BACKBONE|DICT|INTERRES
   145   74   75 1    
   146   74  195 1    
   147   75   76 1    
   148   75   77 1    
   149   75  196 1    
   150   76  197 1    
   151   76  198 1    
   152   76  199 1    
   153   77   78 2    
   154   77   79 am   BACKBONE|DICT|INTERRES
   155   79   80 1    
   156   79  200 1    
   157   80   81 1    
   158   80   82 1    
   159   80  201 1    
   160   81  202 1    
   161   81  203 1    
   162   81  204 1    
   163   82   83 2    
   164   82   84 am   BACKBONE|DICT|INTERRES
   165   84   85 1    
   166   84  205 1    
   167   85   86 1    
   168   85   87 1    
   169   85  206 1    
   170   86  207 1    
   171   86  208 1    
   172   86  209 1    
   173   87   88 2    
   174   87   89 am   BACKBONE|DICT|INTERRES
   175   89   90 1    
   176   89  210 1    
   177   90   91 1    
   178   90   92 1    
   179   90  211 1    
   180   91  212 1    
   181   91  213 1    
   182   91  214 1    
   183   92   93 2    
   184   92   94 am   BACKBONE|DICT|INTERRES
   185   94   95 1    
   186   94  215 1    
   187   95   96 1    
   188   95   97 1    
   189   95  216 1    
   190   96  217 1    
   191   96  218 1    
   192   96  219 1    
   193   97   98 2    
   194   97   99 am   BACKBONE|DICT|INTERRES
   195   99  100 1    
   196   99  220 1    
   197  100  101 1    
   198  100  102 1    
   199  100  221 1    
   200  101  222 1    
   201  101  223 1    
   202  101  224 1    
   203  102  103 2    
   204  102  104 am   BACKBONE|DICT|INTERRES
   205  104  105 1    
   206  104  225 1    
   207  105  106 1    
   208  105  107 1    
   209  105  226 1    
   210  106  227 1    
   211  106  228 1    
   212  106  229 1    
   213  107  108 2    
   214  107  109 am   BACKBONE|DICT|INTERRES
   215  109  110 1    
   216  109  230 1    
   217  110  111 1    
   218  110  112 1    
   219  110  231 1    
   220  111  232 1    
   221  111  233 1    
   222  111  234 1    
   223  112  113 2    
   224  112  114 am   BACKBONE|DICT|INTERRES
   225  114  115 1    
   226  114  235 1    
   227  115  116 1    
   228  115  117 1    
   229  115  236 1    
   230  116  237 1    
   231  116  238 1    
   232  116  239 1    
   233  117  118 2    
   234  117  119 am   BACKBONE|DICT|INTERRES
   235  119  120 1    
   236  119  240 1    
   237  120  121 1    
   238  120  124 1    
   239  120  241 1    
   240  121  122 am   BACKBONE|DICT|INTERRES
   241  121  123 2    
   242  122  242 1    
   243  122  243 1    
   244  124  125 1    
   245  124  244 1    
   246  124  245 1    
   247  125  126 1    
   248  126  246 1    
   249  126  247 1    
@<TRIPOS>SUBSTRUCTURE
     1 UNK         1 GROUP             0       ****    0 ROOT    
