@<TRIPOS>MOLECULE
3R540
247   249    1
SMALL
USER_CHARGES


@<TRIPOS>ATOM
      1 CA          2.3753  -14.3925  -46.7837 C.3       0 UNK        -0.1800 
      2 C           1.8496  -14.1303  -48.1877 C.2       0 UNK         0.5000 
      3 O           1.6212  -12.9769  -48.5518 O.2       0 UNK        -0.5000 
      4 N           1.6493  -15.1993  -48.9689 N.am      1 UNK        -0.5000 
      5 CA          1.2433  -15.2425  -50.3861 C.3       1 UNK         0.1400 
      6 C6          2.2042  -14.5089  -51.3641 C.3       23 UNK        -0.0398 
      7 S7          3.9774  -14.8635  -51.0699 S.3       23 UNK        -0.2404 
      8 C8          4.2850  -16.3395  -52.0988 C.3       23 UNK        -0.0205 
      9 C9          3.4053  -17.5260  -51.7233 C.ar      23 UNK        -0.0193 
     10 C10         2.6610  -18.1789  -52.7110 C.ar      23 UNK        -0.1150 
     11 C11         1.8198  -19.2438  -52.3788 C.ar      23 UNK        -0.0193 
     12 C12         1.7008  -19.6315  -51.0426 C.ar      23 UNK        -0.1150 
     13 C13         2.4359  -18.9897  -50.0447 C.ar      23 UNK        -0.0193 
     14 C14         3.3145  -17.9606  -50.3946 C.ar      23 UNK        -0.1150 
     15 C15         2.2441  -19.3860  -48.5905 C.3       23 UNK        -0.0205 
     16 S16         3.3773  -20.7160  -48.1004 S.3       23 UNK        -0.2404 
     17 C17         2.8100  -21.0297  -46.3950 C.3       23 UNK        -0.0398 
     18 CA          2.0583  -22.3770  -46.2585 C.3       11 UNK         0.1400 
     19 N           2.1640  -22.9239  -44.9048 N.am      11 UNK        -0.5000 
     20 C           1.8364  -24.1786  -44.5637 C.2       10 UNK         0.5000 
     21 O           1.4363  -25.0254  -45.3625 O.2       10 UNK        -0.5000 
     22 CA          1.9246  -24.5221  -43.0660 C.3       10 UNK         0.1400 
     23 CB          3.3530  -24.9396  -42.6878 C.3       10 UNK        -0.1800 
     24 N           1.5022  -23.4109  -42.2111 N.am      10 UNK        -0.5000 
     25 C           0.2667  -22.8982  -42.1768 C.2       9 UNK         0.5000 
     26 O          -0.6617  -23.3193  -42.8648 O.2       9 UNK        -0.5000 
     27 CA          0.0339  -21.6828  -41.2668 C.3       9 UNK         0.1400 
     28 CB         -0.0200  -22.0839  -39.7812 C.3       9 UNK        -0.1800 
     29 N           0.9736  -20.5826  -41.5033 N.am      9 UNK        -0.5000 
     30 C           2.2843  -20.4998  -41.2313 C.2       8 UNK         0.5000 
     31 O           2.9588  -21.4268  -40.7818 O.2       8 UNK        -0.5000 
     32 CA          2.9478  -19.1380  -41.5081 C.3       8 UNK         0.1400 
     33 CB          3.5013  -19.0846  -42.9412 C.3       8 UNK        -0.1800 
     34 N           2.0066  -18.0336  -41.3035 N.am      8 UNK        -0.5000 
     35 C           1.6641  -17.5477  -40.1004 C.2       7 UNK         0.5000 
     36 O           2.2056  -17.8864  -39.0474 O.2       7 UNK        -0.5000 
     37 CA          0.5050  -16.5326  -40.0614 C.3       7 UNK         0.1400 
     38 CB          1.0348  -15.1011  -40.2314 C.3       7 UNK        -0.1800 
     39 N          -0.5104  -16.8064  -41.0814 N.am      7 UNK        -0.5000 
     40 C          -1.3699  -17.8375  -41.0291 C.2       6 UNK         0.5000 
     41 O          -1.4512  -18.6024  -40.0685 O.2       6 UNK        -0.5000 
     42 CA         -2.2696  -18.0915  -42.2579 C.3       6 UNK         0.1400 
     43 CB         -3.6803  -17.5362  -42.0167 C.3       6 UNK        -0.1800 
     44 N          -1.7454  -17.5326  -43.5047 N.am      6 UNK        -0.5000 
     45 C          -0.5825  -17.8762  -44.0783 C.2       5 UNK         0.5000 
     46 O           0.1305  -18.7895  -43.6609 O.2       5 UNK        -0.5000 
     47 CA         -0.1114  -17.0429  -45.2883 C.3       5 UNK         0.1400 
     48 CB         -0.4161  -17.7980  -46.5907 C.3       5 UNK        -0.1800 
     49 N          -0.6991  -15.6999  -45.3604 N.am      5 UNK        -0.5000 
     50 C          -0.6552  -14.7716  -44.3886 C.2       4 UNK         0.5000 
     51 O           0.0014  -14.9106  -43.3570 O.2       4 UNK        -0.5000 
     52 CA         -1.5327  -13.5103  -44.5471 C.3       4 UNK         0.1400 
     53 CB         -0.6678  -12.3040  -44.9426 C.3       4 UNK        -0.1800 
     54 N          -2.6189  -13.6441  -45.5196 N.am      4 UNK        -0.5000 
     55 C          -3.5890  -14.5715  -45.5237 C.2       3 UNK         0.5000 
     56 O          -3.7711  -15.3698  -44.6038 O.2       3 UNK        -0.5000 
     57 CA         -4.4456  -14.6703  -46.8079 C.3       3 UNK         0.1400 
     58 CB         -5.8310  -14.0476  -46.5818 C.3       3 UNK        -0.1800 
     59 N          -3.8313  -14.0533  -47.9948 N.am      3 UNK        -0.5000 
     60 C          -2.6410  -14.3940  -48.5114 C.2       2 UNK         0.5000 
     61 O          -1.9430  -15.2944  -48.0378 O.2       2 UNK        -0.5000 
     62 CA         -2.1193  -13.5418  -49.6904 C.3       2 UNK         0.1400 
     63 CB         -2.2651  -12.0331  -49.4200 C.3       2 UNK        -0.1800 
     64 N          -0.7072  -13.8266  -49.9213 N.am      2 UNK        -0.5000 
     65 C          -0.2306  -14.8577  -50.6231 C.2       1 UNK         0.5000 
     66 O          -0.9175  -15.5336  -51.3891 O.2       1 UNK        -0.5000 
     67 C           0.5847  -22.2782  -46.7062 C.2       11 UNK         0.5000 
     68 O           0.2597  -22.6942  -47.8172 O.2       11 UNK        -0.5000 
     69 N          -0.2921  -21.7926  -45.8127 N.am      12 UNK        -0.5000 
     70 CA         -1.7398  -21.7487  -46.0291 C.3       12 UNK         0.1400 
     71 CB         -2.4227  -20.9344  -44.9212 C.3       12 UNK        -0.1800 
     72 C          -2.3735  -23.1444  -46.1436 C.2       12 UNK         0.5000 
     73 O          -3.2366  -23.3375  -46.9968 O.2       12 UNK        -0.5000 
     74 N          -1.9282  -24.0960  -45.3135 N.am      13 UNK        -0.5000 
     75 CA         -2.3710  -25.4907  -45.3542 C.3       13 UNK         0.1400 
     76 CB         -1.7894  -26.2537  -44.1546 C.3       13 UNK        -0.1800 
     77 C          -2.0101  -26.1894  -46.6788 C.2       13 UNK         0.5000 
     78 O          -2.8371  -26.9212  -47.2236 O.2       13 UNK        -0.5000 
     79 N          -0.7975  -25.9271  -47.1847 N.am      14 UNK        -0.5000 
     80 CA         -0.3059  -26.4419  -48.4611 C.3       14 UNK         0.1400 
     81 CB          1.2151  -26.2367  -48.5372 C.3       14 UNK        -0.1800 
     82 C          -1.0009  -25.7992  -49.6762 C.2       14 UNK         0.5000 
     83 O          -1.3649  -26.5112  -50.6127 O.2       14 UNK        -0.5000 
     84 N          -1.1616  -24.4700  -49.6464 N.am      15 UNK        -0.5000 
     85 CA         -1.6402  -23.6655  -50.7733 C.3       15 UNK         0.1400 
     86 CB         -0.8609  -22.3444  -50.7881 C.3       15 UNK        -0.1800 
     87 C          -3.1579  -23.4040  -50.7678 C.2       15 UNK         0.5000 
     88 O          -3.6193  -22.6058  -51.5825 O.2       15 UNK        -0.5000 
     89 N          -3.9041  -24.0443  -49.8560 N.am      16 UNK        -0.5000 
     90 CA         -5.3580  -23.9349  -49.6699 C.3       16 UNK         0.1400 
     91 CB         -6.1078  -24.5631  -50.8632 C.3       16 UNK        -0.1800 
     92 C          -5.8044  -22.4881  -49.3641 C.2       16 UNK         0.5000 
     93 O          -6.6610  -21.9346  -50.0534 O.2       16 UNK        -0.5000 
     94 N          -5.1679  -21.9089  -48.3380 N.am      17 UNK        -0.5000 
     95 CA         -5.2749  -20.5346  -47.8314 C.3       17 UNK         0.1400 
     96 CB         -6.7346  -20.1306  -47.5387 C.3       17 UNK        -0.1800 
     97 C          -4.5319  -19.4837  -48.6814 C.2       17 UNK         0.5000 
     98 O          -4.5513  -18.3075  -48.3165 O.2       17 UNK        -0.5000 
     99 N          -3.8597  -19.9209  -49.7573 N.am      18 UNK        -0.5000 
    100 CA        -3.0965  -19.1116  -50.7105 C.3       18 UNK         0.1400 
    101 CB        -1.8380  -18.5197  -50.0362 C.3       18 UNK        -0.1800 
    102 C         -3.9884  -18.0749  -51.4313 C.2       18 UNK         0.5000 
    103 O         -5.1493  -18.3785  -51.7189 O.2       18 UNK        -0.5000 
    104 N         -3.4475  -16.8879  -51.7446 N.am      19 UNK        -0.5000 
    105 CA        -4.1051  -15.8014  -52.4760 C.3       19 UNK         0.1400 
    106 CB        -5.2157  -15.1613  -51.6091 C.3       19 UNK        -0.1800 
    107 C         -4.5815  -16.2806  -53.8629 C.2       19 UNK         0.5000 
    108 O         -3.7652  -16.7734  -54.6436 O.2       19 UNK        -0.5000 
    109 N         -5.8891  -16.1858  -54.1346 N.am      20 UNK        -0.5000 
    110 CA        -6.5363  -16.6420  -55.3669 C.3       20 UNK         0.1400 
    111 CB        -8.0144  -16.2234  -55.3311 C.3       20 UNK        -0.1800 
    112 C         -6.4107  -18.1571  -55.6370 C.2       20 UNK         0.5000 
    113 O         -6.5860  -18.5731  -56.7830 O.2       20 UNK        -0.5000 
    114 N         -6.1025  -18.9545  -54.6028 N.am      21 UNK        -0.5000 
    115 CA        -5.8827  -20.3958  -54.7176 C.3       21 UNK         0.1400 
    116 CB        -6.0924  -21.0578  -53.3479 C.3       21 UNK        -0.1800 
    117 C         -4.5024  -20.7676  -55.2968 C.2       21 UNK         0.5000 
    118 O         -4.3270  -21.9253  -55.6814 O.2       21 UNK        -0.5000 
    119 N         -3.5541  -19.8195  -55.3669 N.am      22 UNK        -0.5000 
    120 CA        -2.2083  -20.0641  -55.9151 C.3       22 UNK         0.1400 
    121 C         -1.5830  -18.8920  -56.7234 C.2       22 UNK         0.5000 
    122 N         -2.0914  -17.6689  -56.6571 N.am      22 UNK        -0.7600 
    123 O         -0.6250  -19.1063  -57.4615 O.2       22 UNK        -0.5000 
    124 C124       -1.2420  -20.6686  -54.8626 C.3       23 UNK        -0.0398 
    125 S125       -0.6779  -19.4978  -53.5755 S.3       23 UNK        -0.2404 
    126 C126        1.0668  -19.9985  -53.4623 C.3       23 UNK        -0.0205 
    127 H127        2.4419  -15.4591  -46.5673 H         1 UNK         0.0600 
    128 H128        1.7220  -13.9343  -46.0424 H         1 UNK         0.0600 
    129 H129        3.3702  -13.9607  -46.6723 H         1 UNK         0.0600 
    130 H130        1.8336  -16.1086  -48.5745 H         1 UNK         0.3000 
    131 H131        1.2702  -16.2991  -50.6418 H         1 UNK         0.0600 
    132 H132        1.9597  -14.7631  -52.3969 H         1 UNK         0.0800 
    133 H133        2.0715  -13.4291  -51.2796 H         1 UNK         0.0800 
    134 H134        4.1476  -16.0687  -53.1468 H         1 UNK         0.0800 
    135 H135        5.3301  -16.6318  -51.9905 H         1 UNK         0.0800 
    136 H136        2.7384  -17.8622  -53.7417 H         1 UNK         0.1150 
    137 H137        1.0331  -20.4341  -50.7754 H         1 UNK         0.1150 
    138 H138        3.8892  -17.4617  -49.6270 H         1 UNK         0.1150 
    139 H139        2.3970  -18.5221  -47.9422 H         1 UNK         0.0800 
    140 H140        1.2155  -19.7156  -48.4368 H         1 UNK         0.0800 
    141 H141        2.2158  -20.1937  -46.0211 H         1 UNK         0.0800 
    142 H142        3.7102  -21.0459  -45.7788 H         1 UNK         0.0800 
    143 H143        2.5436  -23.1012  -46.9173 H         1 UNK         0.0600 
    144 H144        2.4763  -22.2986  -44.1777 H         1 UNK         0.3000 
    145 H145        1.2583  -25.3660  -42.8771 H         1 UNK         0.0600 
    146 H146        3.4065  -25.2593  -41.6470 H         1 UNK         0.0600 
    147 H147        3.6914  -25.7752  -43.3020 H         1 UNK         0.0600 
    148 H148        4.0620  -24.1220  -42.8238 H         1 UNK         0.0600 
    149 H149        2.2092  -22.9681  -41.6304 H         1 UNK         0.3000 
    150 H150       -0.9481  -21.2839  -41.5258 H         1 UNK         0.0600 
    151 H151       -0.7984  -22.8280  -39.6090 H         1 UNK         0.0600 
    152 H152       -0.2485  -21.2230  -39.1524 H         1 UNK         0.0600 
    153 H153        0.9207  -22.5121  -39.4345 H         1 UNK         0.0600 
    154 H154        0.5693  -19.7853  -41.9823 H         1 UNK         0.3000 
    155 H155        3.7855  -19.0253  -40.8165 H         1 UNK         0.0600 
    156 H156        2.7173  -19.2080  -43.6877 H         1 UNK         0.0600 
    157 H157        4.2351  -19.8749  -43.1043 H         1 UNK         0.0600 
    158 H158        4.0000  -18.1349  -43.1348 H         1 UNK         0.0600 
    159 H159        1.4941  -17.7205  -42.1158 H         1 UNK         0.3000 
    160 H160        0.0317  -16.6024  -39.0797 H         1 UNK         0.0600 
    161 H161        1.5662  -14.9764  -41.1754 H         1 UNK         0.0600 
    162 H162        1.7293  -14.8464  -39.4300 H         1 UNK         0.0600 
    163 H163        0.2241  -14.3728  -40.2038 H         1 UNK         0.0600 
    164 H164       -0.4940  -16.2110  -41.9035 H         1 UNK         0.3000 
    165 H165       -2.3461  -19.1728  -42.3854 H         1 UNK         0.0600 
    166 H166       -4.3458  -17.7778  -42.8458 H         1 UNK         0.0600 
    167 H167       -4.1199  -17.9594  -41.1127 H         1 UNK         0.0600 
    168 H168       -3.6694  -16.4514  -41.9020 H         1 UNK         0.0600 
    169 H169       -2.2870  -16.7820  -43.9189 H         1 UNK         0.3000 
    170 H170        0.9700  -16.9288  -45.1969 H         1 UNK         0.0600 
    171 H171       -0.0123  -18.8102  -46.5623 H         1 UNK         0.0600 
    172 H172       -1.4903  -17.8807  -46.7631 H         1 UNK         0.0600 
    173 H173        0.0189  -17.2937  -47.4534 H         1 UNK         0.0600 
    174 H174       -1.2437  -15.5029  -46.1956 H         1 UNK         0.3000 
    175 H175       -1.9844  -13.3093  -43.5739 H         1 UNK         0.0600 
    176 H176       -0.2426  -12.4232  -45.9400 H         1 UNK         0.0600 
    177 H177       -1.2500  -11.3824  -44.9352 H         1 UNK         0.0600 
    178 H178        0.1603  -12.1680  -44.2456 H         1 UNK         0.0600 
    179 H179       -2.5639  -13.0387  -46.3242 H         1 UNK         0.3000 
    180 H180       -4.5776  -15.7330  -47.0225 H         1 UNK         0.0600 
    181 H181       -5.7639  -12.9757  -46.3918 H         1 UNK         0.0600 
    182 H182       -6.3290  -14.5030  -45.7247 H         1 UNK         0.0600 
    183 H183       -6.4768  -14.1974  -47.4472 H         1 UNK         0.0600 
    184 H184       -4.3485  -13.2966  -48.4180 H         1 UNK         0.3000 
    185 H185       -2.6931  -13.7956  -50.5821 H         1 UNK         0.0600 
    186 H186       -3.3116  -11.7354  -49.3504 H         1 UNK         0.0600 
    187 H187       -1.7721  -11.7403  -48.4919 H         1 UNK         0.0600 
    188 H188       -1.8239  -11.4475  -50.2271 H         1 UNK         0.0600 
    189 H189       -0.0447  -13.3551  -49.3115 H         1 UNK         0.3000 
    190 H190        0.0395  -21.5005  -44.9057 H         1 UNK         0.3000 
    191 H191       -1.9217  -21.2389  -46.9782 H         1 UNK         0.0600 
    192 H192       -2.2630  -19.8708  -45.0749 H         1 UNK         0.0600 
    193 H193       -3.5014  -21.0905  -44.9132 H         1 UNK         0.0600 
    194 H194       -2.0512  -21.1980  -43.9319 H         1 UNK         0.0600 
    195 H195       -1.2749  -23.8427  -44.5772 H         1 UNK         0.3000 
    196 H196       -3.4591  -25.4957  -45.2627 H         1 UNK         0.0600 
    197 H197       -2.1400  -27.2864  -44.1423 H         1 UNK         0.0600 
    198 H198       -2.0911  -25.7960  -43.2123 H         1 UNK         0.0600 
    199 H199       -0.7002  -26.2775  -44.1813 H         1 UNK         0.0600 
    200 H200       -0.1579  -25.3509  -46.6480 H         1 UNK         0.3000 
    201 H201       -0.5027  -27.5156  -48.4937 H         1 UNK         0.0600 
    202 H202        1.7233  -26.7591  -47.7265 H         1 UNK         0.0600 
    203 H203        1.4836  -25.1815  -48.4727 H         1 UNK         0.0600 
    204 H204        1.6161  -26.6222  -49.4753 H         1 UNK         0.0600 
    205 H205       -0.8022  -23.9495  -48.8503 H         1 UNK         0.3000 
    206 H206       -1.4165  -24.1844  -51.7075 H         1 UNK         0.0600 
    207 H207        0.2125  -22.5324  -50.7912 H         1 UNK         0.0600 
    208 H208       -1.0913  -21.7606  -51.6787 H         1 UNK         0.0600 
    209 H209       -1.0959  -21.7283  -49.9197 H         1 UNK         0.0600 
    210 H210       -3.4176  -24.6226  -49.1844 H         1 UNK         0.3000 
    211 H211       -5.5994  -24.5244  -48.7842 H         1 UNK         0.0600 
    212 H212       -5.9298  -24.0164  -51.7894 H         1 UNK         0.0600 
    213 H213       -7.1842  -24.5672  -50.6885 H         1 UNK         0.0600 
    214 H214       -5.8002  -25.5968  -51.0206 H         1 UNK         0.0600 
    215 H215       -4.4659  -22.4784  -47.8630 H         1 UNK         0.3000 
    216 H216       -4.7551  -20.5472  -46.8737 H         1 UNK         0.0600 
    217 H217       -6.7731  -19.1954  -46.9790 H         1 UNK         0.0600 
    218 H218       -7.2435  -20.8868  -46.9412 H         1 UNK         0.0600 
    219 H219       -7.3067  -19.9796  -48.4542 H         1 UNK         0.0600 
    220 H220       -3.9723  -20.8920  -50.0156 H         1 UNK         0.3000 
    221 H221       -2.7648  -19.8080  -51.4807 H         1 UNK         0.0600 
    222 H222       -2.0856  -17.7056  -49.3544 H         1 UNK         0.0600 
    223 H223       -1.3014  -19.2773  -49.4654 H         1 UNK         0.0600 
    224 H224       -1.1396  -18.1329  -50.7782 H         1 UNK         0.0600 
    225 H225       -2.4726  -16.7108  -51.5177 H         1 UNK         0.3000 
    226 H226       -3.3430  -15.0435  -52.6604 H         1 UNK         0.0600 
    227 H227       -4.8289  -14.8531  -50.6396 H         1 UNK         0.0600 
    228 H228       -5.6253  -14.2711  -52.0880 H         1 UNK         0.0600 
    229 H229       -6.0405  -15.8484  -51.4170 H         1 UNK         0.0600 
    230 H230       -6.4968  -15.8046  -53.4244 H         1 UNK         0.3000 
    231 H231       -6.0553  -16.1271  -56.2009 H         1 UNK         0.0600 
    232 H232       -8.5432  -16.6894  -54.4987 H         1 UNK         0.0600 
    233 H233       -8.5265  -16.5144  -56.2493 H         1 UNK         0.0600 
    234 H234       -8.1172  -15.1425  -55.2333 H         1 UNK         0.0600 
    235 H235       -5.9525  -18.5483  -53.6852 H         1 UNK         0.3000 
    236 H236       -6.6363  -20.8029  -55.3951 H         1 UNK         0.0600 
    237 H237       -7.0542  -20.7867  -52.9127 H         1 UNK         0.0600 
    238 H238       -6.0693  -22.1444  -53.4341 H         1 UNK         0.0600 
    239 H239       -5.3128  -20.7787  -52.6401 H         1 UNK         0.0600 
    240 H240       -3.7518  -18.8808  -55.0443 H         1 UNK         0.3000 
    241 H241       -2.3248  -20.8305  -56.6842 H         1 UNK         0.0600 
    242 H242       -2.8015  -17.4126  -55.9742 H         1 UNK         0.3800 
    243 H243       -1.6678  -16.9424  -57.2110 H         1 UNK         0.3800 
    244 H244       -0.3741  -21.0848  -55.3764 H         1 UNK         0.0800 
    245 H245       -1.7148  -21.5159  -54.3641 H         1 UNK         0.0800 
    246 H246        1.5471  -19.8460  -54.4303 H         1 UNK         0.0800 
    247 H247        1.1208  -21.0688  -53.2570 H         1 UNK         0.0800 
@<TRIPOS>BOND
     1    1    2 1    
     2    1  127 1    
     3    1  128 1    
     4    1  129 1    
     5    2    3 2    
     6    2    4 am   BACKBONE|DICT|INTERRES
     7    4    5 1    
     8    4  130 1    
     9    5    6 1    
    10    5   65 1    
    11    5  131 1    
    12    6    7 1    
    13    6  132 1    
    14    6  133 1    
    15    7    8 1    
    16    8    9 1    
    17    8  134 1    
    18    8  135 1    
    19    9   10 ar   
    20    9   14 ar   
    21   10   11 ar   
    22   10  136 1    
    23   11   12 ar   
    24   11  126 1    
    25   12   13 ar   
    26   12  137 1    
    27   13   14 ar   
    28   13   15 1    
    29   14  138 1    
    30   15   16 1    
    31   15  139 1    
    32   15  140 1    
    33   16   17 1    
    34   17   18 1    
    35   17  141 1    
    36   17  142 1    
    37   18   19 1    
    38   18   67 1    
    39   18  143 1    
    40   19   20 am   BACKBONE|DICT|INTERRES
    41   19  144 1    
    42   20   21 2    
    43   20   22 1    
    44   22   23 1    
    45   22   24 1    
    46   22  145 1    
    47   23  146 1    
    48   23  147 1    
    49   23  148 1    
    50   24   25 am   BACKBONE|DICT|INTERRES
    51   24  149 1    
    52   25   26 2    
    53   25   27 1    
    54   27   28 1    
    55   27   29 1    
    56   27  150 1    
    57   28  151 1    
    58   28  152 1    
    59   28  153 1    
    60   29   30 am   BACKBONE|DICT|INTERRES
    61   29  154 1    
    62   30   31 2    
    63   30   32 1    
    64   32   33 1    
    65   32   34 1    
    66   32  155 1    
    67   33  156 1    
    68   33  157 1    
    69   33  158 1    
    70   34   35 am   BACKBONE|DICT|INTERRES
    71   34  159 1    
    72   35   36 2    
    73   35   37 1    
    74   37   38 1    
    75   37   39 1    
    76   37  160 1    
    77   38  161 1    
    78   38  162 1    
    79   38  163 1    
    80   39   40 am   BACKBONE|DICT|INTERRES
    81   39  164 1    
    82   40   41 2    
    83   40   42 1    
    84   42   43 1    
    85   42   44 1    
    86   42  165 1    
    87   43  166 1    
    88   43  167 1    
    89   43  168 1    
    90   44   45 am   BACKBONE|DICT|INTERRES
    91   44  169 1    
    92   45   46 2    
    93   45   47 1    
    94   47   48 1    
    95   47   49 1    
    96   47  170 1    
    97   48  171 1    
    98   48  172 1    
    99   48  173 1    
   100   49   50 am   BACKBONE|DICT|INTERRES
   101   49  174 1    
   102   50   51 2    
   103   50   52 1    
   104   52   53 1    
   105   52   54 1    
   106   52  175 1    
   107   53  176 1    
   108   53  177 1    
   109   53  178 1    
   110   54   55 am   BACKBONE|DICT|INTERRES
   111   54  179 1    
   112   55   56 2    
   113   55   57 1    
   114   57   58 1    
   115   57   59 1    
   116   57  180 1    
   117   58  181 1    
   118   58  182 1    
   119   58  183 1    
   120   59   60 am   BACKBONE|DICT|INTERRES
   121   59  184 1    
   122   60   61 2    
   123   60   62 1    
   124   62   63 1    
   125   62   64 1    
   126   62  185 1    
   127   63  186 1    
   128   63  187 1    
   129   63  188 1    
   130   64   65 am   BACKBONE|DICT|INTERRES
   131   64  189 1    
   132   65   66 2    
   133   67   68 2    
   134   67   69 am   BACKBONE|DICT|INTERRES
   135   69   70 1    
   136   69  190 1    
   137   70   71 1    
   138   70   72 1    
   139   70  191 1    
   140   71  192 1    
   141   71  193 1    
   142   71  194 1    
   143   72   73 2    
   144   72   74 am   BACKBONE|DICT|INTERRES
   145   74   75 1    
   146   74  195 1    
   147   75   76 1    
   148   75   77 1    
   149   75  196 1    
   150   76  197 1    
   151   76  198 1    
   152   76  199 1    
   153   77   78 2    
   154   77   79 am   BACKBONE|DICT|INTERRES
   155   79   80 1    
   156   79  200 1    
   157   80   81 1    
   158   80   82 1    
   159   80  201 1    
   160   81  202 1    
   161   81  203 1    
   162   81  204 1    
   163   82   83 2    
   164   82   84 am   BACKBONE|DICT|INTERRES
   165   84   85 1    
   166   84  205 1    
   167   85   86 1    
   168   85   87 1    
   169   85  206 1    
   170   86  207 1    
   171   86  208 1    
   172   86  209 1    
   173   87   88 2    
   174   87   89 am   BACKBONE|DICT|INTERRES
   175   89   90 1    
   176   89  210 1    
   177   90   91 1    
   178   90   92 1    
   179   90  211 1    
   180   91  212 1    
   181   91  213 1    
   182   91  214 1    
   183   92   93 2    
   184   92   94 am   BACKBONE|DICT|INTERRES
   185   94   95 1    
   186   94  215 1    
   187   95   96 1    
   188   95   97 1    
   189   95  216 1    
   190   96  217 1    
   191   96  218 1    
   192   96  219 1    
   193   97   98 2    
   194   97   99 am   BACKBONE|DICT|INTERRES
   195   99  100 1    
   196   99  220 1    
   197  100  101 1    
   198  100  102 1    
   199  100  221 1    
   200  101  222 1    
   201  101  223 1    
   202  101  224 1    
   203  102  103 2    
   204  102  104 am   BACKBONE|DICT|INTERRES
   205  104  105 1    
   206  104  225 1    
   207  105  106 1    
   208  105  107 1    
   209  105  226 1    
   210  106  227 1    
   211  106  228 1    
   212  106  229 1    
   213  107  108 2    
   214  107  109 am   BACKBONE|DICT|INTERRES
   215  109  110 1    
   216  109  230 1    
   217  110  111 1    
   218  110  112 1    
   219  110  231 1    
   220  111  232 1    
   221  111  233 1    
   222  111  234 1    
   223  112  113 2    
   224  112  114 am   BACKBONE|DICT|INTERRES
   225  114  115 1    
   226  114  235 1    
   227  115  116 1    
   228  115  117 1    
   229  115  236 1    
   230  116  237 1    
   231  116  238 1    
   232  116  239 1    
   233  117  118 2    
   234  117  119 am   BACKBONE|DICT|INTERRES
   235  119  120 1    
   236  119  240 1    
   237  120  121 1    
   238  120  124 1    
   239  120  241 1    
   240  121  122 am   BACKBONE|DICT|INTERRES
   241  121  123 2    
   242  122  242 1    
   243  122  243 1    
   244  124  125 1    
   245  124  244 1    
   246  124  245 1    
   247  125  126 1    
   248  126  246 1    
   249  126  247 1    
@<TRIPOS>SUBSTRUCTURE
     1 UNK         1 GROUP             0       ****    0 ROOT    
