@<TRIPOS>MOLECULE
3R540
247   249    1
SMALL
USER_CHARGES


@<TRIPOS>ATOM
      1 CA          0.9899  -10.0387  -46.7612 C.3       0 UNK        -0.1800 
      2 C           2.2338  -10.9046  -46.6237 C.2       0 UNK         0.5000 
      3 O           3.3043  -10.3963  -46.2875 O.2       0 UNK        -0.5000 
      4 N           2.0977  -12.2128  -46.8724 N.am      1 UNK        -0.5000 
      5 CA          3.1649  -13.2194  -46.8086 C.3       1 UNK         0.1400 
      6 C6          2.8518  -14.4550  -47.6903 C.3       23 UNK        -0.0398 
      7 S7          2.7575  -14.0195  -49.4616 S.3       23 UNK        -0.2404 
      8 C8          0.9868  -14.2810  -49.8287 C.3       23 UNK        -0.0205 
      9 C9          0.5545  -15.7294  -50.0739 C.ar      23 UNK        -0.0193 
     10 C10        -0.6996  -15.9535  -50.6512 C.ar      23 UNK        -0.1150 
     11 C11        -1.1476  -17.2500  -50.9182 C.ar      23 UNK        -0.0193 
     12 C12        -0.3427  -18.3386  -50.5761 C.ar      23 UNK        -0.1150 
     13 C13         0.9080  -18.1384  -49.9868 C.ar      23 UNK        -0.0193 
     14 C14         1.3547  -16.8343  -49.7515 C.ar      23 UNK        -0.1150 
     15 C15         1.7735  -19.3388  -49.6187 C.3       23 UNK        -0.0205 
     16 S16         2.4264  -19.2954  -47.9120 S.3       23 UNK        -0.2404 
     17 C17         0.9548  -18.9050  -46.9060 C.3       23 UNK        -0.0398 
     18 CA          0.1529  -20.1524  -46.4668 C.3       11 UNK         0.1400 
     19 N          -0.5177  -19.9330  -45.1838 N.am      11 UNK        -0.5000 
     20 C          -1.1996  -20.8639  -44.5027 C.2       10 UNK         0.5000 
     21 O          -1.2862  -22.0415  -44.8470 O.2       10 UNK        -0.5000 
     22 CA         -1.9495  -20.3861  -43.2503 C.3       10 UNK         0.1400 
     23 CB         -1.0162  -20.3765  -42.0379 C.3       10 UNK        -0.1800 
     24 N          -2.5194  -19.0528  -43.4347 N.am      10 UNK        -0.5000 
     25 C          -3.5768  -18.7941  -44.2155 C.2       9 UNK         0.5000 
     26 O          -4.2045  -19.6599  -44.8262 O.2       9 UNK        -0.5000 
     27 CA         -3.9620  -17.3122  -44.3764 C.3       9 UNK         0.1400 
     28 CB         -4.7394  -16.8131  -43.1492 C.3       9 UNK        -0.1800 
     29 N          -2.7994  -16.4501  -44.6010 N.am      9 UNK        -0.5000 
     30 C          -2.0042  -16.5232  -45.6772 C.2       8 UNK         0.5000 
     31 O          -2.1768  -17.3157  -46.5993 O.2       8 UNK        -0.5000 
     32 CA         -0.7927  -15.5789  -45.7299 C.3       8 UNK         0.1400 
     33 CB         -1.1716  -14.2716  -46.4399 C.3       8 UNK        -0.1800 
     34 N          -0.2066  -15.2670  -44.4257 N.am      8 UNK        -0.5000 
     35 C           0.3011  -16.1544  -43.5585 C.2       7 UNK         0.5000 
     36 O           0.2520  -17.3770  -43.7222 O.2       7 UNK        -0.5000 
     37 CA          1.0132  -15.5405  -42.3362 C.3       7 UNK         0.1400 
     38 CB          0.1620  -14.4628  -41.6296 C.3       7 UNK        -0.1800 
     39 N           1.5156  -16.5253  -41.3755 N.am      7 UNK        -0.5000 
     40 C           0.8269  -17.3079  -40.5307 C.2       6 UNK         0.5000 
     41 O          -0.4028  -17.3438  -40.4728 O.2       6 UNK        -0.5000 
     42 CA          1.6610  -18.1789  -39.5605 C.3       6 UNK         0.1400 
     43 CB          1.2734  -19.6630  -39.6275 C.3       6 UNK        -0.1800 
     44 N           3.0995  -18.0702  -39.8070 N.am      6 UNK        -0.5000 
     45 C           3.9156  -17.1422  -39.2978 C.2       5 UNK         0.5000 
     46 O           3.5699  -16.3170  -38.4525 O.2       5 UNK        -0.5000 
     47 CA          5.3384  -17.0844  -39.8822 C.3       5 UNK         0.1400 
     48 CB          6.2629  -18.1345  -39.2376 C.3       5 UNK        -0.1800 
     49 N           5.3716  -17.1454  -41.3519 N.am      5 UNK        -0.5000 
     50 C           5.1134  -18.1776  -42.1737 C.2       4 UNK         0.5000 
     51 O           4.7649  -19.2892  -41.7752 O.2       4 UNK        -0.5000 
     52 CA          5.2129  -17.9302  -43.6960 C.3       4 UNK         0.1400 
     53 CB          3.8245  -18.0344  -44.3478 C.3       4 UNK        -0.1800 
     54 N           5.7946  -16.6318  -44.0417 N.am      4 UNK        -0.5000 
     55 C           7.0898  -16.3083  -43.9036 C.2       3 UNK         0.5000 
     56 O           7.9589  -17.1160  -43.5748 O.2       3 UNK        -0.5000 
     57 CA          7.4818  -14.8318  -44.1302 C.3       3 UNK         0.1400 
     58 CB          8.1576  -14.6618  -45.4994 C.3       3 UNK        -0.1800 
     59 N           6.3629  -13.8889  -44.0390 N.am      3 UNK        -0.5000 
     60 C           5.5759  -13.6889  -42.9711 C.2       2 UNK         0.5000 
     61 O           5.7403  -14.2520  -41.8887 O.2       2 UNK        -0.5000 
     62 CA          4.3657  -12.7526  -43.1642 C.3       2 UNK         0.1400 
     63 CB          4.6674  -11.3578  -42.5981 C.3       2 UNK        -0.1800 
     64 N           3.9398  -12.6181  -44.5615 N.am      2 UNK        -0.5000 
     65 C           3.4875  -13.6044  -45.3473 C.2       1 UNK         0.5000 
     66 O           3.3431  -14.7641  -44.9571 O.2       1 UNK        -0.5000 
     67 C          -0.8452  -20.6038  -47.5553 C.2       11 UNK         0.5000 
     68 O          -0.6042  -21.6067  -48.2249 O.2       11 UNK        -0.5000 
     69 N          -1.9738  -19.8901  -47.6710 N.am      12 UNK        -0.5000 
     70 CA         -3.0800  -20.1994  -48.5748 C.3       12 UNK         0.1400 
     71 CB         -4.1042  -19.0560  -48.5304 C.3       12 UNK        -0.1800 
     72 C          -3.7494  -21.5488  -48.2639 C.2       12 UNK         0.5000 
     73 O          -4.0754  -22.2875  -49.1935 O.2       12 UNK        -0.5000 
     74 N          -3.9099  -21.8668  -46.9715 N.am      13 UNK        -0.5000 
     75 CA         -4.4181  -23.1563  -46.5027 C.3       13 UNK         0.1400 
     76 CB         -4.6908  -23.0955  -44.9925 C.3       13 UNK        -0.1800 
     77 C          -3.4721  -24.3206  -46.8516 C.2       13 UNK         0.5000 
     78 O          -3.9369  -25.3456  -47.3500 O.2       13 UNK        -0.5000 
     79 N          -2.1634  -24.1265  -46.6327 N.am      14 UNK        -0.5000 
     80 CA         -1.1051  -25.0787  -46.9804 C.3       14 UNK         0.1400 
     81 CB          0.2256  -24.6107  -46.3720 C.3       14 UNK        -0.1800 
     82 C          -0.9658  -25.2950  -48.4996 C.2       14 UNK         0.5000 
     83 O          -0.7471  -26.4256  -48.9358 O.2       14 UNK        -0.5000 
     84 N          -1.1311  -24.2164  -49.2771 N.am      15 UNK        -0.5000 
     85 CA         -1.1583  -24.2250  -50.7415 C.3       15 UNK         0.1400 
     86 CB         -0.9772  -22.7846  -51.2489 C.3       15 UNK        -0.1800 
     87 C          -2.4435  -24.8398  -51.3345 C.2       15 UNK         0.5000 
     88 O          -2.4667  -25.1261  -52.5315 O.2       15 UNK        -0.5000 
     89 N          -3.4808  -25.0144  -50.5007 N.am      16 UNK        -0.5000 
     90 CA         -4.8308  -25.4774  -50.8320 C.3       16 UNK         0.1400 
     91 CB         -4.8152  -26.9392  -51.3248 C.3       16 UNK        -0.1800 
     92 C          -5.5477  -24.5188  -51.8025 C.2       16 UNK         0.5000 
     93 O          -6.1960  -24.9631  -52.7527 O.2       16 UNK        -0.5000 
     94 N          -5.4237  -23.2092  -51.5391 N.am      17 UNK        -0.5000 
     95 CA         -5.9098  -22.1035  -52.3722 C.3       17 UNK         0.1400 
     96 CB         -5.5238  -20.7729  -51.7131 C.3       17 UNK        -0.1800 
     97 C          -7.4201  -22.1212  -52.6758 C.2       17 UNK         0.5000 
     98 O          -7.8356  -21.5391  -53.6760 O.2       17 UNK        -0.5000 
     99 N          -8.2105  -22.8152  -51.8463 N.am      18 UNK        -0.5000 
    100 CA        -9.6340  -23.0759  -52.0709 C.3       18 UNK         0.1400 
    101 CB       -10.2151  -23.7664  -50.8279 C.3       18 UNK        -0.1800 
    102 C         -9.9170  -23.9153  -53.3361 C.2       18 UNK         0.5000 
    103 O        -10.9974  -23.7825  -53.9125 O.2       18 UNK        -0.5000 
    104 N         -8.9491  -24.7468  -53.7459 N.am      19 UNK        -0.5000 
    105 CA        -8.9986  -25.5605  -54.9598 C.3       19 UNK         0.1400 
    106 CB        -8.7781  -27.0339  -54.5822 C.3       19 UNK        -0.1800 
    107 C         -7.9421  -25.1067  -55.9813 C.2       19 UNK         0.5000 
    108 O         -8.2332  -25.0699  -57.1772 O.2       19 UNK        -0.5000 
    109 N         -6.7346  -24.7787  -55.5021 N.am      20 UNK        -0.5000 
    110 CA        -5.5720  -24.4439  -56.3270 C.3       20 UNK         0.1400 
    111 CB        -4.3006  -24.6983  -55.5014 C.3       20 UNK        -0.1800 
    112 C         -5.5712  -23.0013  -56.8688 C.2       20 UNK         0.5000 
    113 O         -4.7979  -22.7176  -57.7850 O.2       20 UNK        -0.5000 
    114 N         -6.4080  -22.1256  -56.2905 N.am      21 UNK        -0.5000 
    115 CA        -6.4599  -20.6694  -56.4775 C.3       21 UNK         0.1400 
    116 CB        -6.6987  -20.2939  -57.9562 C.3       21 UNK        -0.1800 
    117 C         -5.2309  -19.9492  -55.8784 C.2       21 UNK         0.5000 
    118 O         -4.3050  -20.5884  -55.3735 O.2       21 UNK        -0.5000 
    119 N         -5.2554  -18.6147  -55.9224 N.am      22 UNK        -0.5000 
    120 CA        -4.1756  -17.7223  -55.4845 C.3       22 UNK         0.1400 
    121 C         -4.3321  -16.3171  -56.1306 C.2       22 UNK         0.5000 
    122 N         -3.3659  -15.4290  -55.9471 N.am      22 UNK        -0.7600 
    123 O         -5.3217  -16.0196  -56.7980 O.2       22 UNK        -0.5000 
    124 C124       -4.0309  -17.6688  -53.9353 C.3       23 UNK        -0.0398 
    125 S125       -2.3113  -17.3786  -53.4053 S.3       23 UNK        -0.2404 
    126 C126       -2.4890  -17.4710  -51.5985 C.3       23 UNK        -0.0205 
    127 H127        0.1130  -10.6274  -47.0346 H         1 UNK         0.0600 
    128 H128        1.1445   -9.2807  -47.5298 H         1 UNK         0.0600 
    129 H129        0.7795   -9.5329  -45.8184 H         1 UNK         0.0600 
    130 H130        1.1909  -12.5610  -47.1420 H         1 UNK         0.3000 
    131 H131        4.0769  -12.7691  -47.2072 H         1 UNK         0.0600 
    132 H132        3.6374  -15.2061  -47.5876 H         1 UNK         0.0800 
    133 H133        1.9287  -14.9396  -47.3695 H         1 UNK         0.0800 
    134 H134        0.3829  -13.8567  -49.0271 H         1 UNK         0.0800 
    135 H135        0.7555  -13.6986  -50.7217 H         1 UNK         0.0800 
    136 H136       -1.3248  -15.1121  -50.9158 H         1 UNK         0.1150 
    137 H137       -0.6868  -19.3429  -50.7797 H         1 UNK         0.1150 
    138 H138        2.3287  -16.6986  -49.3073 H         1 UNK         0.1150 
    139 H139        1.2200  -20.2687  -49.7545 H         1 UNK         0.0800 
    140 H140        2.6147  -19.3852  -50.3112 H         1 UNK         0.0800 
    141 H141        1.3388  -18.3899  -46.0248 H         1 UNK         0.0800 
    142 H142        0.3214  -18.1721  -47.4053 H         1 UNK         0.0800 
    143 H143        0.8538  -20.9743  -46.3051 H         1 UNK         0.0600 
    144 H144       -0.4621  -18.9990  -44.7920 H         1 UNK         0.3000 
    145 H145       -2.7618  -21.0881  -43.0508 H         1 UNK         0.0600 
    146 H146       -1.5464  -20.0698  -41.1363 H         1 UNK         0.0600 
    147 H147       -0.5996  -21.3676  -41.8537 H         1 UNK         0.0600 
    148 H148       -0.1836  -19.6899  -42.1908 H         1 UNK         0.0600 
    149 H149       -2.0242  -18.2837  -43.0047 H         1 UNK         0.3000 
    150 H150       -4.6139  -17.2325  -45.2490 H         1 UNK         0.0600 
    151 H151       -5.6176  -17.4335  -42.9653 H         1 UNK         0.0600 
    152 H152       -5.0897  -15.7909  -43.2937 H         1 UNK         0.0600 
    153 H153       -4.1275  -16.8340  -42.2464 H         1 UNK         0.0600 
    154 H154       -2.5806  -15.7754  -43.8832 H         1 UNK         0.3000 
    155 H155       -0.0198  -16.0722  -46.3210 H         1 UNK         0.0600 
    156 H156       -0.3089  -13.6183  -46.5537 H         1 UNK         0.0600 
    157 H157       -1.9370  -13.7224  -45.8902 H         1 UNK         0.0600 
    158 H158       -1.5637  -14.4702  -47.4386 H         1 UNK         0.0600 
    159 H159       -0.1279  -14.2861  -44.2025 H         1 UNK         0.3000 
    160 H160        1.9035  -15.0478  -42.7263 H         1 UNK         0.0600 
    161 H161       -0.8130  -14.8476  -41.3291 H         1 UNK         0.0600 
    162 H162       -0.0112  -13.6016  -42.2749 H         1 UNK         0.0600 
    163 H163        0.6631  -14.0907  -40.7358 H         1 UNK         0.0600 
    164 H164        2.5192  -16.6151  -41.3414 H         1 UNK         0.3000 
    165 H165        1.4417  -17.8233  -38.5521 H         1 UNK         0.0600 
    166 H166        1.5101  -20.0963  -40.5989 H         1 UNK         0.0600 
    167 H167        1.8064  -20.2387  -38.8711 H         1 UNK         0.0600 
    168 H168        0.2081  -19.8024  -39.4432 H         1 UNK         0.0600 
    169 H169        3.4949  -18.7043  -40.4969 H         1 UNK         0.3000 
    170 H170        5.7397  -16.1024  -39.6264 H         1 UNK         0.0600 
    171 H171        6.3223  -17.9861  -38.1588 H         1 UNK         0.0600 
    172 H172        5.9099  -19.1522  -39.4041 H         1 UNK         0.0600 
    173 H173        7.2762  -18.0615  -39.6322 H         1 UNK         0.0600 
    174 H174        5.6037  -16.2570  -41.7846 H         1 UNK         0.3000 
    175 H175        5.8464  -18.7152  -44.1137 H         1 UNK         0.0600 
    176 H176        3.1354  -17.2931  -43.9444 H         1 UNK         0.0600 
    177 H177        3.8816  -17.8839  -45.4259 H         1 UNK         0.0600 
    178 H178        3.3808  -19.0168  -44.1811 H         1 UNK         0.0600 
    179 H179        5.1409  -15.9138  -44.3300 H         1 UNK         0.3000 
    180 H180        8.2021  -14.5657  -43.3541 H         1 UNK         0.0600 
    181 H181        7.4722  -14.8903  -46.3167 H         1 UNK         0.0600 
    182 H182        9.0177  -15.3256  -45.5970 H         1 UNK         0.0600 
    183 H183        8.5195  -13.6429  -45.6379 H         1 UNK         0.0600 
    184 H184        6.1480  -13.3723  -44.8785 H         1 UNK         0.3000 
    185 H185        3.5329  -13.1774  -42.6010 H         1 UNK         0.0600 
    186 H186        3.7912  -10.7115  -42.6546 H         1 UNK         0.0600 
    187 H187        4.9604  -11.4157  -41.5489 H         1 UNK         0.0600 
    188 H188        5.4790  -10.8711  -43.1404 H         1 UNK         0.0600 
    189 H189        3.9826  -11.6869  -44.9661 H         1 UNK         0.3000 
    190 H190       -2.0786  -19.0416  -47.1177 H         1 UNK         0.3000 
    191 H191       -2.6764  -20.2577  -49.5866 H         1 UNK         0.0600 
    192 H192       -4.9369  -19.2405  -49.2077 H         1 UNK         0.0600 
    193 H193       -3.6500  -18.1102  -48.8259 H         1 UNK         0.0600 
    194 H194       -4.5177  -18.9263  -47.5297 H         1 UNK         0.0600 
    195 H195       -3.6617  -21.1852  -46.2641 H         1 UNK         0.3000 
    196 H196       -5.3692  -23.3401  -47.0070 H         1 UNK         0.0600 
    197 H197       -5.1201  -24.0330  -44.6370 H         1 UNK         0.0600 
    198 H198       -5.3979  -22.3015  -44.7513 H         1 UNK         0.0600 
    199 H199       -3.7801  -22.9164  -44.4220 H         1 UNK         0.0600 
    200 H200       -1.8657  -23.2668  -46.1779 H         1 UNK         0.3000 
    201 H201       -1.3628  -26.0404  -46.5322 H         1 UNK         0.0600 
    202 H202        0.1560  -24.5317  -45.2870 H         1 UNK         0.0600 
    203 H203        0.5249  -23.6360  -46.7584 H         1 UNK         0.0600 
    204 H204        1.0278  -25.3145  -46.5969 H         1 UNK         0.0600 
    205 H205       -1.2166  -23.3066  -48.8307 H         1 UNK         0.3000 
    206 H206       -0.3157  -24.8217  -51.0965 H         1 UNK         0.0600 
    207 H207       -0.0437  -22.3526  -50.8883 H         1 UNK         0.0600 
    208 H208       -0.9500  -22.7520  -52.3388 H         1 UNK         0.0600 
    209 H209       -1.7937  -22.1400  -50.9227 H         1 UNK         0.0600 
    210 H210       -3.3520  -24.7257  -49.5396 H         1 UNK         0.3000 
    211 H211       -5.3985  -25.4499  -49.9011 H         1 UNK         0.0600 
    212 H212       -4.3198  -27.0386  -52.2911 H         1 UNK         0.0600 
    213 H213       -5.8300  -27.3217  -51.4398 H         1 UNK         0.0600 
    214 H214       -4.3019  -27.5881  -50.6152 H         1 UNK         0.0600 
    215 H215       -4.8872  -22.9380  -50.7166 H         1 UNK         0.3000 
    216 H216       -5.3917  -22.1720  -53.3302 H         1 UNK         0.0600 
    217 H217       -5.8772  -19.9256  -52.3013 H         1 UNK         0.0600 
    218 H218       -4.4421  -20.6774  -51.6175 H         1 UNK         0.0600 
    219 H219       -5.9634  -20.6865  -50.7196 H         1 UNK         0.0600 
    220 H220       -7.7864  -23.2591  -51.0456 H         1 UNK         0.3000 
    221 H221      -10.1350  -22.1138  -52.1960 H         1 UNK         0.0600 
    222 H222       -9.7337  -24.7268  -50.6396 H         1 UNK         0.0600 
    223 H223      -10.0923  -23.1479  -49.9386 H         1 UNK         0.0600 
    224 H224      -11.2832  -23.9524  -50.9477 H         1 UNK         0.0600 
    225 H225       -8.0826  -24.7819  -53.2184 H         1 UNK         0.3000 
    226 H226       -9.9752  -25.4786  -55.4412 H         1 UNK         0.0600 
    227 H227       -9.5592  -27.3869  -53.9087 H         1 UNK         0.0600 
    228 H228       -8.7980  -27.6721  -55.4666 H         1 UNK         0.0600 
    229 H229       -7.8175  -27.1848  -54.0876 H         1 UNK         0.0600 
    230 H230       -6.5593  -24.8612  -54.5028 H         1 UNK         0.3000 
    231 H231       -5.5542  -25.1157  -57.1877 H         1 UNK         0.0600 
    232 H232       -3.4044  -24.5438  -56.1032 H         1 UNK         0.0600 
    233 H233       -4.2672  -25.7212  -55.1257 H         1 UNK         0.0600 
    234 H234       -4.2363  -24.0267  -54.6446 H         1 UNK         0.0600 
    235 H235       -6.9854  -22.4660  -55.5331 H         1 UNK         0.3000 
    236 H236       -7.3274  -20.3263  -55.9135 H         1 UNK         0.0600 
    237 H237       -7.5117  -20.8794  -58.3857 H         1 UNK         0.0600 
    238 H238       -6.9738  -19.2436  -58.0555 H         1 UNK         0.0600 
    239 H239       -5.8107  -20.4522  -58.5682 H         1 UNK         0.0600 
    240 H240       -6.0252  -18.1342  -56.3701 H         1 UNK         0.3000 
    241 H241       -3.2608  -18.1384  -55.9111 H         1 UNK         0.0600 
    242 H242       -2.5582  -15.6507  -55.3843 H         1 UNK         0.3800 
    243 H243       -3.4508  -14.5129  -56.3595 H         1 UNK         0.3800 
    244 H244       -4.6870  -16.9138  -53.4995 H         1 UNK         0.0800 
    245 H245       -4.3324  -18.6167  -53.4923 H         1 UNK         0.0800 
    246 H246       -2.8980  -18.4443  -51.3245 H         1 UNK         0.0800 
    247 H247       -3.2077  -16.7231  -51.2598 H         1 UNK         0.0800 
@<TRIPOS>BOND
     1    1    2 1    
     2    1  127 1    
     3    1  128 1    
     4    1  129 1    
     5    2    3 2    
     6    2    4 am   BACKBONE|DICT|INTERRES
     7    4    5 1    
     8    4  130 1    
     9    5    6 1    
    10    5   65 1    
    11    5  131 1    
    12    6    7 1    
    13    6  132 1    
    14    6  133 1    
    15    7    8 1    
    16    8    9 1    
    17    8  134 1    
    18    8  135 1    
    19    9   10 ar   
    20    9   14 ar   
    21   10   11 ar   
    22   10  136 1    
    23   11   12 ar   
    24   11  126 1    
    25   12   13 ar   
    26   12  137 1    
    27   13   14 ar   
    28   13   15 1    
    29   14  138 1    
    30   15   16 1    
    31   15  139 1    
    32   15  140 1    
    33   16   17 1    
    34   17   18 1    
    35   17  141 1    
    36   17  142 1    
    37   18   19 1    
    38   18   67 1    
    39   18  143 1    
    40   19   20 am   BACKBONE|DICT|INTERRES
    41   19  144 1    
    42   20   21 2    
    43   20   22 1    
    44   22   23 1    
    45   22   24 1    
    46   22  145 1    
    47   23  146 1    
    48   23  147 1    
    49   23  148 1    
    50   24   25 am   BACKBONE|DICT|INTERRES
    51   24  149 1    
    52   25   26 2    
    53   25   27 1    
    54   27   28 1    
    55   27   29 1    
    56   27  150 1    
    57   28  151 1    
    58   28  152 1    
    59   28  153 1    
    60   29   30 am   BACKBONE|DICT|INTERRES
    61   29  154 1    
    62   30   31 2    
    63   30   32 1    
    64   32   33 1    
    65   32   34 1    
    66   32  155 1    
    67   33  156 1    
    68   33  157 1    
    69   33  158 1    
    70   34   35 am   BACKBONE|DICT|INTERRES
    71   34  159 1    
    72   35   36 2    
    73   35   37 1    
    74   37   38 1    
    75   37   39 1    
    76   37  160 1    
    77   38  161 1    
    78   38  162 1    
    79   38  163 1    
    80   39   40 am   BACKBONE|DICT|INTERRES
    81   39  164 1    
    82   40   41 2    
    83   40   42 1    
    84   42   43 1    
    85   42   44 1    
    86   42  165 1    
    87   43  166 1    
    88   43  167 1    
    89   43  168 1    
    90   44   45 am   BACKBONE|DICT|INTERRES
    91   44  169 1    
    92   45   46 2    
    93   45   47 1    
    94   47   48 1    
    95   47   49 1    
    96   47  170 1    
    97   48  171 1    
    98   48  172 1    
    99   48  173 1    
   100   49   50 am   BACKBONE|DICT|INTERRES
   101   49  174 1    
   102   50   51 2    
   103   50   52 1    
   104   52   53 1    
   105   52   54 1    
   106   52  175 1    
   107   53  176 1    
   108   53  177 1    
   109   53  178 1    
   110   54   55 am   BACKBONE|DICT|INTERRES
   111   54  179 1    
   112   55   56 2    
   113   55   57 1    
   114   57   58 1    
   115   57   59 1    
   116   57  180 1    
   117   58  181 1    
   118   58  182 1    
   119   58  183 1    
   120   59   60 am   BACKBONE|DICT|INTERRES
   121   59  184 1    
   122   60   61 2    
   123   60   62 1    
   124   62   63 1    
   125   62   64 1    
   126   62  185 1    
   127   63  186 1    
   128   63  187 1    
   129   63  188 1    
   130   64   65 am   BACKBONE|DICT|INTERRES
   131   64  189 1    
   132   65   66 2    
   133   67   68 2    
   134   67   69 am   BACKBONE|DICT|INTERRES
   135   69   70 1    
   136   69  190 1    
   137   70   71 1    
   138   70   72 1    
   139   70  191 1    
   140   71  192 1    
   141   71  193 1    
   142   71  194 1    
   143   72   73 2    
   144   72   74 am   BACKBONE|DICT|INTERRES
   145   74   75 1    
   146   74  195 1    
   147   75   76 1    
   148   75   77 1    
   149   75  196 1    
   150   76  197 1    
   151   76  198 1    
   152   76  199 1    
   153   77   78 2    
   154   77   79 am   BACKBONE|DICT|INTERRES
   155   79   80 1    
   156   79  200 1    
   157   80   81 1    
   158   80   82 1    
   159   80  201 1    
   160   81  202 1    
   161   81  203 1    
   162   81  204 1    
   163   82   83 2    
   164   82   84 am   BACKBONE|DICT|INTERRES
   165   84   85 1    
   166   84  205 1    
   167   85   86 1    
   168   85   87 1    
   169   85  206 1    
   170   86  207 1    
   171   86  208 1    
   172   86  209 1    
   173   87   88 2    
   174   87   89 am   BACKBONE|DICT|INTERRES
   175   89   90 1    
   176   89  210 1    
   177   90   91 1    
   178   90   92 1    
   179   90  211 1    
   180   91  212 1    
   181   91  213 1    
   182   91  214 1    
   183   92   93 2    
   184   92   94 am   BACKBONE|DICT|INTERRES
   185   94   95 1    
   186   94  215 1    
   187   95   96 1    
   188   95   97 1    
   189   95  216 1    
   190   96  217 1    
   191   96  218 1    
   192   96  219 1    
   193   97   98 2    
   194   97   99 am   BACKBONE|DICT|INTERRES
   195   99  100 1    
   196   99  220 1    
   197  100  101 1    
   198  100  102 1    
   199  100  221 1    
   200  101  222 1    
   201  101  223 1    
   202  101  224 1    
   203  102  103 2    
   204  102  104 am   BACKBONE|DICT|INTERRES
   205  104  105 1    
   206  104  225 1    
   207  105  106 1    
   208  105  107 1    
   209  105  226 1    
   210  106  227 1    
   211  106  228 1    
   212  106  229 1    
   213  107  108 2    
   214  107  109 am   BACKBONE|DICT|INTERRES
   215  109  110 1    
   216  109  230 1    
   217  110  111 1    
   218  110  112 1    
   219  110  231 1    
   220  111  232 1    
   221  111  233 1    
   222  111  234 1    
   223  112  113 2    
   224  112  114 am   BACKBONE|DICT|INTERRES
   225  114  115 1    
   226  114  235 1    
   227  115  116 1    
   228  115  117 1    
   229  115  236 1    
   230  116  237 1    
   231  116  238 1    
   232  116  239 1    
   233  117  118 2    
   234  117  119 am   BACKBONE|DICT|INTERRES
   235  119  120 1    
   236  119  240 1    
   237  120  121 1    
   238  120  124 1    
   239  120  241 1    
   240  121  122 am   BACKBONE|DICT|INTERRES
   241  121  123 2    
   242  122  242 1    
   243  122  243 1    
   244  124  125 1    
   245  124  244 1    
   246  124  245 1    
   247  125  126 1    
   248  126  246 1    
   249  126  247 1    
@<TRIPOS>SUBSTRUCTURE
     1 UNK         1 GROUP             0       ****    0 ROOT    
