@<TRIPOS>MOLECULE
3R540
247   249    1
SMALL
USER_CHARGES


@<TRIPOS>ATOM
      1 CA         -5.3487  -13.6792  -47.8014 C.3       0 UNK        -0.1800 
      2 C          -3.9580  -13.9387  -47.2433 C.2       0 UNK         0.5000 
      3 O          -3.5153  -13.2245  -46.3437 O.2       0 UNK        -0.5000 
      4 N          -3.2756  -14.9711  -47.7573 N.am      1 UNK        -0.5000 
      5 CA         -1.9051  -15.3767  -47.4086 C.3       1 UNK         0.1400 
      6 C6         -1.4684  -16.6330  -48.1968 C.3       23 UNK        -0.0398 
      7 S7         -1.5012  -16.4131  -50.0068 S.3       23 UNK        -0.2404 
      8 C8          0.2064  -15.8876  -50.3588 C.3       23 UNK        -0.0205 
      9 C9          1.2241  -17.0051  -50.1696 C.ar      23 UNK        -0.0193 
     10 C10         1.3994  -17.9787  -51.1597 C.ar      23 UNK        -0.1150 
     11 C11         2.3710  -18.9739  -51.0092 C.ar      23 UNK        -0.0193 
     12 C12         3.1639  -18.9921  -49.8607 C.ar      23 UNK        -0.1150 
     13 C13         2.9843  -18.0404  -48.8553 C.ar      23 UNK        -0.0193 
     14 C14         2.0187  -17.0436  -49.0191 C.ar      23 UNK        -0.1150 
     15 C15         3.8401  -18.0943  -47.5991 C.3       23 UNK        -0.0205 
     16 S16         3.6090  -19.6518  -46.6854 S.3       23 UNK        -0.2404 
     17 C17         1.8660  -19.5125  -46.1631 C.3       23 UNK        -0.0398 
     18 CA          0.9009  -20.4172  -46.9662 C.3       11 UNK         0.1400 
     19 N           1.3322  -21.8160  -46.9863 N.am      11 UNK        -0.5000 
     20 C           0.8139  -22.7726  -47.7668 C.2       10 UNK         0.5000 
     21 O          -0.0848  -22.5815  -48.5837 O.2       10 UNK        -0.5000 
     22 CA          1.3580  -24.1961  -47.5495 C.3       10 UNK         0.1400 
     23 CB          2.6746  -24.3925  -48.3163 C.3       10 UNK        -0.1800 
     24 N           1.5645  -24.5008  -46.1304 N.am      10 UNK        -0.5000 
     25 C           0.5767  -24.5910  -45.2267 C.2       9 UNK         0.5000 
     26 O          -0.6157  -24.4993  -45.5123 O.2       9 UNK        -0.5000 
     27 CA          0.9858  -24.7597  -43.7502 C.3       9 UNK         0.1400 
     28 CB          1.1198  -26.2477  -43.3952 C.3       9 UNK        -0.1800 
     29 N           2.2288  -24.0638  -43.4050 N.am      9 UNK        -0.5000 
     30 C           2.4173  -22.7399  -43.4942 C.2       8 UNK         0.5000 
     31 O           1.5435  -21.9553  -43.8668 O.2       8 UNK        -0.5000 
     32 CA          3.8438  -22.2488  -43.1832 C.3       8 UNK         0.1400 
     33 CB          4.8187  -22.7225  -44.2760 C.3       8 UNK        -0.1800 
     34 N           3.9695  -20.7956  -43.0723 N.am      8 UNK        -0.5000 
     35 C           3.5210  -20.0318  -42.0676 C.2       7 UNK         0.5000 
     36 O           2.8507  -20.4606  -41.1256 O.2       7 UNK        -0.5000 
     37 CA          3.9869  -18.5558  -42.0565 C.3       7 UNK         0.1400 
     38 CB          4.7248  -18.1049  -43.3392 C.3       7 UNK        -0.1800 
     39 N           2.9344  -17.5912  -41.7289 N.am      7 UNK        -0.5000 
     40 C           1.8055  -17.3722  -42.4151 C.2       6 UNK         0.5000 
     41 O           1.4085  -18.0749  -43.3421 O.2       6 UNK        -0.5000 
     42 CA          1.0025  -16.1059  -42.0698 C.3       6 UNK         0.1400 
     43 CB          1.2602  -15.5323  -40.6580 C.3       6 UNK        -0.1800 
     44 N           1.2018  -15.0998  -43.1196 N.am      6 UNK        -0.5000 
     45 C           2.3535  -14.4855  -43.4371 C.2       5 UNK         0.5000 
     46 O           3.3864  -14.5662  -42.7718 O.2       5 UNK        -0.5000 
     47 CA          2.3722  -13.6488  -44.7252 C.3       5 UNK         0.1400 
     48 CB          2.7359  -14.5398  -45.9242 C.3       5 UNK        -0.1800 
     49 N           1.0850  -13.0020  -44.9832 N.am      5 UNK        -0.5000 
     50 C           0.9052  -11.6786  -45.0783 C.2       4 UNK         0.5000 
     51 O           1.8032  -10.8488  -44.9273 O.2       4 UNK        -0.5000 
     52 CA         -0.5153  -11.1898  -45.4119 C.3       4 UNK         0.1400 
     53 CB         -0.7692  -11.2629  -46.9255 C.3       4 UNK        -0.1800 
     54 N          -1.5693  -11.9226  -44.7118 N.am      4 UNK        -0.5000 
     55 C          -1.8142  -11.8361  -43.3964 C.2       3 UNK         0.5000 
     56 O          -1.1313  -11.1753  -42.6134 O.2       3 UNK        -0.5000 
     57 CA         -3.0337  -12.6091  -42.8691 C.3       3 UNK         0.1400 
     58 CB         -4.3303  -11.8349  -43.1557 C.3       3 UNK        -0.1800 
     59 N          -3.1156  -13.9307  -43.4864 N.am      3 UNK        -0.5000 
     60 C          -2.6978  -15.0635  -42.9074 C.2       2 UNK         0.5000 
     61 O          -2.2888  -15.1265  -41.7485 O.2       2 UNK        -0.5000 
     62 CA         -2.7297  -16.3488  -43.7592 C.3       2 UNK         0.1400 
     63 CB         -3.9593  -17.1989  -43.4050 C.3       2 UNK        -0.1800 
     64 N          -2.7191  -16.1012  -45.2014 N.am      2 UNK        -0.5000 
     65 C          -1.6881  -15.5993  -45.8940 C.2       1 UNK         0.5000 
     66 O          -0.6225  -15.2661  -45.3757 O.2       1 UNK        -0.5000 
     67 C          -0.5362  -20.2967  -46.4197 C.2       11 UNK         0.5000 
     68 O          -1.3444  -19.5647  -46.9861 O.2       11 UNK        -0.5000 
     69 N          -0.8493  -21.0547  -45.3586 N.am      12 UNK        -0.5000 
     70 CA         -2.1949  -21.1597  -44.7931 C.3       12 UNK         0.1400 
     71 CB         -2.1408  -21.9325  -43.4677 C.3       12 UNK        -0.1800 
     72 C          -3.2000  -21.7988  -45.7719 C.2       12 UNK         0.5000 
     73 O          -4.3146  -21.2944  -45.9102 O.2       12 UNK        -0.5000 
     74 N          -2.7791  -22.8648  -46.4687 N.am      13 UNK        -0.5000 
     75 CA         -3.5541  -23.5289  -47.5186 C.3       13 UNK         0.1400 
     76 CB         -2.8400  -24.8103  -47.9733 C.3       13 UNK        -0.1800 
     77 C          -3.8368  -22.6072  -48.7168 C.2       13 UNK         0.5000 
     78 O          -4.9680  -22.5796  -49.1988 O.2       13 UNK        -0.5000 
     79 N          -2.8304  -21.8276  -49.1369 N.am      14 UNK        -0.5000 
     80 CA         -2.9327  -20.8314  -50.2052 C.3       14 UNK         0.1400 
     81 CB         -1.5412  -20.2640  -50.5147 C.3       14 UNK        -0.1800 
     82 C          -3.9228  -19.6913  -49.9077 C.2       14 UNK         0.5000 
     83 O          -4.4657  -19.1103  -50.8465 O.2       14 UNK        -0.5000 
     84 N          -4.1697  -19.4005  -48.6239 N.am      15 UNK        -0.5000 
     85 CA         -5.1804  -18.4377  -48.1891 C.3       15 UNK         0.1400 
     86 CB         -4.9714  -18.1153  -46.7035 C.3       15 UNK        -0.1800 
     87 C          -6.6070  -18.9603  -48.4312 C.2       15 UNK         0.5000 
     88 O          -7.4621  -18.2058  -48.8942 O.2       15 UNK        -0.5000 
     89 N          -6.8276  -20.2453  -48.1234 N.am      16 UNK        -0.5000 
     90 CA         -8.1061  -20.9323  -48.2963 C.3       16 UNK         0.1400 
     91 CB         -8.1198  -22.1992  -47.4267 C.3       16 UNK        -0.1800 
     92 C          -8.3866  -21.2764  -49.7692 C.2       16 UNK         0.5000 
     93 O          -9.5109  -21.0913  -50.2362 O.2       16 UNK        -0.5000 
     94 N          -7.3578  -21.7658  -50.4725 N.am      17 UNK        -0.5000 
     95 CA         -7.4234  -22.1809  -51.8741 C.3       17 UNK         0.1400 
     96 CB         -6.2912  -23.1853  -52.1414 C.3       17 UNK        -0.1800 
     97 C          -7.3794  -21.0095  -52.8770 C.2       17 UNK         0.5000 
     98 O          -7.6836  -21.2291  -54.0500 O.2       17 UNK        -0.5000 
     99 N          -7.0207  -19.8041  -52.4047 N.am      18 UNK        -0.5000 
    100 CA        -6.8249  -18.5631  -53.1636 C.3       18 UNK         0.1400 
    101 CB        -8.1459  -18.0785  -53.7971 C.3       18 UNK        -0.1800 
    102 C         -5.6770  -18.7202  -54.1798 C.2       18 UNK         0.5000 
    103 O         -5.9108  -18.7709  -55.3890 O.2       18 UNK        -0.5000 
    104 N         -4.4607  -18.8489  -53.6334 N.am      19 UNK        -0.5000 
    105 CA        -3.2389  -19.3395  -54.2740 C.3       19 UNK         0.1400 
    106 CB        -2.8246  -18.4878  -55.4951 C.3       19 UNK        -0.1800 
    107 C         -3.3806  -20.8497  -54.5448 C.2       19 UNK         0.5000 
    108 O         -3.8555  -21.5597  -53.6585 O.2       19 UNK        -0.5000 
    109 N         -2.9575  -21.3262  -55.7243 N.am      20 UNK        -0.5000 
    110 CA        -3.0758  -22.6954  -56.2566 C.3       20 UNK         0.1400 
    111 CB        -4.5540  -23.1098  -56.3902 C.3       20 UNK        -0.1800 
    112 C         -2.2683  -23.7813  -55.5115 C.2       20 UNK         0.5000 
    113 O         -1.6775  -24.6405  -56.1660 O.2       20 UNK        -0.5000 
    114 N         -2.2324  -23.7207  -54.1749 N.am      21 UNK        -0.5000 
    115 CA        -1.5084  -24.6329  -53.2848 C.3       21 UNK         0.1400 
    116 CB        -1.9216  -24.3404  -51.8323 C.3       21 UNK        -0.1800 
    117 C          0.0239  -24.5466  -53.4331 C.2       21 UNK         0.5000 
    118 O          0.7168  -25.5357  -53.1910 O.2       21 UNK        -0.5000 
    119 N          0.5165  -23.3711  -53.8347 N.am      22 UNK        -0.5000 
    120 CA         1.9382  -23.0547  -54.0301 C.3       22 UNK         0.1400 
    121 C          2.1783  -21.9649  -55.1155 C.2       22 UNK         0.5000 
    122 N          1.2236  -21.6895  -55.9972 N.am      22 UNK        -0.7600 
    123 O          3.2501  -21.3696  -55.1812 O.2       22 UNK        -0.5000 
    124 C124        2.6871  -22.7954  -52.6919 C.3       23 UNK        -0.0398 
    125 S125        1.8594  -21.6197  -51.5657 S.3       23 UNK        -0.2404 
    126 C126        2.5850  -20.0335  -52.0767 C.3       23 UNK        -0.0205 
    127 H127       -5.6238  -14.4099  -48.5624 H         1 UNK         0.0600 
    128 H128       -5.3919  -12.6864  -48.2490 H         1 UNK         0.0600 
    129 H129       -6.0872  -13.7262  -47.0012 H         1 UNK         0.0600 
    130 H130       -3.6861  -15.4899  -48.5200 H         1 UNK         0.3000 
    131 H131       -1.2481  -14.5557  -47.6993 H         1 UNK         0.0600 
    132 H132       -0.4812  -16.9755  -47.8862 H         1 UNK         0.0800 
    133 H133       -2.1516  -17.4509  -47.9774 H         1 UNK         0.0800 
    134 H134        0.2545  -15.5327  -51.3893 H         1 UNK         0.0800 
    135 H135        0.4562  -15.0288  -49.7338 H         1 UNK         0.0800 
    136 H136        0.7844  -17.9557  -52.0483 H         1 UNK         0.1150 
    137 H137        3.9109  -19.7641  -49.7389 H         1 UNK         0.1150 
    138 H138        1.8872  -16.2930  -48.2536 H         1 UNK         0.1150 
    139 H139        4.8897  -18.0027  -47.8814 H         1 UNK         0.0800 
    140 H140        3.6245  -17.2550  -46.9372 H         1 UNK         0.0800 
    141 H141        1.5486  -18.4695  -46.2168 H         1 UNK         0.0800 
    142 H142        1.8365  -19.7789  -45.1087 H         1 UNK         0.0800 
    143 H143        0.8888  -20.0631  -47.9996 H         1 UNK         0.0600 
    144 H144        2.0380  -22.0663  -46.3110 H         1 UNK         0.3000 
    145 H145        0.6231  -24.8998  -47.9461 H         1 UNK         0.0600 
    146 H146        3.0312  -25.4191  -48.2323 H         1 UNK         0.0600 
    147 H147        2.5403  -24.1809  -49.3782 H         1 UNK         0.0600 
    148 H148        3.4599  -23.7313  -47.9477 H         1 UNK         0.0600 
    149 H149        2.5180  -24.5978  -45.8154 H         1 UNK         0.3000 
    150 H150        0.1884  -24.3343  -43.1378 H         1 UNK         0.0600 
    151 H151        1.9258  -26.7250  -43.9540 H         1 UNK         0.0600 
    152 H152        0.1990  -26.7872  -43.6216 H         1 UNK         0.0600 
    153 H153        1.3208  -26.3835  -42.3323 H         1 UNK         0.0600 
    154 H154        2.9943  -24.6459  -43.0968 H         1 UNK         0.3000 
    155 H155        4.1470  -22.6858  -42.2297 H         1 UNK         0.0600 
    156 H156        4.5479  -22.3269  -45.2559 H         1 UNK         0.0600 
    157 H157        4.8361  -23.8100  -44.3549 H         1 UNK         0.0600 
    158 H158        5.8387  -22.4044  -44.0588 H         1 UNK         0.0600 
    159 H159        4.4726  -20.3404  -43.8194 H         1 UNK         0.3000 
    160 H160        4.7064  -18.4916  -41.2392 H         1 UNK         0.0600 
    161 H161        4.0745  -18.1383  -44.2127 H         1 UNK         0.0600 
    162 H162        5.6005  -18.7221  -43.5429 H         1 UNK         0.0600 
    163 H163        5.0802  -17.0790  -43.2401 H         1 UNK         0.0600 
    164 H164        3.1537  -16.9508  -40.9795 H         1 UNK         0.3000 
    165 H165       -0.0439  -16.4012  -42.1092 H         1 UNK         0.0600 
    166 H166        0.5985  -14.6886  -40.4611 H         1 UNK         0.0600 
    167 H167        1.0582  -16.2827  -39.8929 H         1 UNK         0.0600 
    168 H168        2.2837  -15.1862  -40.5170 H         1 UNK         0.0600 
    169 H169        0.4499  -15.0434  -43.7988 H         1 UNK         0.3000 
    170 H170        3.1619  -12.9035  -44.6108 H         1 UNK         0.0600 
    171 H171        3.7147  -14.9998  -45.7832 H         1 UNK         0.0600 
    172 H172        2.0123  -15.3439  -46.0606 H         1 UNK         0.0600 
    173 H173        2.7766  -13.9630  -46.8482 H         1 UNK         0.0600 
    174 H174        0.2931  -13.6214  -45.1228 H         1 UNK         0.3000 
    175 H175       -0.5823  -10.1419  -45.1119 H         1 UNK         0.0600 
    176 H176       -0.7264  -12.2881  -47.2920 H         1 UNK         0.0600 
    177 H177       -1.7483  -10.8574  -47.1814 H         1 UNK         0.0600 
    178 H178       -0.0241  -10.6863  -47.4751 H         1 UNK         0.0600 
    179 H179       -2.2153  -12.4491  -45.2946 H         1 UNK         0.3000 
    180 H180       -2.9315  -12.6982  -41.7855 H         1 UNK         0.0600 
    181 H181       -4.3005  -10.8433  -42.7026 H         1 UNK         0.0600 
    182 H182       -5.1959  -12.3545  -42.7447 H         1 UNK         0.0600 
    183 H183       -4.4973  -11.7026  -44.2254 H         1 UNK         0.0600 
    184 H184       -3.4090  -13.9533  -44.4564 H         1 UNK         0.3000 
    185 H185       -1.8381  -16.9295  -43.5158 H         1 UNK         0.0600 
    186 H186       -3.9336  -18.1630  -43.9123 H         1 UNK         0.0600 
    187 H187       -3.9992  -17.4022  -42.3340 H         1 UNK         0.0600 
    188 H188       -4.8885  -16.6974  -43.6784 H         1 UNK         0.0600 
    189 H189       -3.5707  -16.3094  -45.6997 H         1 UNK         0.3000 
    190 H190       -0.1117  -21.5882  -44.9086 H         1 UNK         0.3000 
    191 H191       -2.5413  -20.1467  -44.5784 H         1 UNK         0.0600 
    192 H192       -1.4517  -21.4630  -42.7653 H         1 UNK         0.0600 
    193 H193       -3.1228  -21.9596  -42.9939 H         1 UNK         0.0600 
    194 H194       -1.8195  -22.9634  -43.6137 H         1 UNK         0.0600 
    195 H195       -1.8695  -23.2643  -46.2545 H         1 UNK         0.3000 
    196 H196       -4.5164  -23.8138  -47.0883 H         1 UNK         0.0600 
    197 H197       -3.4191  -25.3285  -48.7387 H         1 UNK         0.0600 
    198 H198       -2.7053  -25.5026  -47.1422 H         1 UNK         0.0600 
    199 H199       -1.8578  -24.5984  -48.3948 H         1 UNK         0.0600 
    200 H200       -1.9099  -21.9522  -48.7236 H         1 UNK         0.3000 
    201 H201       -3.2956  -21.3466  -51.0953 H         1 UNK         0.0600 
    202 H202       -1.5827  -19.5175  -51.3078 H         1 UNK         0.0600 
    203 H203       -0.8675  -21.0521  -50.8450 H         1 UNK         0.0600 
    204 H204       -1.0944  -19.7854  -49.6434 H         1 UNK         0.0600 
    205 H205       -3.6704  -19.9091  -47.9057 H         1 UNK         0.3000 
    206 H206       -5.0417  -17.5199  -48.7643 H         1 UNK         0.0600 
    207 H207       -3.9127  -18.0393  -46.4674 H         1 UNK         0.0600 
    208 H208       -5.4531  -17.1735  -46.4392 H         1 UNK         0.0600 
    209 H209       -5.3883  -18.8853  -46.0536 H         1 UNK         0.0600 
    210 H210       -6.0578  -20.7968  -47.7678 H         1 UNK         0.3000 
    211 H211       -8.9045  -20.2739  -47.9470 H         1 UNK         0.0600 
    212 H212       -7.3293  -22.8946  -47.7116 H         1 UNK         0.0600 
    213 H213       -9.0703  -22.7260  -47.5194 H         1 UNK         0.0600 
    214 H214       -7.9846  -21.9545  -46.3730 H         1 UNK         0.0600 
    215 H215       -6.4738  -21.9347  -49.9948 H         1 UNK         0.3000 
    216 H216       -8.3704  -22.6997  -52.0365 H         1 UNK         0.0600 
    217 H217       -6.2721  -23.4953  -53.1868 H         1 UNK         0.0600 
    218 H218       -6.4124  -24.0839  -51.5366 H         1 UNK         0.0600 
    219 H219       -5.3163  -22.7594  -51.9063 H         1 UNK         0.0600 
    220 H220       -6.7499  -19.7570  -51.4322 H         1 UNK         0.3000 
    221 H221       -6.5132  -17.8052  -52.4429 H         1 UNK         0.0600 
    222 H222       -8.5204  -18.7698  -54.5523 H         1 UNK         0.0600 
    223 H223       -8.9218  -17.9564  -53.0413 H         1 UNK         0.0600 
    224 H224       -8.0087  -17.1118  -54.2825 H         1 UNK         0.0600 
    225 H225       -4.4265  -18.8560  -52.6143 H         1 UNK         0.3000 
    226 H226       -2.4506  -19.2396  -53.5278 H         1 UNK         0.0600 
    227 H227       -1.8203  -18.7487  -55.8308 H         1 UNK         0.0600 
    228 H228       -3.4992  -18.6161  -56.3419 H         1 UNK         0.0600 
    229 H229       -2.8094  -17.4276  -55.2422 H         1 UNK         0.0600 
    230 H230       -2.5571  -20.6587  -56.3685 H         1 UNK         0.3000 
    231 H231       -2.6636  -22.6482  -57.2658 H         1 UNK         0.0600 
    232 H232       -5.0450  -23.1921  -55.4202 H         1 UNK         0.0600 
    233 H233       -4.6443  -24.0785  -56.8831 H         1 UNK         0.0600 
    234 H234       -5.1130  -22.3882  -56.9861 H         1 UNK         0.0600 
    235 H235       -2.7885  -22.9880  -53.7375 H         1 UNK         0.3000 
    236 H236       -1.8097  -25.6527  -53.5318 H         1 UNK         0.0600 
    237 H237       -2.9999  -24.4308  -51.6984 H         1 UNK         0.0600 
    238 H238       -1.4476  -25.0389  -51.1416 H         1 UNK         0.0600 
    239 H239       -1.6302  -23.3348  -51.5275 H         1 UNK         0.0600 
    240 H240       -0.1240  -22.6043  -53.9733 H         1 UNK         0.3000 
    241 H241        2.3990  -23.9396  -54.4726 H         1 UNK         0.0600 
    242 H242        0.3806  -22.2367  -56.0397 H         1 UNK         0.3800 
    243 H243        1.3996  -20.9887  -56.7002 H         1 UNK         0.3800 
    244 H244        2.7655  -23.7388  -52.1505 H         1 UNK         0.0800 
    245 H245        3.7187  -22.4848  -52.8632 H         1 UNK         0.0800 
    246 H246        3.6546  -20.1534  -52.2550 H         1 UNK         0.0800 
    247 H247        2.1441  -19.7206  -53.0241 H         1 UNK         0.0800 
@<TRIPOS>BOND
     1    1    2 1    
     2    1  127 1    
     3    1  128 1    
     4    1  129 1    
     5    2    3 2    
     6    2    4 am   BACKBONE|DICT|INTERRES
     7    4    5 1    
     8    4  130 1    
     9    5    6 1    
    10    5   65 1    
    11    5  131 1    
    12    6    7 1    
    13    6  132 1    
    14    6  133 1    
    15    7    8 1    
    16    8    9 1    
    17    8  134 1    
    18    8  135 1    
    19    9   10 ar   
    20    9   14 ar   
    21   10   11 ar   
    22   10  136 1    
    23   11   12 ar   
    24   11  126 1    
    25   12   13 ar   
    26   12  137 1    
    27   13   14 ar   
    28   13   15 1    
    29   14  138 1    
    30   15   16 1    
    31   15  139 1    
    32   15  140 1    
    33   16   17 1    
    34   17   18 1    
    35   17  141 1    
    36   17  142 1    
    37   18   19 1    
    38   18   67 1    
    39   18  143 1    
    40   19   20 am   BACKBONE|DICT|INTERRES
    41   19  144 1    
    42   20   21 2    
    43   20   22 1    
    44   22   23 1    
    45   22   24 1    
    46   22  145 1    
    47   23  146 1    
    48   23  147 1    
    49   23  148 1    
    50   24   25 am   BACKBONE|DICT|INTERRES
    51   24  149 1    
    52   25   26 2    
    53   25   27 1    
    54   27   28 1    
    55   27   29 1    
    56   27  150 1    
    57   28  151 1    
    58   28  152 1    
    59   28  153 1    
    60   29   30 am   BACKBONE|DICT|INTERRES
    61   29  154 1    
    62   30   31 2    
    63   30   32 1    
    64   32   33 1    
    65   32   34 1    
    66   32  155 1    
    67   33  156 1    
    68   33  157 1    
    69   33  158 1    
    70   34   35 am   BACKBONE|DICT|INTERRES
    71   34  159 1    
    72   35   36 2    
    73   35   37 1    
    74   37   38 1    
    75   37   39 1    
    76   37  160 1    
    77   38  161 1    
    78   38  162 1    
    79   38  163 1    
    80   39   40 am   BACKBONE|DICT|INTERRES
    81   39  164 1    
    82   40   41 2    
    83   40   42 1    
    84   42   43 1    
    85   42   44 1    
    86   42  165 1    
    87   43  166 1    
    88   43  167 1    
    89   43  168 1    
    90   44   45 am   BACKBONE|DICT|INTERRES
    91   44  169 1    
    92   45   46 2    
    93   45   47 1    
    94   47   48 1    
    95   47   49 1    
    96   47  170 1    
    97   48  171 1    
    98   48  172 1    
    99   48  173 1    
   100   49   50 am   BACKBONE|DICT|INTERRES
   101   49  174 1    
   102   50   51 2    
   103   50   52 1    
   104   52   53 1    
   105   52   54 1    
   106   52  175 1    
   107   53  176 1    
   108   53  177 1    
   109   53  178 1    
   110   54   55 am   BACKBONE|DICT|INTERRES
   111   54  179 1    
   112   55   56 2    
   113   55   57 1    
   114   57   58 1    
   115   57   59 1    
   116   57  180 1    
   117   58  181 1    
   118   58  182 1    
   119   58  183 1    
   120   59   60 am   BACKBONE|DICT|INTERRES
   121   59  184 1    
   122   60   61 2    
   123   60   62 1    
   124   62   63 1    
   125   62   64 1    
   126   62  185 1    
   127   63  186 1    
   128   63  187 1    
   129   63  188 1    
   130   64   65 am   BACKBONE|DICT|INTERRES
   131   64  189 1    
   132   65   66 2    
   133   67   68 2    
   134   67   69 am   BACKBONE|DICT|INTERRES
   135   69   70 1    
   136   69  190 1    
   137   70   71 1    
   138   70   72 1    
   139   70  191 1    
   140   71  192 1    
   141   71  193 1    
   142   71  194 1    
   143   72   73 2    
   144   72   74 am   BACKBONE|DICT|INTERRES
   145   74   75 1    
   146   74  195 1    
   147   75   76 1    
   148   75   77 1    
   149   75  196 1    
   150   76  197 1    
   151   76  198 1    
   152   76  199 1    
   153   77   78 2    
   154   77   79 am   BACKBONE|DICT|INTERRES
   155   79   80 1    
   156   79  200 1    
   157   80   81 1    
   158   80   82 1    
   159   80  201 1    
   160   81  202 1    
   161   81  203 1    
   162   81  204 1    
   163   82   83 2    
   164   82   84 am   BACKBONE|DICT|INTERRES
   165   84   85 1    
   166   84  205 1    
   167   85   86 1    
   168   85   87 1    
   169   85  206 1    
   170   86  207 1    
   171   86  208 1    
   172   86  209 1    
   173   87   88 2    
   174   87   89 am   BACKBONE|DICT|INTERRES
   175   89   90 1    
   176   89  210 1    
   177   90   91 1    
   178   90   92 1    
   179   90  211 1    
   180   91  212 1    
   181   91  213 1    
   182   91  214 1    
   183   92   93 2    
   184   92   94 am   BACKBONE|DICT|INTERRES
   185   94   95 1    
   186   94  215 1    
   187   95   96 1    
   188   95   97 1    
   189   95  216 1    
   190   96  217 1    
   191   96  218 1    
   192   96  219 1    
   193   97   98 2    
   194   97   99 am   BACKBONE|DICT|INTERRES
   195   99  100 1    
   196   99  220 1    
   197  100  101 1    
   198  100  102 1    
   199  100  221 1    
   200  101  222 1    
   201  101  223 1    
   202  101  224 1    
   203  102  103 2    
   204  102  104 am   BACKBONE|DICT|INTERRES
   205  104  105 1    
   206  104  225 1    
   207  105  106 1    
   208  105  107 1    
   209  105  226 1    
   210  106  227 1    
   211  106  228 1    
   212  106  229 1    
   213  107  108 2    
   214  107  109 am   BACKBONE|DICT|INTERRES
   215  109  110 1    
   216  109  230 1    
   217  110  111 1    
   218  110  112 1    
   219  110  231 1    
   220  111  232 1    
   221  111  233 1    
   222  111  234 1    
   223  112  113 2    
   224  112  114 am   BACKBONE|DICT|INTERRES
   225  114  115 1    
   226  114  235 1    
   227  115  116 1    
   228  115  117 1    
   229  115  236 1    
   230  116  237 1    
   231  116  238 1    
   232  116  239 1    
   233  117  118 2    
   234  117  119 am   BACKBONE|DICT|INTERRES
   235  119  120 1    
   236  119  240 1    
   237  120  121 1    
   238  120  124 1    
   239  120  241 1    
   240  121  122 am   BACKBONE|DICT|INTERRES
   241  121  123 2    
   242  122  242 1    
   243  122  243 1    
   244  124  125 1    
   245  124  244 1    
   246  124  245 1    
   247  125  126 1    
   248  126  246 1    
   249  126  247 1    
@<TRIPOS>SUBSTRUCTURE
     1 UNK         1 GROUP             0       ****    0 ROOT    
