@<TRIPOS>MOLECULE
3R540
247   249    1
SMALL
USER_CHARGES


@<TRIPOS>ATOM
      1 CA          2.1027   -7.5609  -50.9515 C.3       0 UNK        -0.1800 
      2 C           1.9948   -9.0595  -51.1974 C.2       0 UNK         0.5000 
      3 O           2.4483   -9.5441  -52.2349 O.2       0 UNK        -0.5000 
      4 N           1.3898   -9.7912  -50.2534 N.am      1 UNK        -0.5000 
      5 CA          1.2568  -11.2513  -50.2813 C.3       1 UNK         0.1400 
      6 C6          0.1229  -11.7230  -49.3351 C.3       23 UNK        -0.0398 
      7 S7         -0.5948  -13.3235  -49.8441 S.3       23 UNK        -0.2404 
      8 C8         -0.3034  -14.3160  -48.3520 C.3       23 UNK        -0.0205 
      9 C9         -0.5765  -15.7866  -48.6001 C.ar      23 UNK        -0.0193 
     10 C10        -1.8687  -16.2946  -48.4567 C.ar      23 UNK        -0.1150 
     11 C11        -2.1204  -17.6483  -48.6849 C.ar      23 UNK        -0.0193 
     12 C12        -1.0702  -18.4933  -49.0500 C.ar      23 UNK        -0.1150 
     13 C13         0.2346  -18.0030  -49.1828 C.ar      23 UNK        -0.0193 
     14 C14         0.4671  -16.6426  -48.9637 C.ar      23 UNK        -0.1150 
     15 C15         1.4132  -18.8961  -49.5755 C.3       23 UNK        -0.0205 
     16 S16         1.2079  -20.6788  -49.2282 S.3       23 UNK        -0.2404 
     17 C17         1.0184  -20.6620  -47.4156 C.3       23 UNK        -0.0398 
     18 CA          0.5486  -22.0116  -46.8258 C.3       11 UNK         0.1400 
     19 N           0.7213  -22.0315  -45.3729 N.am      11 UNK        -0.5000 
     20 C           0.6123  -23.1181  -44.5980 C.2       10 UNK         0.5000 
     21 O           0.4220  -24.2520  -45.0339 O.2       10 UNK        -0.5000 
     22 CA          0.6865  -22.8922  -43.0769 C.3       10 UNK         0.1400 
     23 CB          2.1472  -22.8378  -42.6062 C.3       10 UNK        -0.1800 
     24 N          -0.0164  -21.6788  -42.6539 N.am      10 UNK        -0.5000 
     25 C          -1.3385  -21.4897  -42.7740 C.2       9 UNK         0.5000 
     26 O          -2.1103  -22.3483  -43.2001 O.2       9 UNK        -0.5000 
     27 CA         -1.8849  -20.0964  -42.4073 C.3       9 UNK         0.1400 
     28 CB         -2.0478  -19.9516  -40.8876 C.3       9 UNK        -0.1800 
     29 N          -1.0497  -19.0097  -42.9226 N.am      9 UNK        -0.5000 
     30 C          -0.8469  -18.7642  -44.2254 C.2       8 UNK         0.5000 
     31 O          -1.3886  -19.3961  -45.1306 O.2       8 UNK        -0.5000 
     32 CA          0.1814  -17.6759  -44.5786 C.3       8 UNK         0.1400 
     33 CB         -0.4555  -16.2791  -44.5660 C.3       8 UNK        -0.1800 
     34 N           1.3416  -17.7148  -43.6856 N.am      8 UNK        -0.5000 
     35 C           2.2447  -18.7063  -43.6852 C.2       7 UNK         0.5000 
     36 O           2.2238  -19.6458  -44.4793 O.2       7 UNK        -0.5000 
     37 CA          3.3165  -18.6738  -42.5826 C.3       7 UNK         0.1400 
     38 CB          4.5131  -17.8018  -42.9901 C.3       7 UNK        -0.1800 
     39 N           2.7722  -18.2153  -41.3039 N.am      7 UNK        -0.5000 
     40 C           1.9482  -18.9544  -40.5468 C.2       6 UNK         0.5000 
     41 O           1.5937  -20.0935  -40.8462 O.2       6 UNK        -0.5000 
     42 CA          1.3970  -18.3161  -39.2588 C.3       6 UNK         0.1400 
     43 CB          2.3196  -18.6249  -38.0707 C.3       6 UNK        -0.1800 
     44 N           1.1994  -16.8699  -39.3500 N.am      6 UNK        -0.5000 
     45 C           0.3740  -16.2494  -40.2036 C.2       5 UNK         0.5000 
     46 O          -0.3103  -16.8423  -41.0402 O.2       5 UNK        -0.5000 
     47 CA          0.3150  -14.7068  -40.1312 C.3       5 UNK         0.1400 
     48 CB          1.1913  -14.0947  -39.0145 C.3       5 UNK        -0.1800 
     49 N           0.6331  -14.0603  -41.4091 N.am      5 UNK        -0.5000 
     50 C           1.7096  -14.2749  -42.1773 C.2       4 UNK         0.5000 
     51 O           2.5649  -15.1369  -41.9548 O.2       4 UNK        -0.5000 
     52 CA          1.8623  -13.3557  -43.3954 C.3       4 UNK         0.1400 
     53 CB          2.4687  -12.0001  -42.9917 C.3       4 UNK        -0.1800 
     54 N           2.7223  -14.0125  -44.3730 N.am      4 UNK        -0.5000 
     55 C           2.6875  -13.7980  -45.6900 C.2       3 UNK         0.5000 
     56 O           1.9652  -12.9512  -46.2233 O.2       3 UNK        -0.5000 
     57 CA          3.5897  -14.6930  -46.5555 C.3       3 UNK         0.1400 
     58 CB          3.2138  -16.1807  -46.4171 C.3       3 UNK        -0.1800 
     59 N           3.4548  -14.2862  -47.9488 N.am      3 UNK        -0.5000 
     60 C           4.3427  -14.4916  -48.9249 C.2       2 UNK         0.5000 
     61 O           5.4198  -15.0630  -48.7496 O.2       2 UNK        -0.5000 
     62 CA          3.9720  -14.0013  -50.3422 C.3       2 UNK         0.1400 
     63 CB          3.8213  -15.1960  -51.2991 C.3       2 UNK        -0.1800 
     64 N           2.7493  -13.1937  -50.4242 N.am      2 UNK        -0.5000 
     65 C           2.6093  -11.9394  -49.9768 C.2       1 UNK         0.5000 
     66 O           3.4874  -11.3401  -49.3507 O.2       1 UNK        -0.5000 
     67 C          -0.8985  -22.3831  -47.2282 C.2       11 UNK         0.5000 
     68 O          -1.0857  -23.2328  -48.1000 O.2       11 UNK        -0.5000 
     69 N          -1.8988  -21.8045  -46.5447 N.am      12 UNK        -0.5000 
     70 CA         -3.3185  -22.1352  -46.7044 C.3       12 UNK         0.1400 
     71 CB         -4.1766  -21.2254  -45.8103 C.3       12 UNK        -0.1800 
     72 C          -3.6184  -23.6164  -46.4057 C.2       12 UNK         0.5000 
     73 O          -4.3091  -24.2663  -47.1918 O.2       12 UNK        -0.5000 
     74 N          -3.0444  -24.1326  -45.3084 N.am      13 UNK        -0.5000 
     75 CA         -3.1222  -25.5349  -44.8885 C.3       13 UNK         0.1400 
     76 CB         -2.5337  -25.6764  -43.4770 C.3       13 UNK        -0.1800 
     77 C          -2.4401  -26.5164  -45.8637 C.2       13 UNK         0.5000 
     78 O          -2.8415  -27.6784  -45.9270 O.2       13 UNK        -0.5000 
     79 N          -1.4639  -26.0289  -46.6423 N.am      14 UNK        -0.5000 
     80 CA         -0.8102  -26.7419  -47.7438 C.3       14 UNK         0.1400 
     81 CB          0.6147  -26.1918  -47.9305 C.3       14 UNK        -0.1800 
     82 C          -1.6237  -26.7011  -49.0593 C.2       14 UNK         0.5000 
     83 O          -1.0920  -27.0623  -50.1097 O.2       14 UNK        -0.5000 
     84 N          -2.8954  -26.2833  -48.9755 N.am      15 UNK        -0.5000 
     85 CA         -3.9240  -26.2497  -50.0168 C.3       15 UNK         0.1400 
     86 CB         -4.0933  -27.6125  -50.7207 C.3       15 UNK        -0.1800 
     87 C          -3.7953  -25.0796  -51.0060 C.2       15 UNK         0.5000 
     88 O          -4.5059  -25.0718  -52.0136 O.2       15 UNK        -0.5000 
     89 N          -2.9782  -24.0618  -50.6881 N.am      16 UNK        -0.5000 
     90 CA         -2.8812  -22.8222  -51.4718 C.3       16 UNK         0.1400 
     91 CB         -1.7797  -21.9217  -50.9062 C.3       16 UNK        -0.1800 
     92 C          -4.2094  -22.0462  -51.5347 C.2       16 UNK         0.5000 
     93 O          -4.4690  -21.3698  -52.5286 O.2       16 UNK        -0.5000 
     94 N          -5.0516  -22.2116  -50.5049 N.am      17 UNK        -0.5000 
     95 CA         -6.4081  -21.6694  -50.4196 C.3       17 UNK         0.1400 
     96 CB         -6.9393  -21.9030  -48.9977 C.3       17 UNK        -0.1800 
     97 C          -7.3806  -22.2396  -51.4723 C.2       17 UNK         0.5000 
     98 O          -8.4078  -21.6135  -51.7323 O.2       17 UNK        -0.5000 
     99 N          -7.0440  -23.3955  -52.0596 N.am      18 UNK        -0.5000 
    100 CA        -7.7635  -24.0038  -53.1749 C.3       18 UNK         0.1400 
    101 CB        -8.0090  -25.4897  -52.8658 C.3       18 UNK        -0.1800 
    102 C         -6.9720  -23.8483  -54.4841 C.2       18 UNK         0.5000 
    103 O         -7.5636  -23.5187  -55.5124 O.2       18 UNK        -0.5000 
    104 N         -5.6568  -24.1049  -54.4314 N.am      19 UNK        -0.5000 
    105 CA        -4.7782  -24.1606  -55.6000 C.3       19 UNK         0.1400 
    106 CB        -3.4836  -24.8951  -55.2190 C.3       19 UNK        -0.1800 
    107 C         -4.4551  -22.7894  -56.2215 C.2       19 UNK         0.5000 
    108 O         -4.2806  -22.7178  -57.4391 O.2       19 UNK        -0.5000 
    109 N         -4.3630  -21.7412  -55.3934 N.am      20 UNK        -0.5000 
    110 CA        -4.0179  -20.3818  -55.8121 C.3       20 UNK         0.1400 
    111 CB        -2.6920  -19.9605  -55.1532 C.3       20 UNK        -0.1800 
    112 C         -5.1415  -19.3971  -55.4626 C.2       20 UNK         0.5000 
    113 O         -5.5825  -18.6539  -56.3395 O.2       20 UNK        -0.5000 
    114 N         -5.5780  -19.4219  -54.1943 N.am      21 UNK        -0.5000 
    115 CA        -6.5820  -18.5549  -53.5685 C.3       21 UNK         0.1400 
    116 CB        -7.9873  -18.9710  -54.0504 C.3       21 UNK        -0.1800 
    117 C         -6.3060  -17.0423  -53.7803 C.2       21 UNK         0.5000 
    118 O         -7.0921  -16.3724  -54.4506 O.2       21 UNK        -0.5000 
    119 N         -5.2087  -16.4766  -53.2598 N.am      22 UNK        -0.5000 
    120 CA        -4.1790  -17.0631  -52.3916 C.3       22 UNK         0.1400 
    121 C         -2.8156  -16.3425  -52.5869 C.2       22 UNK         0.5000 
    122 N         -1.7642  -16.7989  -51.9240 N.am      22 UNK        -0.7600 
    123 O         -2.6963  -15.3750  -53.3367 O.2       22 UNK        -0.5000 
    124 C124       -4.6372  -17.1126  -50.9044 C.3       23 UNK        -0.0398 
    125 S125       -4.2358  -18.7079  -50.1230 S.3       23 UNK        -0.2404 
    126 C126       -3.5217  -18.2093  -48.5290 C.3       23 UNK        -0.0205 
    127 H127        1.6497   -7.2715  -50.0030 H         1 UNK         0.0600 
    128 H128        3.1498   -7.2584  -50.9342 H         1 UNK         0.0600 
    129 H129        1.6013   -7.0124  -51.7489 H         1 UNK         0.0600 
    130 H130        1.0720   -9.3372  -49.4091 H         1 UNK         0.3000 
    131 H131        0.9764  -11.5192  -51.3028 H         1 UNK         0.0600 
    132 H132       -0.6989  -11.0057  -49.3555 H         1 UNK         0.0800 
    133 H133        0.4579  -11.7539  -48.2964 H         1 UNK         0.0800 
    134 H134       -0.9231  -13.9461  -47.5337 H         1 UNK         0.0800 
    135 H135        0.7292  -14.1952  -48.0389 H         1 UNK         0.0800 
    136 H136       -2.6760  -15.6336  -48.1747 H         1 UNK         0.1150 
    137 H137       -1.2815  -19.5366  -49.2238 H         1 UNK         0.1150 
    138 H138        1.4668  -16.2474  -49.0736 H         1 UNK         0.1150 
    139 H139        1.5936  -18.7729  -50.6439 H         1 UNK         0.0800 
    140 H140        2.3167  -18.5541  -49.0680 H         1 UNK         0.0800 
    141 H141        1.9938  -20.4006  -47.0037 H         1 UNK         0.0800 
    142 H142        0.3434  -19.8615  -47.1154 H         1 UNK         0.0800 
    143 H143        1.2009  -22.7903  -47.2272 H         1 UNK         0.0600 
    144 H144        0.9430  -21.1444  -44.9334 H         1 UNK         0.3000 
    145 H145        0.2057  -23.7433  -42.5906 H         1 UNK         0.0600 
    146 H146        2.6769  -21.9858  -43.0328 H         1 UNK         0.0600 
    147 H147        2.2084  -22.7603  -41.5206 H         1 UNK         0.0600 
    148 H148        2.6857  -23.7401  -42.8986 H         1 UNK         0.0600 
    149 H149        0.5493  -20.9524  -42.2245 H         1 UNK         0.3000 
    150 H150       -2.8723  -19.9970  -42.8630 H         1 UNK         0.0600 
    151 H151       -2.4495  -18.9729  -40.6239 H         1 UNK         0.0600 
    152 H152       -1.0996  -20.0767  -40.3664 H         1 UNK         0.0600 
    153 H153       -2.7357  -20.7030  -40.4981 H         1 UNK         0.0600 
    154 H154       -0.6087  -18.4024  -42.2390 H         1 UNK         0.3000 
    155 H155        0.5268  -17.8719  -45.5959 H         1 UNK         0.0600 
    156 H156       -0.7860  -15.9909  -43.5680 H         1 UNK         0.0600 
    157 H157       -1.3252  -16.2446  -45.2237 H         1 UNK         0.0600 
    158 H158        0.2445  -15.5253  -44.9229 H         1 UNK         0.0600 
    159 H159        1.3984  -17.0076  -42.9653 H         1 UNK         0.3000 
    160 H160        3.6831  -19.6942  -42.4516 H         1 UNK         0.0600 
    161 H161        4.2338  -16.7572  -43.1188 H         1 UNK         0.0600 
    162 H162        4.9415  -18.1453  -43.9326 H         1 UNK         0.0600 
    163 H163        5.3031  -17.8451  -42.2403 H         1 UNK         0.0600 
    164 H164        2.9728  -17.2610  -41.0331 H         1 UNK         0.3000 
    165 H165        0.4240  -18.7679  -39.0582 H         1 UNK         0.0600 
    166 H166        3.3030  -18.1698  -38.1956 H         1 UNK         0.0600 
    167 H167        1.8956  -18.2590  -37.1354 H         1 UNK         0.0600 
    168 H168        2.4671  -19.7001  -37.9600 H         1 UNK         0.0600 
    169 H169        1.7392  -16.3024  -38.7130 H         1 UNK         0.3000 
    170 H170       -0.7237  -14.4590  -39.9087 H         1 UNK         0.0600 
    171 H171        0.9176  -14.4847  -38.0332 H         1 UNK         0.0600 
    172 H172        2.2528  -14.2896  -39.1731 H         1 UNK         0.0600 
    173 H173        1.0618  -13.0132  -38.9705 H         1 UNK         0.0600 
    174 H174       -0.0276  -13.3552  -41.7040 H         1 UNK         0.3000 
    175 H175        0.8722  -13.1989  -43.8294 H         1 UNK         0.0600 
    176 H176        3.4632  -12.1196  -42.5600 H         1 UNK         0.0600 
    177 H177        2.5546  -11.3337  -43.8500 H         1 UNK         0.0600 
    178 H178        1.8469  -11.4952  -42.2515 H         1 UNK         0.0600 
    179 H179        3.3099  -14.7373  -43.9813 H         1 UNK         0.3000 
    180 H180        4.6221  -14.5414  -46.2338 H         1 UNK         0.0600 
    181 H181        3.3910  -16.5364  -45.4042 H         1 UNK         0.0600 
    182 H182        2.1622  -16.3515  -46.6458 H         1 UNK         0.0600 
    183 H183        3.8063  -16.8091  -47.0821 H         1 UNK         0.0600 
    184 H184        2.6432  -13.7132  -48.1362 H         1 UNK         0.3000 
    185 H185        4.8042  -13.3878  -50.6932 H         1 UNK         0.0600 
    186 H186        3.6452  -14.8630  -52.3221 H         1 UNK         0.0600 
    187 H187        4.7246  -15.8074  -51.3119 H         1 UNK         0.0600 
    188 H188        2.9925  -15.8427  -51.0089 H         1 UNK         0.0600 
    189 H189        1.9694  -13.6221  -50.9030 H         1 UNK         0.3000 
    190 H190       -1.6766  -21.0741  -45.8718 H         1 UNK         0.3000 
    191 H191       -3.5837  -21.9391  -47.7451 H         1 UNK         0.0600 
    192 H192       -5.2384  -21.3831  -46.0013 H         1 UNK         0.0600 
    193 H193       -3.9672  -20.1714  -45.9838 H         1 UNK         0.0600 
    194 H194       -4.0070  -21.4194  -44.7520 H         1 UNK         0.0600 
    195 H195       -2.5302  -23.5070  -44.6935 H         1 UNK         0.3000 
    196 H196       -4.1791  -25.8053  -44.8431 H         1 UNK         0.0600 
    197 H197       -2.6210  -26.7025  -43.1177 H         1 UNK         0.0600 
    198 H198       -3.0563  -25.0371  -42.7653 H         1 UNK         0.0600 
    199 H199       -1.4773  -25.4096  -43.4537 H         1 UNK         0.0600 
    200 H200       -1.1761  -25.0677  -46.5049 H         1 UNK         0.3000 
    201 H201       -0.7190  -27.7938  -47.4664 H         1 UNK         0.0600 
    202 H202        1.1730  -26.2162  -46.9944 H         1 UNK         0.0600 
    203 H203        0.6110  -25.1640  -48.2908 H         1 UNK         0.0600 
    204 H204        1.1725  -26.7874  -48.6539 H         1 UNK         0.0600 
    205 H205       -3.2067  -25.9375  -48.0760 H         1 UNK         0.3000 
    206 H206       -4.8541  -26.0595  -49.4795 H         1 UNK         0.0600 
    207 H207       -4.1873  -28.4228  -49.9977 H         1 UNK         0.0600 
    208 H208       -4.9936  -27.6236  -51.3363 H         1 UNK         0.0600 
    209 H209       -3.2531  -27.8397  -51.3769 H         1 UNK         0.0600 
    210 H210       -2.4231  -24.1163  -49.8425 H         1 UNK         0.3000 
    211 H211       -2.6060  -23.0920  -52.4922 H         1 UNK         0.0600 
    212 H212       -1.6310  -21.0418  -51.5337 H         1 UNK         0.0600 
    213 H213       -0.8265  -22.4471  -50.8478 H         1 UNK         0.0600 
    214 H214       -2.0356  -21.5688  -49.9081 H         1 UNK         0.0600 
    215 H215       -4.7552  -22.8014  -49.7416 H         1 UNK         0.3000 
    216 H216       -6.3571  -20.5940  -50.5928 H         1 UNK         0.0600 
    217 H217       -7.9504  -21.5092  -48.8863 H         1 UNK         0.0600 
    218 H218       -6.3144  -21.4004  -48.2597 H         1 UNK         0.0600 
    219 H219       -6.9689  -22.9644  -48.7478 H         1 UNK         0.0600 
    220 H220       -6.1721  -23.8379  -51.7972 H         1 UNK         0.3000 
    221 H221       -8.7352  -23.5256  -53.3151 H         1 UNK         0.0600 
    222 H222       -7.0759  -26.0330  -52.7110 H         1 UNK         0.0600 
    223 H223       -8.6160  -25.6076  -51.9681 H         1 UNK         0.0600 
    224 H224       -8.5411  -25.9760  -53.6844 H         1 UNK         0.0600 
    225 H225       -5.2484  -24.4126  -53.5523 H         1 UNK         0.3000 
    226 H226       -5.2815  -24.7535  -56.3668 H         1 UNK         0.0600 
    227 H227       -2.8268  -25.0040  -56.0829 H         1 UNK         0.0600 
    228 H228       -2.9276  -24.3594  -54.4501 H         1 UNK         0.0600 
    229 H229       -3.6940  -25.8964  -54.8422 H         1 UNK         0.0600 
    230 H230       -4.5439  -21.8728  -54.4038 H         1 UNK         0.3000 
    231 H231       -3.8771  -20.3340  -56.8938 H         1 UNK         0.0600 
    232 H232       -2.4240  -18.9406  -55.4322 H         1 UNK         0.0600 
    233 H233       -1.8754  -20.6093  -55.4700 H         1 UNK         0.0600 
    234 H234       -2.7422  -19.9989  -54.0649 H         1 UNK         0.0600 
    235 H235       -5.1355  -20.0856  -53.5606 H         1 UNK         0.3000 
    236 H236       -6.5362  -18.7456  -52.4959 H         1 UNK         0.0600 
    237 H237       -8.1228  -18.7856  -55.1165 H         1 UNK         0.0600 
    238 H238       -8.1659  -20.0316  -53.8770 H         1 UNK         0.0600 
    239 H239       -8.7623  -18.4185  -53.5182 H         1 UNK         0.0600 
    240 H240       -5.0103  -15.5142  -53.4972 H         1 UNK         0.3000 
    241 H241       -3.9874  -18.0734  -52.7474 H         1 UNK         0.0600 
    242 H242       -0.8811  -16.3278  -52.0332 H         1 UNK         0.3800 
    243 H243       -1.8465  -17.5504  -51.2564 H         1 UNK         0.3800 
    244 H244       -5.7183  -16.9940  -50.8238 H         1 UNK         0.0800 
    245 H245       -4.2185  -16.2867  -50.3266 H         1 UNK         0.0800 
    246 H246       -4.1838  -17.4993  -48.0312 H         1 UNK         0.0800 
    247 H247       -3.4707  -19.0876  -47.8877 H         1 UNK         0.0800 
@<TRIPOS>BOND
     1    1    2 1    
     2    1  127 1    
     3    1  128 1    
     4    1  129 1    
     5    2    3 2    
     6    2    4 am   BACKBONE|DICT|INTERRES
     7    4    5 1    
     8    4  130 1    
     9    5    6 1    
    10    5   65 1    
    11    5  131 1    
    12    6    7 1    
    13    6  132 1    
    14    6  133 1    
    15    7    8 1    
    16    8    9 1    
    17    8  134 1    
    18    8  135 1    
    19    9   10 ar   
    20    9   14 ar   
    21   10   11 ar   
    22   10  136 1    
    23   11   12 ar   
    24   11  126 1    
    25   12   13 ar   
    26   12  137 1    
    27   13   14 ar   
    28   13   15 1    
    29   14  138 1    
    30   15   16 1    
    31   15  139 1    
    32   15  140 1    
    33   16   17 1    
    34   17   18 1    
    35   17  141 1    
    36   17  142 1    
    37   18   19 1    
    38   18   67 1    
    39   18  143 1    
    40   19   20 am   BACKBONE|DICT|INTERRES
    41   19  144 1    
    42   20   21 2    
    43   20   22 1    
    44   22   23 1    
    45   22   24 1    
    46   22  145 1    
    47   23  146 1    
    48   23  147 1    
    49   23  148 1    
    50   24   25 am   BACKBONE|DICT|INTERRES
    51   24  149 1    
    52   25   26 2    
    53   25   27 1    
    54   27   28 1    
    55   27   29 1    
    56   27  150 1    
    57   28  151 1    
    58   28  152 1    
    59   28  153 1    
    60   29   30 am   BACKBONE|DICT|INTERRES
    61   29  154 1    
    62   30   31 2    
    63   30   32 1    
    64   32   33 1    
    65   32   34 1    
    66   32  155 1    
    67   33  156 1    
    68   33  157 1    
    69   33  158 1    
    70   34   35 am   BACKBONE|DICT|INTERRES
    71   34  159 1    
    72   35   36 2    
    73   35   37 1    
    74   37   38 1    
    75   37   39 1    
    76   37  160 1    
    77   38  161 1    
    78   38  162 1    
    79   38  163 1    
    80   39   40 am   BACKBONE|DICT|INTERRES
    81   39  164 1    
    82   40   41 2    
    83   40   42 1    
    84   42   43 1    
    85   42   44 1    
    86   42  165 1    
    87   43  166 1    
    88   43  167 1    
    89   43  168 1    
    90   44   45 am   BACKBONE|DICT|INTERRES
    91   44  169 1    
    92   45   46 2    
    93   45   47 1    
    94   47   48 1    
    95   47   49 1    
    96   47  170 1    
    97   48  171 1    
    98   48  172 1    
    99   48  173 1    
   100   49   50 am   BACKBONE|DICT|INTERRES
   101   49  174 1    
   102   50   51 2    
   103   50   52 1    
   104   52   53 1    
   105   52   54 1    
   106   52  175 1    
   107   53  176 1    
   108   53  177 1    
   109   53  178 1    
   110   54   55 am   BACKBONE|DICT|INTERRES
   111   54  179 1    
   112   55   56 2    
   113   55   57 1    
   114   57   58 1    
   115   57   59 1    
   116   57  180 1    
   117   58  181 1    
   118   58  182 1    
   119   58  183 1    
   120   59   60 am   BACKBONE|DICT|INTERRES
   121   59  184 1    
   122   60   61 2    
   123   60   62 1    
   124   62   63 1    
   125   62   64 1    
   126   62  185 1    
   127   63  186 1    
   128   63  187 1    
   129   63  188 1    
   130   64   65 am   BACKBONE|DICT|INTERRES
   131   64  189 1    
   132   65   66 2    
   133   67   68 2    
   134   67   69 am   BACKBONE|DICT|INTERRES
   135   69   70 1    
   136   69  190 1    
   137   70   71 1    
   138   70   72 1    
   139   70  191 1    
   140   71  192 1    
   141   71  193 1    
   142   71  194 1    
   143   72   73 2    
   144   72   74 am   BACKBONE|DICT|INTERRES
   145   74   75 1    
   146   74  195 1    
   147   75   76 1    
   148   75   77 1    
   149   75  196 1    
   150   76  197 1    
   151   76  198 1    
   152   76  199 1    
   153   77   78 2    
   154   77   79 am   BACKBONE|DICT|INTERRES
   155   79   80 1    
   156   79  200 1    
   157   80   81 1    
   158   80   82 1    
   159   80  201 1    
   160   81  202 1    
   161   81  203 1    
   162   81  204 1    
   163   82   83 2    
   164   82   84 am   BACKBONE|DICT|INTERRES
   165   84   85 1    
   166   84  205 1    
   167   85   86 1    
   168   85   87 1    
   169   85  206 1    
   170   86  207 1    
   171   86  208 1    
   172   86  209 1    
   173   87   88 2    
   174   87   89 am   BACKBONE|DICT|INTERRES
   175   89   90 1    
   176   89  210 1    
   177   90   91 1    
   178   90   92 1    
   179   90  211 1    
   180   91  212 1    
   181   91  213 1    
   182   91  214 1    
   183   92   93 2    
   184   92   94 am   BACKBONE|DICT|INTERRES
   185   94   95 1    
   186   94  215 1    
   187   95   96 1    
   188   95   97 1    
   189   95  216 1    
   190   96  217 1    
   191   96  218 1    
   192   96  219 1    
   193   97   98 2    
   194   97   99 am   BACKBONE|DICT|INTERRES
   195   99  100 1    
   196   99  220 1    
   197  100  101 1    
   198  100  102 1    
   199  100  221 1    
   200  101  222 1    
   201  101  223 1    
   202  101  224 1    
   203  102  103 2    
   204  102  104 am   BACKBONE|DICT|INTERRES
   205  104  105 1    
   206  104  225 1    
   207  105  106 1    
   208  105  107 1    
   209  105  226 1    
   210  106  227 1    
   211  106  228 1    
   212  106  229 1    
   213  107  108 2    
   214  107  109 am   BACKBONE|DICT|INTERRES
   215  109  110 1    
   216  109  230 1    
   217  110  111 1    
   218  110  112 1    
   219  110  231 1    
   220  111  232 1    
   221  111  233 1    
   222  111  234 1    
   223  112  113 2    
   224  112  114 am   BACKBONE|DICT|INTERRES
   225  114  115 1    
   226  114  235 1    
   227  115  116 1    
   228  115  117 1    
   229  115  236 1    
   230  116  237 1    
   231  116  238 1    
   232  116  239 1    
   233  117  118 2    
   234  117  119 am   BACKBONE|DICT|INTERRES
   235  119  120 1    
   236  119  240 1    
   237  120  121 1    
   238  120  124 1    
   239  120  241 1    
   240  121  122 am   BACKBONE|DICT|INTERRES
   241  121  123 2    
   242  122  242 1    
   243  122  243 1    
   244  124  125 1    
   245  124  244 1    
   246  124  245 1    
   247  125  126 1    
   248  126  246 1    
   249  126  247 1    
@<TRIPOS>SUBSTRUCTURE
     1 UNK         1 GROUP             0       ****    0 ROOT    
