@<TRIPOS>MOLECULE
3R540
247   249    1
SMALL
USER_CHARGES


@<TRIPOS>ATOM
      1 CA          4.6798  -11.1650  -48.8532 C.3       0 UNK        -0.1800 
      2 C           4.2644  -11.7351  -47.5052 C.2       0 UNK         0.5000 
      3 O           4.6809  -11.2214  -46.4674 O.2       0 UNK        -0.5000 
      4 N           3.4287  -12.7824  -47.5118 N.am      1 UNK        -0.5000 
      5 CA          2.9240  -13.4818  -46.3207 C.3       1 UNK         0.1400 
      6 C6          2.1484  -14.7700  -46.6894 C.3       23 UNK        -0.0398 
      7 S7          0.7535  -14.5165  -47.8411 S.3       23 UNK        -0.2404 
      8 C8          0.3266  -16.2446  -48.2131 C.3       23 UNK        -0.0205 
      9 C9         -1.1698  -16.4128  -48.4035 C.ar      23 UNK        -0.0193 
     10 C10        -1.7450  -16.3498  -49.6759 C.ar      23 UNK        -0.1150 
     11 C11        -3.1251  -16.5135  -49.8364 C.ar      23 UNK        -0.0193 
     12 C12        -3.9301  -16.7171  -48.7111 C.ar      23 UNK        -0.1150 
     13 C13        -3.3630  -16.7832  -47.4362 C.ar      23 UNK        -0.0193 
     14 C14        -1.9832  -16.6378  -47.2919 C.ar      23 UNK        -0.1150 
     15 C15        -4.2336  -16.9937  -46.2082 C.3       23 UNK        -0.0205 
     16 S16        -4.0357  -18.6619  -45.5115 S.3       23 UNK        -0.2404 
     17 C17        -4.8427  -19.7012  -46.7775 C.3       23 UNK        -0.0398 
     18 CA         -3.9991  -20.9127  -47.2405 C.3       11 UNK         0.1400 
     19 N          -2.7124  -20.5366  -47.8465 N.am      11 UNK        -0.5000 
     20 C          -1.9692  -21.3916  -48.5628 C.2       10 UNK         0.5000 
     21 O          -2.2763  -22.5700  -48.7356 O.2       10 UNK        -0.5000 
     22 CA         -0.6577  -20.8818  -49.1835 C.3       10 UNK         0.1400 
     23 CB         -0.9439  -19.9887  -50.3970 C.3       10 UNK        -0.1800 
     24 N           0.2894  -20.2121  -48.2863 N.am      10 UNK        -0.5000 
     25 C           0.6590  -20.6056  -47.0585 C.2       9 UNK         0.5000 
     26 O           0.0427  -21.4261  -46.3801 O.2       9 UNK        -0.5000 
     27 CA          1.9718  -20.0265  -46.5055 C.3       9 UNK         0.1400 
     28 CB          2.8416  -19.2839  -47.5445 C.3       9 UNK        -0.1800 
     29 N           1.7072  -19.1636  -45.3587 N.am      9 UNK        -0.5000 
     30 C           2.5494  -18.9972  -44.3296 C.2       8 UNK         0.5000 
     31 O           3.6231  -19.5922  -44.2270 O.2       8 UNK        -0.5000 
     32 CA          2.1603  -17.9796  -43.2408 C.3       8 UNK         0.1400 
     33 CB          3.0901  -16.7550  -43.2959 C.3       8 UNK        -0.1800 
     34 N           0.7781  -17.5160  -43.3552 N.am      8 UNK        -0.5000 
     35 C          -0.2798  -18.0952  -42.7755 C.2       7 UNK         0.5000 
     36 O          -0.2098  -19.1397  -42.1274 O.2       7 UNK        -0.5000 
     37 CA         -1.6251  -17.3504  -42.9219 C.3       7 UNK         0.1400 
     38 CB         -2.7490  -17.9704  -42.0736 C.3       7 UNK        -0.1800 
     39 N          -1.4926  -15.9346  -42.5720 N.am      7 UNK        -0.5000 
     40 C          -0.9965  -14.9823  -43.3697 C.2       6 UNK         0.5000 
     41 O          -0.6343  -15.1910  -44.5256 O.2       6 UNK        -0.5000 
     42 CA         -0.7546  -13.6026  -42.7445 C.3       6 UNK         0.1400 
     43 CB         -2.0305  -12.9694  -42.1538 C.3       6 UNK        -0.1800 
     44 N           0.3603  -13.6502  -41.7929 N.am      6 UNK        -0.5000 
     45 C           0.3981  -14.2328  -40.5845 C.2       5 UNK         0.5000 
     46 O          -0.5855  -14.7474  -40.0496 O.2       5 UNK        -0.5000 
     47 CA          1.7588  -14.3005  -39.8565 C.3       5 UNK         0.1400 
     48 CB          2.0818  -15.7470  -39.4413 C.3       5 UNK        -0.1800 
     49 N           2.8875  -13.7841  -40.6362 N.am      5 UNK        -0.5000 
     50 C           3.2066  -12.4924  -40.7843 C.2       4 UNK         0.5000 
     51 O           2.5453  -11.5749  -40.2952 O.2       4 UNK        -0.5000 
     52 CA          4.4699  -12.1688  -41.6082 C.3       4 UNK         0.1400 
     53 CB          5.0774  -13.3855  -42.3387 C.3       4 UNK        -0.1800 
     54 N           4.1454  -11.1476  -42.5974 N.am      4 UNK        -0.5000 
     55 C           4.4371   -9.8438  -42.5021 C.2       3 UNK         0.5000 
     56 O           5.0828   -9.3537  -41.5742 O.2       3 UNK        -0.5000 
     57 CA          3.9377   -8.9238  -43.6353 C.3       3 UNK         0.1400 
     58 CB          5.1140   -8.4371  -44.4968 C.3       3 UNK        -0.1800 
     59 N           2.9520   -9.5777  -44.4996 N.am      3 UNK        -0.5000 
     60 C           1.6419   -9.6573  -44.2231 C.2       2 UNK         0.5000 
     61 O           1.1193   -9.1208  -43.2460 O.2       2 UNK        -0.5000 
     62 CA          0.7616  -10.4832  -45.1833 C.3       2 UNK         0.1400 
     63 CB          0.0702   -9.5638  -46.2010 C.3       2 UNK        -0.1800 
     64 N           1.4855  -11.5283  -45.9092 N.am      2 UNK        -0.5000 
     65 C           2.1182  -12.5761  -45.3614 C.2       1 UNK         0.5000 
     66 O           2.1378  -12.8046  -44.1506 O.2       1 UNK        -0.5000 
     67 C          -3.8601  -21.9782  -46.1296 C.2       11 UNK         0.5000 
     68 O          -4.6968  -22.8788  -46.0475 O.2       11 UNK        -0.5000 
     69 N          -2.7850  -21.8917  -45.3327 N.am      12 UNK        -0.5000 
     70 CA         -2.4419  -22.8664  -44.2944 C.3       12 UNK         0.1400 
     71 CB         -1.4163  -22.2489  -43.3323 C.3       12 UNK        -0.1800 
     72 C          -1.9186  -24.1869  -44.8901 C.2       12 UNK         0.5000 
     73 O          -2.1137  -25.2464  -44.2952 O.2       12 UNK        -0.5000 
     74 N          -1.3156  -24.1030  -46.0822 N.am      13 UNK        -0.5000 
     75 CA         -0.8580  -25.2215  -46.9052 C.3       13 UNK         0.1400 
     76 CB          0.3429  -24.7479  -47.7437 C.3       13 UNK        -0.1800 
     77 C          -1.9765  -25.8209  -47.7893 C.2       13 UNK         0.5000 
     78 O          -1.6666  -26.4566  -48.7973 O.2       13 UNK        -0.5000 
     79 N          -3.2493  -25.6085  -47.4183 N.am      14 UNK        -0.5000 
     80 CA         -4.4639  -26.1000  -48.0804 C.3       14 UNK         0.1400 
     81 CB         -4.5563  -27.6373  -47.9811 C.3       14 UNK        -0.1800 
     82 C          -4.5934  -25.5808  -49.5257 C.2       14 UNK         0.5000 
     83 O          -4.7457  -26.3663  -50.4630 O.2       14 UNK        -0.5000 
     84 N          -4.4804  -24.2537  -49.6711 N.am      15 UNK        -0.5000 
     85 CA         -4.4501  -23.5021  -50.9302 C.3       15 UNK         0.1400 
     86 CB         -5.8074  -23.5860  -51.6550 C.3       15 UNK        -0.1800 
     87 C          -3.2555  -23.9169  -51.8131 C.2       15 UNK         0.5000 
     88 O          -3.4103  -24.1159  -53.0180 O.2       15 UNK        -0.5000 
     89 N          -2.0893  -24.0732  -51.1690 N.am      16 UNK        -0.5000 
     90 CA         -0.8263  -24.5774  -51.7169 C.3       16 UNK         0.1400 
     91 CB         -0.2125  -23.5418  -52.6813 C.3       16 UNK        -0.1800 
     92 C          -0.9954  -25.9723  -52.3553 C.2       16 UNK         0.5000 
     93 O          -0.6460  -26.1671  -53.5188 O.2       16 UNK        -0.5000 
     94 N          -1.5921  -26.9002  -51.5929 N.am      17 UNK        -0.5000 
     95 CA         -2.0220  -28.2414  -52.0074 C.3       17 UNK         0.1400 
     96 CB         -0.8011  -29.1518  -52.2525 C.3       17 UNK        -0.1800 
     97 C          -3.0022  -28.2014  -53.2020 C.2       17 UNK         0.5000 
     98 O          -2.8613  -28.9715  -54.1538 O.2       17 UNK        -0.5000 
     99 N          -3.9614  -27.2684  -53.1270 N.am      18 UNK        -0.5000 
    100 CA        -4.9866  -26.9331  -54.1203 C.3       18 UNK         0.1400 
    101 CB        -5.9574  -28.1157  -54.3197 C.3       18 UNK        -0.1800 
    102 C         -4.4490  -26.3768  -55.4595 C.2       18 UNK         0.5000 
    103 O         -5.2060  -26.3250  -56.4310 O.2       18 UNK        -0.5000 
    104 N         -3.1755  -25.9597  -55.5090 N.am      19 UNK        -0.5000 
    105 CA        -2.5565  -25.3694  -56.6974 C.3       19 UNK         0.1400 
    106 CB        -1.0382  -25.5955  -56.6537 C.3       19 UNK        -0.1800 
    107 C         -2.8639  -23.8683  -56.8484 C.2       19 UNK         0.5000 
    108 O         -2.8561  -23.3687  -57.9748 O.2       19 UNK        -0.5000 
    109 N         -3.1113  -23.1733  -55.7310 N.am      20 UNK        -0.5000 
    110 CA        -3.4286  -21.7479  -55.6888 C.3       20 UNK         0.1400 
    111 CB        -2.6583  -21.1040  -54.5217 C.3       20 UNK        -0.1800 
    112 C         -4.9414  -21.5308  -55.5199 C.2       20 UNK         0.5000 
    113 O         -5.6774  -22.4583  -55.1769 O.2       20 UNK        -0.5000 
    114 N         -5.3724  -20.2802  -55.7262 N.am      21 UNK        -0.5000 
    115 CA        -6.7466  -19.8205  -55.4967 C.3       21 UNK         0.1400 
    116 CB        -6.9850  -18.5554  -56.3367 C.3       21 UNK        -0.1800 
    117 C         -7.0561  -19.5469  -54.0082 C.2       21 UNK         0.5000 
    118 O         -8.2144  -19.3043  -53.6680 O.2       21 UNK        -0.5000 
    119 N         -6.0213  -19.5794  -53.1590 N.am      22 UNK        -0.5000 
    120 CA        -5.9874  -19.2856  -51.7135 C.3       22 UNK         0.1400 
    121 C         -6.8569  -20.2039  -50.7932 C.2       22 UNK         0.5000 
    122 N         -7.9714  -20.7458  -51.2589 N.am      22 UNK        -0.7600 
    123 O         -6.5219  -20.4304  -49.6343 O.2       22 UNK        -0.5000 
    124 C124       -4.5178  -19.1963  -51.2174 C.3       23 UNK        -0.0398 
    125 S125       -3.5012  -18.0036  -52.1581 S.3       23 UNK        -0.2404 
    126 C126       -3.7492  -16.4594  -51.2231 C.3       23 UNK        -0.0205 
    127 H127        5.7626  -11.2188  -48.9645 H         1 UNK         0.0600 
    128 H128        4.3799  -10.1197  -48.9262 H         1 UNK         0.0600 
    129 H129        4.2245  -11.7090  -49.6812 H         1 UNK         0.0600 
    130 H130        3.1008  -13.1474  -48.3952 H         1 UNK         0.3000 
    131 H131        3.8046  -13.7945  -45.7552 H         1 UNK         0.0600 
    132 H132        2.8375  -15.4854  -47.1407 H         1 UNK         0.0800 
    133 H133        1.7629  -15.2541  -45.7917 H         1 UNK         0.0800 
    134 H134        0.6497  -16.8874  -47.3939 H         1 UNK         0.0800 
    135 H135        0.8687  -16.5713  -49.1017 H         1 UNK         0.0800 
    136 H136       -1.1202  -16.1828  -50.5420 H         1 UNK         0.1150 
    137 H137       -4.9988  -16.8289  -48.8290 H         1 UNK         0.1150 
    138 H138       -1.5428  -16.6903  -46.3080 H         1 UNK         0.1150 
    139 H139       -3.9589  -16.2614  -45.4474 H         1 UNK         0.0800 
    140 H140       -5.2854  -16.8160  -46.4375 H         1 UNK         0.0800 
    141 H141       -5.0926  -19.0919  -47.6454 H         1 UNK         0.0800 
    142 H142       -5.8029  -20.0377  -46.3827 H         1 UNK         0.0800 
    143 H143       -4.5766  -21.3932  -48.0332 H         1 UNK         0.0600 
    144 H144       -2.4005  -19.5852  -47.7139 H         1 UNK         0.3000 
    145 H145       -0.1334  -21.7635  -49.5568 H         1 UNK         0.0600 
    146 H146       -1.4509  -19.0709  -50.1038 H         1 UNK         0.0600 
    147 H147       -0.0261  -19.7145  -50.9169 H         1 UNK         0.0600 
    148 H148       -1.5804  -20.5012  -51.1196 H         1 UNK         0.0600 
    149 H149        0.8648  -19.5110  -48.7282 H         1 UNK         0.3000 
    150 H150        2.5393  -20.8964  -46.1674 H         1 UNK         0.0600 
    151 H151        3.0486  -19.9141  -48.4105 H         1 UNK         0.0600 
    152 H152        3.8071  -19.0110  -47.1180 H         1 UNK         0.0600 
    153 H153        2.3736  -18.3672  -47.8993 H         1 UNK         0.0600 
    154 H154        0.8169  -18.6888  -45.3424 H         1 UNK         0.3000 
    155 H155        2.2963  -18.4629  -42.2709 H         1 UNK         0.0600 
    156 H156        4.1083  -17.0289  -43.0168 H         1 UNK         0.0600 
    157 H157        2.7634  -15.9733  -42.6115 H         1 UNK         0.0600 
    158 H158        3.1355  -16.3241  -44.2950 H         1 UNK         0.0600 
    159 H159        0.6168  -16.6589  -43.8729 H         1 UNK         0.3000 
    160 H160       -1.9157  -17.4269  -43.9698 H         1 UNK         0.0600 
    161 H161       -3.6926  -17.4474  -42.2305 H         1 UNK         0.0600 
    162 H162       -2.5165  -17.9344  -41.0087 H         1 UNK         0.0600 
    163 H163       -2.9124  -19.0147  -42.3430 H         1 UNK         0.0600 
    164 H164       -1.6336  -15.6932  -41.5972 H         1 UNK         0.3000 
    165 H165       -0.4299  -12.9524  -43.5546 H         1 UNK         0.0600 
    166 H166       -2.4713  -13.5692  -41.3581 H         1 UNK         0.0600 
    167 H167       -1.8228  -11.9788  -41.7491 H         1 UNK         0.0600 
    168 H168       -2.7918  -12.8513  -42.9256 H         1 UNK         0.0600 
    169 H169        1.2318  -13.2923  -42.1645 H         1 UNK         0.3000 
    170 H170        1.6626  -13.7036  -38.9472 H         1 UNK         0.0600 
    171 H171        2.1361  -16.4132  -40.3027 H         1 UNK         0.0600 
    172 H172        3.0325  -15.8039  -38.9108 H         1 UNK         0.0600 
    173 H173        1.3180  -16.1438  -38.7714 H         1 UNK         0.0600 
    174 H174        3.4799  -14.4736  -41.0745 H         1 UNK         0.3000 
    175 H175        5.2181  -11.7946  -40.9069 H         1 UNK         0.0600 
    176 H176        4.3697  -13.8474  -43.0278 H         1 UNK         0.0600 
    177 H177        5.9512  -13.0900  -42.9199 H         1 UNK         0.0600 
    178 H178        5.4112  -14.1484  -41.6344 H         1 UNK         0.0600 
    179 H179        3.5499  -11.4528  -43.3572 H         1 UNK         0.3000 
    180 H180        3.4806   -8.0484  -43.1693 H         1 UNK         0.0600 
    181 H181        5.6584   -9.2689  -44.9442 H         1 UNK         0.0600 
    182 H182        5.8254   -7.8671  -43.8980 H         1 UNK         0.0600 
    183 H183        4.7727   -7.7861  -45.3018 H         1 UNK         0.0600 
    184 H184        3.3216  -10.0689  -45.3062 H         1 UNK         0.3000 
    185 H185       -0.0117  -10.9634  -44.5831 H         1 UNK         0.0600 
    186 H186       -0.6230  -10.1222  -46.8305 H         1 UNK         0.0600 
    187 H187       -0.5052   -8.7855  -45.6978 H         1 UNK         0.0600 
    188 H188        0.7927   -9.0692  -46.8516 H         1 UNK         0.0600 
    189 H189        1.5352  -11.4259  -46.9124 H         1 UNK         0.3000 
    190 H190       -2.1022  -21.1687  -45.5159 H         1 UNK         0.3000 
    191 H191       -3.3451  -23.0947  -43.7245 H         1 UNK         0.0600 
    192 H192       -0.4868  -21.9879  -43.8386 H         1 UNK         0.0600 
    193 H193       -1.8089  -21.3445  -42.8677 H         1 UNK         0.0600 
    194 H194       -1.1673  -22.9437  -42.5294 H         1 UNK         0.0600 
    195 H195       -1.1784  -23.1781  -46.4736 H         1 UNK         0.3000 
    196 H196       -0.5115  -26.0224  -46.2494 H         1 UNK         0.0600 
    197 H197        1.1293  -24.3395  -47.1086 H         1 UNK         0.0600 
    198 H198        0.0555  -23.9746  -48.4550 H         1 UNK         0.0600 
    199 H199        0.7807  -25.5709  -48.3097 H         1 UNK         0.0600 
    200 H200       -3.4034  -25.0413  -46.5963 H         1 UNK         0.3000 
    201 H201       -5.3071  -25.6834  -47.5272 H         1 UNK         0.0600 
    202 H202       -5.5069  -27.9960  -48.3775 H         1 UNK         0.0600 
    203 H203       -4.4906  -27.9696  -46.9452 H         1 UNK         0.0600 
    204 H204       -3.7629  -28.1315  -48.5426 H         1 UNK         0.0600 
    205 H205       -4.2542  -23.7140  -48.8461 H         1 UNK         0.3000 
    206 H206       -4.2874  -22.4588  -50.6605 H         1 UNK         0.0600 
    207 H207       -5.8324  -22.9152  -52.5139 H         1 UNK         0.0600 
    208 H208       -6.6227  -23.2964  -50.9931 H         1 UNK         0.0600 
    209 H209       -6.0179  -24.5912  -52.0161 H         1 UNK         0.0600 
    210 H210       -2.0866  -23.8556  -50.1770 H         1 UNK         0.3000 
    211 H211       -0.1433  -24.6989  -50.8754 H         1 UNK         0.0600 
    212 H212       -0.1081  -22.5682  -52.2028 H         1 UNK         0.0600 
    213 H213        0.7804  -23.8538  -53.0066 H         1 UNK         0.0600 
    214 H214       -0.8219  -23.4121  -53.5760 H         1 UNK         0.0600 
    215 H215       -1.8060  -26.6565  -50.6272 H         1 UNK         0.3000 
    216 H216       -2.5809  -28.6550  -51.1666 H         1 UNK         0.0600 
    217 H217       -1.1128  -30.1789  -52.4454 H         1 UNK         0.0600 
    218 H218       -0.2142  -28.8216  -53.1101 H         1 UNK         0.0600 
    219 H219       -0.1439  -29.1704  -51.3832 H         1 UNK         0.0600 
    220 H220       -4.0081  -26.7206  -52.2723 H         1 UNK         0.3000 
    221 H221       -5.5596  -26.1168  -53.6821 H         1 UNK         0.0600 
    222 H222       -6.3428  -28.4738  -53.3651 H         1 UNK         0.0600 
    223 H223       -6.8167  -27.8214  -54.9231 H         1 UNK         0.0600 
    224 H224       -5.4766  -28.9538  -54.8246 H         1 UNK         0.0600 
    225 H225       -2.6072  -26.0096  -54.6719 H         1 UNK         0.3000 
    226 H226       -2.9396  -25.8793  -57.5839 H         1 UNK         0.0600 
    227 H227       -0.7964  -26.6464  -56.4929 H         1 UNK         0.0600 
    228 H228       -0.5743  -25.2932  -57.5933 H         1 UNK         0.0600 
    229 H229       -0.5678  -25.0151  -55.8595 H         1 UNK         0.0600 
    230 H230       -3.1870  -23.6672  -54.8443 H         1 UNK         0.3000 
    231 H231       -3.1142  -21.2624  -56.6149 H         1 UNK         0.0600 
    232 H232       -2.7898  -20.0217  -54.5108 H         1 UNK         0.0600 
    233 H233       -1.5881  -21.2927  -54.6050 H         1 UNK         0.0600 
    234 H234       -2.9900  -21.4824  -53.5550 H         1 UNK         0.0600 
    235 H235       -4.7104  -19.5743  -56.0164 H         1 UNK         0.3000 
    236 H236       -7.4404  -20.5918  -55.8377 H         1 UNK         0.0600 
    237 H237       -6.8202  -18.7488  -57.3969 H         1 UNK         0.0600 
    238 H238       -8.0110  -18.2008  -56.2295 H         1 UNK         0.0600 
    239 H239       -6.3237  -17.7418  -56.0358 H         1 UNK         0.0600 
    240 H240       -5.1211  -19.7831  -53.5635 H         1 UNK         0.3000 
    241 H241       -6.4232  -18.2927  -51.5935 H         1 UNK         0.0600 
    242 H242       -8.2953  -20.4817  -52.1837 H         1 UNK         0.3800 
    243 H243       -8.5364  -21.3302  -50.6647 H         1 UNK         0.3800 
    244 H244       -4.4738  -18.9445  -50.1587 H         1 UNK         0.0800 
    245 H245       -4.0413  -20.1727  -51.3035 H         1 UNK         0.0800 
    246 H246       -3.3056  -15.6356  -51.7840 H         1 UNK         0.0800 
    247 H247       -4.8164  -16.2418  -51.1596 H         1 UNK         0.0800 
@<TRIPOS>BOND
     1    1    2 1    
     2    1  127 1    
     3    1  128 1    
     4    1  129 1    
     5    2    3 2    
     6    2    4 am   BACKBONE|DICT|INTERRES
     7    4    5 1    
     8    4  130 1    
     9    5    6 1    
    10    5   65 1    
    11    5  131 1    
    12    6    7 1    
    13    6  132 1    
    14    6  133 1    
    15    7    8 1    
    16    8    9 1    
    17    8  134 1    
    18    8  135 1    
    19    9   10 ar   
    20    9   14 ar   
    21   10   11 ar   
    22   10  136 1    
    23   11   12 ar   
    24   11  126 1    
    25   12   13 ar   
    26   12  137 1    
    27   13   14 ar   
    28   13   15 1    
    29   14  138 1    
    30   15   16 1    
    31   15  139 1    
    32   15  140 1    
    33   16   17 1    
    34   17   18 1    
    35   17  141 1    
    36   17  142 1    
    37   18   19 1    
    38   18   67 1    
    39   18  143 1    
    40   19   20 am   BACKBONE|DICT|INTERRES
    41   19  144 1    
    42   20   21 2    
    43   20   22 1    
    44   22   23 1    
    45   22   24 1    
    46   22  145 1    
    47   23  146 1    
    48   23  147 1    
    49   23  148 1    
    50   24   25 am   BACKBONE|DICT|INTERRES
    51   24  149 1    
    52   25   26 2    
    53   25   27 1    
    54   27   28 1    
    55   27   29 1    
    56   27  150 1    
    57   28  151 1    
    58   28  152 1    
    59   28  153 1    
    60   29   30 am   BACKBONE|DICT|INTERRES
    61   29  154 1    
    62   30   31 2    
    63   30   32 1    
    64   32   33 1    
    65   32   34 1    
    66   32  155 1    
    67   33  156 1    
    68   33  157 1    
    69   33  158 1    
    70   34   35 am   BACKBONE|DICT|INTERRES
    71   34  159 1    
    72   35   36 2    
    73   35   37 1    
    74   37   38 1    
    75   37   39 1    
    76   37  160 1    
    77   38  161 1    
    78   38  162 1    
    79   38  163 1    
    80   39   40 am   BACKBONE|DICT|INTERRES
    81   39  164 1    
    82   40   41 2    
    83   40   42 1    
    84   42   43 1    
    85   42   44 1    
    86   42  165 1    
    87   43  166 1    
    88   43  167 1    
    89   43  168 1    
    90   44   45 am   BACKBONE|DICT|INTERRES
    91   44  169 1    
    92   45   46 2    
    93   45   47 1    
    94   47   48 1    
    95   47   49 1    
    96   47  170 1    
    97   48  171 1    
    98   48  172 1    
    99   48  173 1    
   100   49   50 am   BACKBONE|DICT|INTERRES
   101   49  174 1    
   102   50   51 2    
   103   50   52 1    
   104   52   53 1    
   105   52   54 1    
   106   52  175 1    
   107   53  176 1    
   108   53  177 1    
   109   53  178 1    
   110   54   55 am   BACKBONE|DICT|INTERRES
   111   54  179 1    
   112   55   56 2    
   113   55   57 1    
   114   57   58 1    
   115   57   59 1    
   116   57  180 1    
   117   58  181 1    
   118   58  182 1    
   119   58  183 1    
   120   59   60 am   BACKBONE|DICT|INTERRES
   121   59  184 1    
   122   60   61 2    
   123   60   62 1    
   124   62   63 1    
   125   62   64 1    
   126   62  185 1    
   127   63  186 1    
   128   63  187 1    
   129   63  188 1    
   130   64   65 am   BACKBONE|DICT|INTERRES
   131   64  189 1    
   132   65   66 2    
   133   67   68 2    
   134   67   69 am   BACKBONE|DICT|INTERRES
   135   69   70 1    
   136   69  190 1    
   137   70   71 1    
   138   70   72 1    
   139   70  191 1    
   140   71  192 1    
   141   71  193 1    
   142   71  194 1    
   143   72   73 2    
   144   72   74 am   BACKBONE|DICT|INTERRES
   145   74   75 1    
   146   74  195 1    
   147   75   76 1    
   148   75   77 1    
   149   75  196 1    
   150   76  197 1    
   151   76  198 1    
   152   76  199 1    
   153   77   78 2    
   154   77   79 am   BACKBONE|DICT|INTERRES
   155   79   80 1    
   156   79  200 1    
   157   80   81 1    
   158   80   82 1    
   159   80  201 1    
   160   81  202 1    
   161   81  203 1    
   162   81  204 1    
   163   82   83 2    
   164   82   84 am   BACKBONE|DICT|INTERRES
   165   84   85 1    
   166   84  205 1    
   167   85   86 1    
   168   85   87 1    
   169   85  206 1    
   170   86  207 1    
   171   86  208 1    
   172   86  209 1    
   173   87   88 2    
   174   87   89 am   BACKBONE|DICT|INTERRES
   175   89   90 1    
   176   89  210 1    
   177   90   91 1    
   178   90   92 1    
   179   90  211 1    
   180   91  212 1    
   181   91  213 1    
   182   91  214 1    
   183   92   93 2    
   184   92   94 am   BACKBONE|DICT|INTERRES
   185   94   95 1    
   186   94  215 1    
   187   95   96 1    
   188   95   97 1    
   189   95  216 1    
   190   96  217 1    
   191   96  218 1    
   192   96  219 1    
   193   97   98 2    
   194   97   99 am   BACKBONE|DICT|INTERRES
   195   99  100 1    
   196   99  220 1    
   197  100  101 1    
   198  100  102 1    
   199  100  221 1    
   200  101  222 1    
   201  101  223 1    
   202  101  224 1    
   203  102  103 2    
   204  102  104 am   BACKBONE|DICT|INTERRES
   205  104  105 1    
   206  104  225 1    
   207  105  106 1    
   208  105  107 1    
   209  105  226 1    
   210  106  227 1    
   211  106  228 1    
   212  106  229 1    
   213  107  108 2    
   214  107  109 am   BACKBONE|DICT|INTERRES
   215  109  110 1    
   216  109  230 1    
   217  110  111 1    
   218  110  112 1    
   219  110  231 1    
   220  111  232 1    
   221  111  233 1    
   222  111  234 1    
   223  112  113 2    
   224  112  114 am   BACKBONE|DICT|INTERRES
   225  114  115 1    
   226  114  235 1    
   227  115  116 1    
   228  115  117 1    
   229  115  236 1    
   230  116  237 1    
   231  116  238 1    
   232  116  239 1    
   233  117  118 2    
   234  117  119 am   BACKBONE|DICT|INTERRES
   235  119  120 1    
   236  119  240 1    
   237  120  121 1    
   238  120  124 1    
   239  120  241 1    
   240  121  122 am   BACKBONE|DICT|INTERRES
   241  121  123 2    
   242  122  242 1    
   243  122  243 1    
   244  124  125 1    
   245  124  244 1    
   246  124  245 1    
   247  125  126 1    
   248  126  246 1    
   249  126  247 1    
@<TRIPOS>SUBSTRUCTURE
     1 UNK         1 GROUP             0       ****    0 ROOT    
