@<TRIPOS>MOLECULE
3R540
247   249    1
SMALL
USER_CHARGES


@<TRIPOS>ATOM
      1 CA          2.9138  -20.1551  -48.1183 C.3       0 UNK        -0.1800 
      2 C           2.7126  -19.0456  -49.1388 C.2       0 UNK         0.5000 
      3 O           3.6743  -18.6232  -49.7802 O.2       0 UNK        -0.5000 
      4 N           1.4646  -18.5826  -49.2855 N.am      1 UNK        -0.5000 
      5 CA          1.0211  -17.5432  -50.2258 C.3       1 UNK         0.1400 
      6 C6          1.1944  -17.9212  -51.7265 C.3       23 UNK        -0.0398 
      7 S7          0.5799  -19.5915  -52.1482 S.3       23 UNK        -0.2404 
      8 C8         -1.1262  -19.2613  -52.7026 C.3       23 UNK        -0.0205 
      9 C9         -2.0289  -18.7066  -51.6055 C.ar      23 UNK        -0.0193 
     10 C10        -2.9057  -17.6599  -51.8949 C.ar      23 UNK        -0.1150 
     11 C11        -3.7491  -17.1443  -50.9070 C.ar      23 UNK        -0.0193 
     12 C12        -3.6941  -17.6619  -49.6096 C.ar      23 UNK        -0.1150 
     13 C13        -2.8158  -18.7044  -49.3008 C.ar      23 UNK        -0.0193 
     14 C14        -2.0083  -19.2356  -50.3107 C.ar      23 UNK        -0.1150 
     15 C15        -2.7396  -19.2569  -47.8825 C.3       23 UNK        -0.0205 
     16 S16        -1.0523  -19.1403  -47.2035 S.3       23 UNK        -0.2404 
     17 C17        -1.2852  -19.7881  -45.5177 C.3       23 UNK        -0.0398 
     18 CA         -0.6758  -21.2004  -45.3184 C.3       11 UNK         0.1400 
     19 N          -0.0191  -21.3314  -44.0100 N.am      11 UNK        -0.5000 
     20 C           0.6283  -22.4147  -43.5505 C.2       10 UNK         0.5000 
     21 O           0.7096  -23.4779  -44.1668 O.2       10 UNK        -0.5000 
     22 CA          1.2631  -22.2996  -42.1562 C.3       10 UNK         0.1400 
     23 CB          2.7280  -21.8539  -42.2752 C.3       10 UNK        -0.1800 
     24 N           0.5460  -21.3496  -41.3100 N.am      10 UNK        -0.5000 
     25 C          -0.6191  -21.5802  -40.6912 C.2       9 UNK         0.5000 
     26 O          -1.2116  -22.6588  -40.7441 O.2       9 UNK        -0.5000 
     27 CA         -1.2364  -20.3928  -39.9184 C.3       9 UNK         0.1400 
     28 CB         -2.0393  -20.8368  -38.6787 C.3       9 UNK        -0.1800 
     29 N          -0.2603  -19.3489  -39.5801 N.am      9 UNK        -0.5000 
     30 C           0.7950  -19.4418  -38.7554 C.2       8 UNK         0.5000 
     31 O           1.0471  -20.4343  -38.0716 O.2       8 UNK        -0.5000 
     32 CA          1.7651  -18.2425  -38.7164 C.3       8 UNK         0.1400 
     33 CB          3.0810  -18.6094  -39.4215 C.3       8 UNK        -0.1800 
     34 N           1.2256  -17.0291  -39.3346 N.am      8 UNK        -0.5000 
     35 C           0.2856  -16.2459  -38.7882 C.2       7 UNK         0.5000 
     36 O          -0.1899  -16.4289  -37.6671 O.2       7 UNK        -0.5000 
     37 CA         -0.2368  -15.0852  -39.6555 C.3       7 UNK         0.1400 
     38 CB          0.6758  -13.8570  -39.5207 C.3       7 UNK        -0.1800 
     39 N          -0.3732  -15.4406  -41.0709 N.am      7 UNK        -0.5000 
     40 C          -1.2167  -16.3653  -41.5527 C.2       6 UNK         0.5000 
     41 O          -1.9887  -17.0187  -40.8515 O.2       6 UNK        -0.5000 
     42 CA         -1.1464  -16.6537  -43.0628 C.3       6 UNK         0.1400 
     43 CB         -1.8719  -15.5738  -43.8779 C.3       6 UNK        -0.1800 
     44 N           0.2315  -16.7852  -43.5333 N.am      6 UNK        -0.5000 
     45 C           1.0593  -17.7793  -43.1838 C.2       5 UNK         0.5000 
     46 O           0.7204  -18.7429  -42.4963 O.2       5 UNK        -0.5000 
     47 CA          2.5098  -17.6792  -43.6782 C.3       5 UNK         0.1400 
     48 CB          2.6437  -18.2889  -45.0817 C.3       5 UNK        -0.1800 
     49 N           2.9952  -16.2988  -43.6812 N.am      5 UNK        -0.5000 
     50 C           3.2328  -15.5840  -42.5713 C.2       4 UNK         0.5000 
     51 O           3.0928  -16.0254  -41.4311 O.2       4 UNK        -0.5000 
     52 CA          3.6487  -14.1155  -42.7707 C.3       4 UNK         0.1400 
     53 CB          5.1465  -14.0137  -43.0948 C.3       4 UNK        -0.1800 
     54 N           2.8766  -13.4541  -43.8232 N.am      4 UNK        -0.5000 
     55 C           1.5590  -13.2147  -43.7599 C.2       3 UNK         0.5000 
     56 O           0.8612  -13.4902  -42.7854 O.2       3 UNK        -0.5000 
     57 CA          0.9009  -12.6131  -45.0151 C.3       3 UNK         0.1400 
     58 CB          0.9515  -11.0789  -44.9673 C.3       3 UNK        -0.1800 
     59 N           1.5017  -13.0813  -46.2674 N.am      3 UNK        -0.5000 
     60 C           1.5160  -14.3567  -46.6752 C.2       2 UNK         0.5000 
     61 O           1.0440  -15.2933  -46.0238 O.2       2 UNK        -0.5000 
     62 CA          2.2204  -14.6334  -48.0079 C.3       2 UNK         0.1400 
     63 CB          3.7386  -14.7745  -47.8012 C.3       2 UNK        -0.1800 
     64 N           1.6909  -15.8673  -48.5722 N.am      2 UNK        -0.5000 
     65 C           1.6175  -16.1618  -49.8755 C.2       1 UNK         0.5000 
     66 O           1.9976  -15.4004  -50.7674 O.2       1 UNK        -0.5000 
     67 C          -1.7218  -22.3010  -45.5974 C.2       11 UNK         0.5000 
     68 O          -1.8930  -22.6909  -46.7486 O.2       11 UNK        -0.5000 
     69 N          -2.3536  -22.8290  -44.5389 N.am      12 UNK        -0.5000 
     70 CA         -3.2982  -23.9473  -44.5909 C.3       12 UNK         0.1400 
     71 CB         -3.8548  -24.1868  -43.1790 C.3       12 UNK        -0.1800 
     72 C          -2.7074  -25.2534  -45.1662 C.2       12 UNK         0.5000 
     73 O          -3.4629  -26.0607  -45.7092 O.2       12 UNK        -0.5000 
     74 N          -1.3845  -25.4324  -45.0486 N.am      13 UNK        -0.5000 
     75 CA         -0.6406  -26.5592  -45.6102 C.3       13 UNK         0.1400 
     76 CB          0.1603  -27.2341  -44.4853 C.3       13 UNK        -0.1800 
     77 C           0.3040  -26.1117  -46.7395 C.2       13 UNK         0.5000 
     78 O           0.4755  -26.8495  -47.7101 O.2       13 UNK        -0.5000 
     79 N           0.9200  -24.9314  -46.5888 N.am      14 UNK        -0.5000 
     80 CA          1.9868  -24.4332  -47.4581 C.3       14 UNK         0.1400 
     81 CB          2.8344  -23.4302  -46.6580 C.3       14 UNK        -0.1800 
     82 C           1.5088  -23.8061  -48.7833 C.2       14 UNK         0.5000 
     83 O           2.3496  -23.5555  -49.6480 O.2       14 UNK        -0.5000 
     84 N           0.2038  -23.5303  -48.9232 N.am      15 UNK        -0.5000 
     85 CA         -0.3895  -22.8879  -50.0986 C.3       15 UNK         0.1400 
     86 CB         -1.9018  -22.7124  -49.8898 C.3       15 UNK        -0.1800 
     87 C          -0.1770  -23.6462  -51.4190 C.2       15 UNK         0.5000 
     88 O          -0.3466  -24.8669  -51.4698 O.2       15 UNK        -0.5000 
     89 N           0.0663  -22.8818  -52.4892 N.am      16 UNK        -0.5000 
     90 CA         -0.0478  -23.3198  -53.8770 C.3       16 UNK         0.1400 
     91 CB          0.8558  -22.4365  -54.7554 C.3       16 UNK        -0.1800 
     92 C          -1.5300  -23.2520  -54.2936 C.2       16 UNK         0.5000 
     93 O          -1.9337  -22.3336  -55.0082 O.2       16 UNK        -0.5000 
     94 N          -2.3280  -24.1834  -53.7540 N.am      17 UNK        -0.5000 
     95 CA         -3.7787  -24.3729  -53.9052 C.3       17 UNK         0.1400 
     96 CB         -4.1600  -24.6025  -55.3804 C.3       17 UNK        -0.1800 
     97 C          -4.6684  -23.2786  -53.2755 C.2       17 UNK         0.5000 
     98 O          -5.7621  -23.6056  -52.8126 O.2       17 UNK        -0.5000 
     99 N          -4.2013  -22.0220  -53.2667 N.am      18 UNK        -0.5000 
    100 CA        -4.9309  -20.8089  -52.8794 C.3       18 UNK         0.1400 
    101 CB        -5.2837  -20.8150  -51.3748 C.3       18 UNK        -0.1800 
    102 C         -6.1334  -20.5646  -53.8189 C.2       18 UNK         0.5000 
    103 O         -6.0131  -20.8254  -55.0192 O.2       18 UNK        -0.5000 
    104 N         -7.2538  -20.0631  -53.2778 N.am      19 UNK        -0.5000 
    105 CA        -8.5260  -19.7944  -53.9581 C.3       19 UNK         0.1400 
    106 CB        -9.2337  -21.1212  -54.3123 C.3       19 UNK        -0.1800 
    107 C         -8.3507  -18.8462  -55.1617 C.2       19 UNK         0.5000 
    108 O         -8.2085  -17.6401  -54.9626 O.2       19 UNK        -0.5000 
    109 N         -8.3176  -19.4012  -56.3811 N.am      20 UNK        -0.5000 
    110 CA        -8.0539  -18.6835  -57.6303 C.3       20 UNK         0.1400 
    111 CB        -8.2213  -19.6521  -58.8104 C.3       20 UNK        -0.1800 
    112 C         -6.6665  -18.0112  -57.6755 C.2       20 UNK         0.5000 
    113 O         -6.5227  -16.9690  -58.3168 O.2       20 UNK        -0.5000 
    114 N         -5.6835  -18.5788  -56.9583 N.am      21 UNK        -0.5000 
    115 CA        -4.3376  -18.0176  -56.8065 C.3       21 UNK         0.1400 
    116 CB        -3.4083  -19.0684  -56.1791 C.3       21 UNK        -0.1800 
    117 C         -4.3037  -16.7072  -55.9917 C.2       21 UNK         0.5000 
    118 O         -3.3120  -15.9816  -56.0714 O.2       21 UNK        -0.5000 
    119 N         -5.3755  -16.4144  -55.2413 N.am      22 UNK        -0.5000 
    120 CA        -5.5665  -15.1479  -54.5170 C.3       22 UNK         0.1400 
    121 C         -6.0140  -13.9632  -55.4247 C.2       22 UNK         0.5000 
    122 N         -6.3422  -14.1737  -56.6954 N.am      22 UNK        -0.7600 
    123 O         -6.0558  -12.8241  -54.9680 O.2       22 UNK        -0.5000 
    124 C124       -6.5177  -15.2944  -53.2971 C.3       23 UNK        -0.0398 
    125 S125       -6.1164  -16.7086  -52.2154 S.3       23 UNK        -0.2404 
    126 C126       -4.7242  -16.0363  -51.2593 C.3       23 UNK        -0.0205 
    127 H127        1.9989  -20.3680  -47.5652 H         1 UNK         0.0600 
    128 H128        3.6895  -19.8783  -47.4050 H         1 UNK         0.0600 
    129 H129        3.2272  -21.0671  -48.6252 H         1 UNK         0.0600 
    130 H130        0.7284  -18.9666  -48.7074 H         1 UNK         0.3000 
    131 H131       -0.0458  -17.4230  -50.0450 H         1 UNK         0.0600 
    132 H132        0.6914  -17.1905  -52.3620 H         1 UNK         0.0800 
    133 H133        2.2489  -17.8841  -52.0040 H         1 UNK         0.0800 
    134 H134       -1.0904  -18.5818  -53.5556 H         1 UNK         0.0800 
    135 H135       -1.5616  -20.1909  -53.0699 H         1 UNK         0.0800 
    136 H136       -2.9489  -17.2526  -52.8958 H         1 UNK         0.1150 
    137 H137       -4.3385  -17.2552  -48.8430 H         1 UNK         0.1150 
    138 H138       -1.3275  -20.0363  -50.0733 H         1 UNK         0.1150 
    139 H139       -3.4207  -18.7133  -47.2261 H         1 UNK         0.0800 
    140 H140       -3.0696  -20.2957  -47.8792 H         1 UNK         0.0800 
    141 H141       -2.3365  -19.7434  -45.2262 H         1 UNK         0.0800 
    142 H142       -0.7831  -19.0729  -44.8726 H         1 UNK         0.0800 
    143 H143        0.1207  -21.3417  -46.0515 H         1 UNK         0.0600 
    144 H144       -0.0094  -20.5052  -43.4236 H         1 UNK         0.3000 
    145 H145        1.2346  -23.2856  -41.6878 H         1 UNK         0.0600 
    146 H146        3.2058  -21.8068  -41.2964 H         1 UNK         0.0600 
    147 H147        3.3011  -22.5546  -42.8841 H         1 UNK         0.0600 
    148 H148        2.8145  -20.8698  -42.7374 H         1 UNK         0.0600 
    149 H149        0.9029  -20.4013  -41.2929 H         1 UNK         0.3000 
    150 H150       -1.9383  -19.9245  -40.6097 H         1 UNK         0.0600 
    151 H151       -2.8734  -21.4791  -38.9635 H         1 UNK         0.0600 
    152 H152       -2.4575  -19.9786  -38.1526 H         1 UNK         0.0600 
    153 H153       -1.4247  -21.3972  -37.9741 H         1 UNK         0.0600 
    154 H154       -0.3713  -18.4840  -40.0935 H         1 UNK         0.3000 
    155 H155        1.9849  -18.0310  -37.6680 H         1 UNK         0.0600 
    156 H156        2.9235  -18.8212  -40.4798 H         1 UNK         0.0600 
    157 H157        3.5353  -19.4941  -38.9737 H         1 UNK         0.0600 
    158 H158        3.8073  -17.8000  -39.3467 H         1 UNK         0.0600 
    159 H159        1.6212  -16.7639  -40.2311 H         1 UNK         0.3000 
    160 H160       -1.2273  -14.8150  -39.2839 H         1 UNK         0.0600 
    161 H161        1.6731  -14.0519  -39.9166 H         1 UNK         0.0600 
    162 H162        0.7872  -13.5640  -38.4760 H         1 UNK         0.0600 
    163 H163        0.2653  -13.0010  -40.0563 H         1 UNK         0.0600 
    164 H164        0.1968  -14.9097  -41.7247 H         1 UNK         0.3000 
    165 H165       -1.6570  -17.6023  -43.2382 H         1 UNK         0.0600 
    166 H166       -1.8422  -15.7999  -44.9443 H         1 UNK         0.0600 
    167 H167       -2.9208  -15.5063  -43.5872 H         1 UNK         0.0600 
    168 H168       -1.4281  -14.5896  -43.7323 H         1 UNK         0.0600 
    169 H169        0.5729  -16.0695  -44.1656 H         1 UNK         0.3000 
    170 H170        3.1348  -18.2584  -42.9954 H         1 UNK         0.0600 
    171 H171        2.3366  -19.3358  -45.0805 H         1 UNK         0.0600 
    172 H172        2.0249  -17.7699  -45.8140 H         1 UNK         0.0600 
    173 H173        3.6761  -18.2532  -45.4293 H         1 UNK         0.0600 
    174 H174        3.0762  -15.8462  -44.5792 H         1 UNK         0.3000 
    175 H175        3.4651  -13.5872  -41.8326 H         1 UNK         0.0600 
    176 H176        5.3901  -14.4989  -44.0409 H         1 UNK         0.0600 
    177 H177        5.4658  -12.9734  -43.1591 H         1 UNK         0.0600 
    178 H178        5.7465  -14.4891  -42.3177 H         1 UNK         0.0600 
    179 H179        3.3737  -13.1920  -44.6613 H         1 UNK         0.3000 
    180 H180       -0.1471  -12.9190  -45.0155 H         1 UNK         0.0600 
    181 H181        1.9767  -10.7077  -44.9961 H         1 UNK         0.0600 
    182 H182        0.4912  -10.7018  -44.0529 H         1 UNK         0.0600 
    183 H183        0.4108  -10.6398  -45.8059 H         1 UNK         0.0600 
    184 H184        1.9203  -12.3742  -46.8547 H         1 UNK         0.3000 
    185 H185        2.0155  -13.8011  -48.6846 H         1 UNK         0.0600 
    186 H186        3.9771  -15.6015  -47.1309 H         1 UNK         0.0600 
    187 H187        4.2493  -14.9563  -48.7470 H         1 UNK         0.0600 
    188 H188        4.1655  -13.8671  -47.3725 H         1 UNK         0.0600 
    189 H189        1.3113  -16.5109  -47.8897 H         1 UNK         0.3000 
    190 H190       -2.1295  -22.4748  -43.6205 H         1 UNK         0.3000 
    191 H191       -4.1241  -23.6509  -45.2407 H         1 UNK         0.0600 
    192 H192       -4.3616  -23.2999  -42.7981 H         1 UNK         0.0600 
    193 H193       -4.5810  -25.0008  -43.1766 H         1 UNK         0.0600 
    194 H194       -3.0637  -24.4494  -42.4752 H         1 UNK         0.0600 
    195 H195       -0.8348  -24.7090  -44.5988 H         1 UNK         0.3000 
    196 H196       -1.3215  -27.3021  -46.0304 H         1 UNK         0.0600 
    197 H197        0.7346  -28.0796  -44.8663 H         1 UNK         0.0600 
    198 H198       -0.5012  -27.6146  -43.7068 H         1 UNK         0.0600 
    199 H199        0.8624  -26.5417  -44.0185 H         1 UNK         0.0600 
    200 H200        0.7586  -24.3971  -45.7391 H         1 UNK         0.3000 
    201 H201        2.6328  -25.2735  -47.7216 H         1 UNK         0.0600 
    202 H202        3.2260  -23.8832  -45.7469 H         1 UNK         0.0600 
    203 H203        2.2552  -22.5530  -46.3707 H         1 UNK         0.0600 
    204 H204        3.6904  -23.0860  -47.2393 H         1 UNK         0.0600 
    205 H205       -0.4251  -23.7406  -48.1589 H         1 UNK         0.3000 
    206 H206        0.0693  -21.9018  -50.1882 H         1 UNK         0.0600 
    207 H207       -2.1115  -21.9842  -49.1121 H         1 UNK         0.0600 
    208 H208       -2.3882  -22.3496  -50.7964 H         1 UNK         0.0600 
    209 H209       -2.3837  -23.6509  -49.6133 H         1 UNK         0.0600 
    210 H210        0.1880  -21.8860  -52.3567 H         1 UNK         0.3000 
    211 H211        0.2917  -24.3534  -53.9723 H         1 UNK         0.0600 
    212 H212        0.5714  -21.3847  -54.7054 H         1 UNK         0.0600 
    213 H213        0.7996  -22.7419  -55.8009 H         1 UNK         0.0600 
    214 H214        1.8990  -22.5143  -54.4489 H         1 UNK         0.0600 
    215 H215       -1.8858  -24.8313  -53.1123 H         1 UNK         0.3000 
    216 H216       -4.0041  -25.2943  -53.3658 H         1 UNK         0.0600 
    217 H217       -5.2139  -24.8680  -55.4715 H         1 UNK         0.0600 
    218 H218       -3.5808  -25.4160  -55.8171 H         1 UNK         0.0600 
    219 H219       -3.9994  -23.7103  -55.9865 H         1 UNK         0.0600 
    220 H220       -3.3360  -21.8728  -53.7763 H         1 UNK         0.3000 
    221 H221       -4.2463  -19.9784  -53.0430 H         1 UNK         0.0600 
    222 H222       -6.0523  -21.5498  -51.1338 H         1 UNK         0.0600 
    223 H223       -4.4077  -21.0414  -50.7683 H         1 UNK         0.0600 
    224 H224       -5.6420  -19.8371  -51.0510 H         1 UNK         0.0600 
    225 H225       -7.2365  -19.8350  -52.2941 H         1 UNK         0.3000 
    226 H226       -9.1572  -19.2655  -53.2425 H         1 UNK         0.0600 
    227 H227       -9.4546  -21.6932  -53.4111 H         1 UNK         0.0600 
    228 H228      -10.1835  -20.9380  -54.8165 H         1 UNK         0.0600 
    229 H229       -8.6291  -21.7565  -54.9603 H         1 UNK         0.0600 
    230 H230       -8.3940  -20.4059  -56.4461 H         1 UNK         0.3000 
    231 H231       -8.8030  -17.8948  -57.7242 H         1 UNK         0.0600 
    232 H232       -7.5135  -20.4802  -58.7538 H         1 UNK         0.0600 
    233 H233       -8.0558  -19.1426  -59.7606 H         1 UNK         0.0600 
    234 H234       -9.2276  -20.0705  -58.8384 H         1 UNK         0.0600 
    235 H235       -5.8858  -19.4231  -56.4300 H         1 UNK         0.3000 
    236 H236       -3.9598  -17.7887  -57.8051 H         1 UNK         0.0600 
    237 H237       -3.4378  -20.0095  -56.7288 H         1 UNK         0.0600 
    238 H238       -2.3735  -18.7239  -56.1797 H         1 UNK         0.0600 
    239 H239       -3.6776  -19.2754  -55.1456 H         1 UNK         0.0600 
    240 H240       -6.1661  -17.0473  -55.2276 H         1 UNK         0.3000 
    241 H241       -4.5924  -14.8532  -54.1237 H         1 UNK         0.0600 
    242 H242       -6.3158  -15.1025  -57.0952 H         1 UNK         0.3800 
    243 H243       -6.6245  -13.3938  -57.2679 H         1 UNK         0.3800 
    244 H244       -7.5466  -15.4225  -53.6362 H         1 UNK         0.0800 
    245 H245       -6.5127  -14.3841  -52.6951 H         1 UNK         0.0800 
    246 H246       -5.1049  -15.5462  -50.3620 H         1 UNK         0.0800 
    247 H247       -4.1982  -15.2709  -51.8305 H         1 UNK         0.0800 
@<TRIPOS>BOND
     1    1    2 1    
     2    1  127 1    
     3    1  128 1    
     4    1  129 1    
     5    2    3 2    
     6    2    4 am   BACKBONE|DICT|INTERRES
     7    4    5 1    
     8    4  130 1    
     9    5    6 1    
    10    5   65 1    
    11    5  131 1    
    12    6    7 1    
    13    6  132 1    
    14    6  133 1    
    15    7    8 1    
    16    8    9 1    
    17    8  134 1    
    18    8  135 1    
    19    9   10 ar   
    20    9   14 ar   
    21   10   11 ar   
    22   10  136 1    
    23   11   12 ar   
    24   11  126 1    
    25   12   13 ar   
    26   12  137 1    
    27   13   14 ar   
    28   13   15 1    
    29   14  138 1    
    30   15   16 1    
    31   15  139 1    
    32   15  140 1    
    33   16   17 1    
    34   17   18 1    
    35   17  141 1    
    36   17  142 1    
    37   18   19 1    
    38   18   67 1    
    39   18  143 1    
    40   19   20 am   BACKBONE|DICT|INTERRES
    41   19  144 1    
    42   20   21 2    
    43   20   22 1    
    44   22   23 1    
    45   22   24 1    
    46   22  145 1    
    47   23  146 1    
    48   23  147 1    
    49   23  148 1    
    50   24   25 am   BACKBONE|DICT|INTERRES
    51   24  149 1    
    52   25   26 2    
    53   25   27 1    
    54   27   28 1    
    55   27   29 1    
    56   27  150 1    
    57   28  151 1    
    58   28  152 1    
    59   28  153 1    
    60   29   30 am   BACKBONE|DICT|INTERRES
    61   29  154 1    
    62   30   31 2    
    63   30   32 1    
    64   32   33 1    
    65   32   34 1    
    66   32  155 1    
    67   33  156 1    
    68   33  157 1    
    69   33  158 1    
    70   34   35 am   BACKBONE|DICT|INTERRES
    71   34  159 1    
    72   35   36 2    
    73   35   37 1    
    74   37   38 1    
    75   37   39 1    
    76   37  160 1    
    77   38  161 1    
    78   38  162 1    
    79   38  163 1    
    80   39   40 am   BACKBONE|DICT|INTERRES
    81   39  164 1    
    82   40   41 2    
    83   40   42 1    
    84   42   43 1    
    85   42   44 1    
    86   42  165 1    
    87   43  166 1    
    88   43  167 1    
    89   43  168 1    
    90   44   45 am   BACKBONE|DICT|INTERRES
    91   44  169 1    
    92   45   46 2    
    93   45   47 1    
    94   47   48 1    
    95   47   49 1    
    96   47  170 1    
    97   48  171 1    
    98   48  172 1    
    99   48  173 1    
   100   49   50 am   BACKBONE|DICT|INTERRES
   101   49  174 1    
   102   50   51 2    
   103   50   52 1    
   104   52   53 1    
   105   52   54 1    
   106   52  175 1    
   107   53  176 1    
   108   53  177 1    
   109   53  178 1    
   110   54   55 am   BACKBONE|DICT|INTERRES
   111   54  179 1    
   112   55   56 2    
   113   55   57 1    
   114   57   58 1    
   115   57   59 1    
   116   57  180 1    
   117   58  181 1    
   118   58  182 1    
   119   58  183 1    
   120   59   60 am   BACKBONE|DICT|INTERRES
   121   59  184 1    
   122   60   61 2    
   123   60   62 1    
   124   62   63 1    
   125   62   64 1    
   126   62  185 1    
   127   63  186 1    
   128   63  187 1    
   129   63  188 1    
   130   64   65 am   BACKBONE|DICT|INTERRES
   131   64  189 1    
   132   65   66 2    
   133   67   68 2    
   134   67   69 am   BACKBONE|DICT|INTERRES
   135   69   70 1    
   136   69  190 1    
   137   70   71 1    
   138   70   72 1    
   139   70  191 1    
   140   71  192 1    
   141   71  193 1    
   142   71  194 1    
   143   72   73 2    
   144   72   74 am   BACKBONE|DICT|INTERRES
   145   74   75 1    
   146   74  195 1    
   147   75   76 1    
   148   75   77 1    
   149   75  196 1    
   150   76  197 1    
   151   76  198 1    
   152   76  199 1    
   153   77   78 2    
   154   77   79 am   BACKBONE|DICT|INTERRES
   155   79   80 1    
   156   79  200 1    
   157   80   81 1    
   158   80   82 1    
   159   80  201 1    
   160   81  202 1    
   161   81  203 1    
   162   81  204 1    
   163   82   83 2    
   164   82   84 am   BACKBONE|DICT|INTERRES
   165   84   85 1    
   166   84  205 1    
   167   85   86 1    
   168   85   87 1    
   169   85  206 1    
   170   86  207 1    
   171   86  208 1    
   172   86  209 1    
   173   87   88 2    
   174   87   89 am   BACKBONE|DICT|INTERRES
   175   89   90 1    
   176   89  210 1    
   177   90   91 1    
   178   90   92 1    
   179   90  211 1    
   180   91  212 1    
   181   91  213 1    
   182   91  214 1    
   183   92   93 2    
   184   92   94 am   BACKBONE|DICT|INTERRES
   185   94   95 1    
   186   94  215 1    
   187   95   96 1    
   188   95   97 1    
   189   95  216 1    
   190   96  217 1    
   191   96  218 1    
   192   96  219 1    
   193   97   98 2    
   194   97   99 am   BACKBONE|DICT|INTERRES
   195   99  100 1    
   196   99  220 1    
   197  100  101 1    
   198  100  102 1    
   199  100  221 1    
   200  101  222 1    
   201  101  223 1    
   202  101  224 1    
   203  102  103 2    
   204  102  104 am   BACKBONE|DICT|INTERRES
   205  104  105 1    
   206  104  225 1    
   207  105  106 1    
   208  105  107 1    
   209  105  226 1    
   210  106  227 1    
   211  106  228 1    
   212  106  229 1    
   213  107  108 2    
   214  107  109 am   BACKBONE|DICT|INTERRES
   215  109  110 1    
   216  109  230 1    
   217  110  111 1    
   218  110  112 1    
   219  110  231 1    
   220  111  232 1    
   221  111  233 1    
   222  111  234 1    
   223  112  113 2    
   224  112  114 am   BACKBONE|DICT|INTERRES
   225  114  115 1    
   226  114  235 1    
   227  115  116 1    
   228  115  117 1    
   229  115  236 1    
   230  116  237 1    
   231  116  238 1    
   232  116  239 1    
   233  117  118 2    
   234  117  119 am   BACKBONE|DICT|INTERRES
   235  119  120 1    
   236  119  240 1    
   237  120  121 1    
   238  120  124 1    
   239  120  241 1    
   240  121  122 am   BACKBONE|DICT|INTERRES
   241  121  123 2    
   242  122  242 1    
   243  122  243 1    
   244  124  125 1    
   245  124  244 1    
   246  124  245 1    
   247  125  126 1    
   248  126  246 1    
   249  126  247 1    
@<TRIPOS>SUBSTRUCTURE
     1 UNK         1 GROUP             0       ****    0 ROOT    
