@<TRIPOS>MOLECULE
3R540
247   249    1
SMALL
USER_CHARGES


@<TRIPOS>ATOM
      1 CA          9.2120  -14.7202  -46.3283 C.3       0 UNK        -0.1800 
      2 C           7.8192  -14.6751  -45.7159 C.2       0 UNK         0.5000 
      3 O           7.6859  -14.6945  -44.4924 O.2       0 UNK        -0.5000 
      4 N           6.7828  -14.6139  -46.5615 N.am      1 UNK        -0.5000 
      5 CA          5.3724  -14.5474  -46.1574 C.3       1 UNK         0.1400 
      6 C6          4.4260  -14.9854  -47.3055 C.3       23 UNK        -0.0398 
      7 S7          4.5355  -13.9488  -48.8101 S.3       23 UNK        -0.2404 
      8 C8          5.2889  -15.0945  -50.0063 C.3       23 UNK        -0.0205 
      9 C9          4.3311  -16.2022  -50.4191 C.ar      23 UNK        -0.0193 
     10 C10         3.2468  -15.9163  -51.2521 C.ar      23 UNK        -0.1150 
     11 C11         2.3761  -16.9305  -51.6610 C.ar      23 UNK        -0.0193 
     12 C12         2.5993  -18.2431  -51.2313 C.ar      23 UNK        -0.1150 
     13 C13         3.6755  -18.5394  -50.3888 C.ar      23 UNK        -0.0193 
     14 C14         4.5380  -17.5151  -49.9880 C.ar      23 UNK        -0.1150 
     15 C15         3.9232  -19.9636  -49.9164 C.3       23 UNK        -0.0205 
     16 S16         3.0063  -20.3268  -48.3869 S.3       23 UNK        -0.2404 
     17 C17         1.3782  -20.8332  -49.0365 C.3       23 UNK        -0.0398 
     18 CA          0.7745  -21.9853  -48.1981 C.3       11 UNK         0.1400 
     19 N           0.3389  -21.5464  -46.8676 N.am      11 UNK        -0.5000 
     20 C          -0.0458  -22.3723  -45.8844 C.2       10 UNK         0.5000 
     21 O           0.0028  -23.5995  -45.9685 O.2       10 UNK        -0.5000 
     22 CA         -0.6400  -21.7259  -44.6193 C.3       10 UNK         0.1400 
     23 CB          0.4672  -21.2474  -43.6687 C.3       10 UNK        -0.1800 
     24 N          -1.5496  -20.6215  -44.9321 N.am      10 UNK        -0.5000 
     25 C          -2.7187  -20.7712  -45.5720 C.2       9 UNK         0.5000 
     26 O          -3.1786  -21.8655  -45.8928 O.2       9 UNK        -0.5000 
     27 CA         -3.4916  -19.4960  -45.9559 C.3       9 UNK         0.1400 
     28 CB         -4.3898  -19.0391  -44.7978 C.3       9 UNK        -0.1800 
     29 N          -2.6240  -18.3955  -46.3770 N.am      9 UNK        -0.5000 
     30 C          -1.8144  -18.4316  -47.4459 C.2       8 UNK         0.5000 
     31 O          -1.7197  -19.4006  -48.1973 O.2       8 UNK        -0.5000 
     32 CA         -0.8941  -17.2150  -47.6626 C.3       8 UNK         0.1400 
     33 CB         -1.6703  -16.0235  -48.2427 C.3       8 UNK        -0.1800 
     34 N          -0.2176  -16.8111  -46.4290 N.am      8 UNK        -0.5000 
     35 C           0.6112  -17.6009  -45.7301 C.2       7 UNK         0.5000 
     36 O           0.9485  -18.7275  -46.0908 O.2       7 UNK        -0.5000 
     37 CA          1.0873  -17.0726  -44.3670 C.3       7 UNK         0.1400 
     38 CB          2.2669  -16.1047  -44.5239 C.3       7 UNK        -0.1800 
     39 N           0.0046  -16.4205  -43.6315 N.am      7 UNK        -0.5000 
     40 C          -1.0270  -17.0753  -43.0799 C.2       6 UNK         0.5000 
     41 O          -1.1496  -18.2992  -43.1031 O.2       6 UNK        -0.5000 
     42 CA         -2.1220  -16.2153  -42.4233 C.3       6 UNK         0.1400 
     43 CB         -1.7336  -15.8515  -40.9826 C.3       6 UNK        -0.1800 
     44 N          -2.4013  -14.9907  -43.1742 N.am      6 UNK        -0.5000 
     45 C          -2.9490  -14.9604  -44.3975 C.2       5 UNK         0.5000 
     46 O          -3.3099  -15.9637  -45.0097 O.2       5 UNK        -0.5000 
     47 CA         -3.0687  -13.5806  -45.0686 C.3       5 UNK         0.1400 
     48 CB         -4.3894  -12.9017  -44.6770 C.3       5 UNK        -0.1800 
     49 N          -1.9495  -12.6901  -44.7515 N.am      5 UNK        -0.5000 
     50 C          -0.6765  -12.9201  -45.0976 C.2       4 UNK         0.5000 
     51 O          -0.3010  -13.9281  -45.7022 O.2       4 UNK        -0.5000 
     52 CA          0.3527  -11.8754  -44.6381 C.3       4 UNK         0.1400 
     53 CB          1.0738  -12.3556  -43.3695 C.3       4 UNK        -0.1800 
     54 N           1.3378  -11.6047  -45.6820 N.am      4 UNK        -0.5000 
     55 C           1.0885  -10.8834  -46.7859 C.2       3 UNK         0.5000 
     56 O          -0.0078  -10.3699  -47.0184 O.2       3 UNK        -0.5000 
     57 CA          2.2452  -10.6979  -47.7967 C.3       3 UNK         0.1400 
     58 CB          2.1550   -9.3657  -48.5698 C.3       3 UNK        -0.1800 
     59 N           3.5784  -10.8681  -47.2098 N.am      3 UNK        -0.5000 
     60 C           4.1410  -10.1614  -46.2157 C.2       2 UNK         0.5000 
     61 O           3.6351   -9.1534  -45.7201 O.2       2 UNK        -0.5000 
     62 CA          5.4874  -10.6943  -45.6695 C.3       2 UNK         0.1400 
     63 CB          5.6532  -10.4270  -44.1591 C.3       2 UNK        -0.1800 
     64 N           5.7260  -12.1153  -45.9665 N.am      2 UNK        -0.5000 
     65 C           4.9654  -13.1634  -45.6060 C.2       1 UNK         0.5000 
     66 O           3.9440  -13.0644  -44.9262 O.2       1 UNK        -0.5000 
     67 C          -0.3589  -22.7031  -48.9603 C.2       11 UNK         0.5000 
     68 O          -0.1100  -23.7494  -49.5594 O.2       11 UNK        -0.5000 
     69 N          -1.5860  -22.1698  -48.8818 N.am      12 UNK        -0.5000 
     70 CA         -2.7883  -22.7804  -49.4502 C.3       12 UNK         0.1400 
     71 CB         -3.9683  -21.8058  -49.3404 C.3       12 UNK        -0.1800 
     72 C          -3.1265  -24.1330  -48.7983 C.2       12 UNK         0.5000 
     73 O          -3.4556  -25.0786  -49.5086 O.2       12 UNK        -0.5000 
     74 N          -2.9995  -24.2221  -47.4669 N.am      13 UNK        -0.5000 
     75 CA         -3.1701  -25.4560  -46.6994 C.3       13 UNK         0.1400 
     76 CB         -3.1471  -25.1436  -45.1955 C.3       13 UNK        -0.1800 
     77 C          -2.1236  -26.5268  -47.0547 C.2       13 UNK         0.5000 
     78 O          -2.4878  -27.6911  -47.2184 O.2       13 UNK        -0.5000 
     79 N          -0.8579  -26.1133  -47.2135 N.am      14 UNK        -0.5000 
     80 CA          0.2502  -26.9708  -47.6426 C.3       14 UNK         0.1400 
     81 CB          1.5757  -26.2085  -47.4951 C.3       14 UNK        -0.1800 
     82 C           0.0800  -27.5020  -49.0799 C.2       14 UNK         0.5000 
     83 O           0.4135  -28.6573  -49.3450 O.2       14 UNK        -0.5000 
     84 N          -0.4662  -26.6633  -49.9703 N.am      15 UNK        -0.5000 
     85 CA         -0.8123  -27.0081  -51.3520 C.3       15 UNK         0.1400 
     86 CB         -0.9313  -25.7078  -52.1633 C.3       15 UNK        -0.1800 
     87 C          -2.1047  -27.8456  -51.4817 C.2       15 UNK         0.5000 
     88 O          -2.3655  -28.3663  -52.5673 O.2       15 UNK        -0.5000 
     89 N          -2.8701  -27.9517  -50.3852 N.am      16 UNK        -0.5000 
     90 CA         -4.2223  -28.4975  -50.2306 C.3       16 UNK         0.1400 
     91 CB         -4.3630  -29.9147  -50.8205 C.3       16 UNK        -0.1800 
     92 C          -5.3027  -27.5377  -50.7684 C.2       16 UNK         0.5000 
     93 O          -5.0911  -26.8628  -51.7778 O.2       16 UNK        -0.5000 
     94 N          -6.4500  -27.5208  -50.0714 N.am      17 UNK        -0.5000 
     95 CA         -7.5823  -26.5980  -50.2195 C.3       17 UNK         0.1400 
     96 CB         -8.1967  -26.6465  -51.6347 C.3       17 UNK        -0.1800 
     97 C          -7.1888  -25.1745  -49.7783 C.2       17 UNK         0.5000 
     98 O          -6.8006  -24.3460  -50.6032 O.2       17 UNK        -0.5000 
     99 N          -7.2745  -24.9341  -48.4624 N.am      18 UNK        -0.5000 
    100 CA        -6.9292  -23.6814  -47.7861 C.3       18 UNK         0.1400 
    101 CB        -6.7677  -23.9652  -46.2817 C.3       18 UNK        -0.1800 
    102 C         -7.9453  -22.5503  -48.0616 C.2       18 UNK         0.5000 
    103 O         -8.6801  -22.1428  -47.1598 O.2       18 UNK        -0.5000 
    104 N         -7.9846  -22.0754  -49.3082 N.am      19 UNK        -0.5000 
    105 CA        -8.8585  -21.0150  -49.7978 C.3       19 UNK         0.1400 
    106 CB       -10.2338  -21.6106  -50.1547 C.3       19 UNK        -0.1800 
    107 C         -8.2108  -20.3375  -51.0160 C.2       19 UNK         0.5000 
    108 O         -7.2330  -20.8580  -51.5580 O.2       19 UNK        -0.5000 
    109 N         -8.7919  -19.2014  -51.4312 N.am      20 UNK        -0.5000 
    110 CA        -8.4036  -18.3774  -52.5834 C.3       20 UNK         0.1400 
    111 CB        -8.6369  -19.1383  -53.9062 C.3       20 UNK        -0.1800 
    112 C         -6.9721  -17.8201  -52.4487 C.2       20 UNK         0.5000 
    113 O         -6.1206  -18.0688  -53.3056 O.2       20 UNK        -0.5000 
    114 N         -6.7373  -17.0904  -51.3474 N.am      21 UNK        -0.5000 
    115 CA        -5.4586  -16.5013  -50.9359 C.3       21 UNK         0.1400 
    116 CB        -5.0464  -15.3534  -51.8859 C.3       21 UNK        -0.1800 
    117 C         -4.3848  -17.5917  -50.7544 C.2       21 UNK         0.5000 
    118 O         -4.4852  -18.3600  -49.7994 O.2       21 UNK        -0.5000 
    119 N         -3.4069  -17.6472  -51.6664 N.am      22 UNK        -0.5000 
    120 CA        -2.3712  -18.6909  -51.7336 C.3       22 UNK         0.1400 
    121 C         -2.8506  -20.0269  -52.3763 C.2       22 UNK         0.5000 
    122 N         -4.0559  -20.1193  -52.9249 N.am      22 UNK        -0.7600 
    123 O         -2.1073  -21.0035  -52.3809 O.2       22 UNK        -0.5000 
    124 C124       -1.0886  -18.1900  -52.4444 C.3       23 UNK        -0.0398 
    125 S125       -0.3843  -16.6766  -51.7103 S.3       23 UNK        -0.2404 
    126 C126        1.2116  -16.6022  -52.5827 C.3       23 UNK        -0.0205 
    127 H127        9.8008  -13.8700  -45.9842 H         1 UNK         0.0600 
    128 H128        9.1778  -14.6914  -47.4177 H         1 UNK         0.0600 
    129 H129        9.7240  -15.6345  -46.0286 H         1 UNK         0.0600 
    130 H130        6.9533  -14.5957  -47.5567 H         1 UNK         0.3000 
    131 H131        5.2318  -15.2546  -45.3371 H         1 UNK         0.0600 
    132 H132        4.6272  -16.0265  -47.5575 H         1 UNK         0.0800 
    133 H133        3.3872  -14.9693  -46.9744 H         1 UNK         0.0800 
    134 H134        5.5835  -14.5314  -50.8930 H         1 UNK         0.0800 
    135 H135        6.2085  -15.5085  -49.5903 H         1 UNK         0.0800 
    136 H136        3.0854  -14.9000  -51.5834 H         1 UNK         0.1150 
    137 H137        1.9329  -19.0321  -51.5479 H         1 UNK         0.1150 
    138 H138        5.3742  -17.7431  -49.3419 H         1 UNK         0.1150 
    139 H139        3.6683  -20.6785  -50.6998 H         1 UNK         0.0800 
    140 H140        4.9873  -20.1052  -49.7215 H         1 UNK         0.0800 
    141 H141        1.4974  -21.1440  -50.0757 H         1 UNK         0.0800 
    142 H142        0.7178  -19.9655  -49.0520 H         1 UNK         0.0800 
    143 H143        1.5573  -22.7321  -48.0473 H         1 UNK         0.0600 
    144 H144        0.3195  -20.5442  -46.7036 H         1 UNK         0.3000 
    145 H145       -1.2173  -22.4921  -44.0979 H         1 UNK         0.0600 
    146 H146        0.0479  -20.8435  -42.7471 H         1 UNK         0.0600 
    147 H147        1.1251  -22.0723  -43.3928 H         1 UNK         0.0600 
    148 H148        1.0863  -20.4739  -44.1217 H         1 UNK         0.0600 
    149 H149       -1.2619  -19.6936  -44.6423 H         1 UNK         0.3000 
    150 H150       -4.1347  -19.7431  -46.8028 H         1 UNK         0.0600 
    151 H151       -5.0575  -19.8414  -44.4811 H         1 UNK         0.0600 
    152 H152       -5.0134  -18.1950  -45.0926 H         1 UNK         0.0600 
    153 H153       -3.8038  -18.7362  -43.9299 H         1 UNK         0.0600 
    154 H154       -2.6762  -17.5427  -45.8259 H         1 UNK         0.3000 
    155 H155       -0.1257  -17.5014  -48.3841 H         1 UNK         0.0600 
    156 H156       -1.0080  -15.1804  -48.4402 H         1 UNK         0.0600 
    157 H157       -2.4558  -15.6834  -47.5689 H         1 UNK         0.0600 
    158 H158       -2.1437  -16.2931  -49.1867 H         1 UNK         0.0600 
    159 H159       -0.4099  -15.8758  -46.0837 H         1 UNK         0.3000 
    160 H160        1.4324  -17.9272  -43.7809 H         1 UNK         0.0600 
    161 H161        2.6442  -15.7788  -43.5545 H         1 UNK         0.0600 
    162 H162        1.9872  -15.2158  -45.0889 H         1 UNK         0.0600 
    163 H163        3.0924  -16.5869  -45.0481 H         1 UNK         0.0600 
    164 H164        0.0059  -15.4120  -43.6171 H         1 UNK         0.3000 
    165 H165       -3.0375  -16.8098  -42.3906 H         1 UNK         0.0600 
    166 H166       -2.5360  -15.3080  -40.4833 H         1 UNK         0.0600 
    167 H167       -1.5352  -16.7484  -40.3943 H         1 UNK         0.0600 
    168 H168       -0.8365  -15.2320  -40.9496 H         1 UNK         0.0600 
    169 H169       -2.1377  -14.1177  -42.7423 H         1 UNK         0.3000 
    170 H170       -3.0741  -13.7380  -46.1490 H         1 UNK         0.0600 
    171 H171       -5.2417  -13.5372  -44.9213 H         1 UNK         0.0600 
    172 H172       -4.4335  -12.6900  -43.6079 H         1 UNK         0.0600 
    173 H173       -4.5234  -11.9614  -45.2120 H         1 UNK         0.0600 
    174 H174       -2.1774  -11.8425  -44.2518 H         1 UNK         0.3000 
    175 H175       -0.1641  -10.9422  -44.4038 H         1 UNK         0.0600 
    176 H176        1.5980  -13.2972  -43.5340 H         1 UNK         0.0600 
    177 H177        1.8071  -11.6226  -43.0323 H         1 UNK         0.0600 
    178 H178        0.3687  -12.5110  -42.5522 H         1 UNK         0.0600 
    179 H179        2.2514  -12.0265  -45.5572 H         1 UNK         0.3000 
    180 H180        2.1344  -11.5049  -48.5223 H         1 UNK         0.0600 
    181 H181        2.9764   -9.2652  -49.2792 H         1 UNK         0.0600 
    182 H182        2.1820   -8.5057  -47.9003 H         1 UNK         0.0600 
    183 H183        1.2276   -9.3054  -49.1406 H         1 UNK         0.0600 
    184 H184        4.0891  -11.6749  -47.5415 H         1 UNK         0.3000 
    185 H185        6.2662  -10.1376  -46.1922 H         1 UNK         0.0600 
    186 H186        6.6051  -10.8116  -43.7930 H         1 UNK         0.0600 
    187 H187        5.6331   -9.3579  -43.9447 H         1 UNK         0.0600 
    188 H188        4.8572  -10.8917  -43.5762 H         1 UNK         0.0600 
    189 H189        6.5328  -12.3090  -46.5429 H         1 UNK         0.3000 
    190 H190       -1.7005  -21.2693  -48.4226 H         1 UNK         0.3000 
    191 H191       -2.5959  -22.9594  -50.5097 H         1 UNK         0.0600 
    192 H192       -4.8266  -22.1696  -49.9063 H         1 UNK         0.0600 
    193 H193       -3.7078  -20.8306  -49.7448 H         1 UNK         0.0600 
    194 H194       -4.2839  -21.6582  -48.3088 H         1 UNK         0.0600 
    195 H195       -2.7938  -23.3791  -46.9364 H         1 UNK         0.3000 
    196 H196       -4.1509  -25.8652  -46.9482 H         1 UNK         0.0600 
    197 H197       -2.1850  -24.7397  -44.8814 H         1 UNK         0.0600 
    198 H198       -3.9143  -24.4169  -44.9285 H         1 UNK         0.0600 
    199 H199       -3.3323  -26.0436  -44.6081 H         1 UNK         0.0600 
    200 H200       -0.6314  -25.1445  -47.0066 H         1 UNK         0.3000 
    201 H201        0.2804  -27.8334  -46.9738 H         1 UNK         0.0600 
    202 H202        1.6029  -25.3207  -48.1270 H         1 UNK         0.0600 
    203 H203        2.4214  -26.8374  -47.7754 H         1 UNK         0.0600 
    204 H204        1.7342  -25.8895  -46.4647 H         1 UNK         0.0600 
    205 H205       -0.6481  -25.7054  -49.6865 H         1 UNK         0.3000 
    206 H206        0.0025  -27.5986  -51.7757 H         1 UNK         0.0600 
    207 H207       -0.0059  -25.1327  -52.1269 H         1 UNK         0.0600 
    208 H208       -1.1437  -25.9166  -53.2124 H         1 UNK         0.0600 
    209 H209       -1.7344  -25.0736  -51.7857 H         1 UNK         0.0600 
    210 H210       -2.5446  -27.4407  -49.5752 H         1 UNK         0.3000 
    211 H211       -4.3644  -28.5786  -49.1519 H         1 UNK         0.0600 
    212 H212       -5.3101  -30.3643  -50.5208 H         1 UNK         0.0600 
    213 H213       -3.5659  -30.5708  -50.4706 H         1 UNK         0.0600 
    214 H214       -4.3434  -29.9087  -51.9104 H         1 UNK         0.0600 
    215 H215       -6.5147  -28.1355  -49.2719 H         1 UNK         0.3000 
    216 H216       -8.3535  -26.9505  -49.5326 H         1 UNK         0.0600 
    217 H217       -9.1073  -26.0479  -51.6774 H         1 UNK         0.0600 
    218 H218       -7.5220  -26.2558  -52.3964 H         1 UNK         0.0600 
    219 H219       -8.4633  -27.6657  -51.9139 H         1 UNK         0.0600 
    220 H220       -7.6226  -25.6685  -47.8636 H         1 UNK         0.3000 
    221 H221       -5.9611  -23.3537  -48.1607 H         1 UNK         0.0600 
    222 H222       -6.0407  -24.7548  -46.1017 H         1 UNK         0.0600 
    223 H223       -7.7084  -24.2735  -45.8239 H         1 UNK         0.0600 
    224 H224       -6.4176  -23.0770  -45.7537 H         1 UNK         0.0600 
    225 H225       -7.3660  -22.4749  -50.0105 H         1 UNK         0.3000 
    226 H226       -8.9773  -20.2586  -49.0192 H         1 UNK         0.0600 
    227 H227      -10.1489  -22.3712  -50.9319 H         1 UNK         0.0600 
    228 H228      -10.7034  -22.0725  -49.2861 H         1 UNK         0.0600 
    229 H229      -10.9177  -20.8432  -50.5185 H         1 UNK         0.0600 
    230 H230       -9.5881  -18.8603  -50.9105 H         1 UNK         0.3000 
    231 H231       -9.0699  -17.5134  -52.5864 H         1 UNK         0.0600 
    232 H232       -7.9840  -20.0066  -53.9996 H         1 UNK         0.0600 
    233 H233       -8.4445  -18.4934  -54.7644 H         1 UNK         0.0600 
    234 H234       -9.6674  -19.4844  -53.9850 H         1 UNK         0.0600 
    235 H235       -7.4920  -16.9870  -50.6841 H         1 UNK         0.3000 
    236 H236       -5.6188  -16.0653  -49.9486 H         1 UNK         0.0600 
    237 H237       -4.1109  -14.8948  -51.5624 H         1 UNK         0.0600 
    238 H238       -4.9140  -15.6877  -52.9152 H         1 UNK         0.0600 
    239 H239       -5.8017  -14.5676  -51.8927 H         1 UNK         0.0600 
    240 H240       -3.4191  -16.9853  -52.4279 H         1 UNK         0.3000 
    241 H241       -2.0908  -18.9429  -50.7109 H         1 UNK         0.0600 
    242 H242       -4.3509  -20.9977  -53.3182 H         1 UNK         0.3800 
    243 H243       -4.6929  -19.3286  -52.9460 H         1 UNK         0.3800 
    244 H244       -1.2920  -17.9950  -53.4989 H         1 UNK         0.0800 
    245 H245       -0.3211  -18.9653  -52.4178 H         1 UNK         0.0800 
    246 H246        1.2194  -17.2815  -53.4362 H         1 UNK         0.0800 
    247 H247        1.3272  -15.6004  -52.9990 H         1 UNK         0.0800 
@<TRIPOS>BOND
     1    1    2 1    
     2    1  127 1    
     3    1  128 1    
     4    1  129 1    
     5    2    3 2    
     6    2    4 am   BACKBONE|DICT|INTERRES
     7    4    5 1    
     8    4  130 1    
     9    5    6 1    
    10    5   65 1    
    11    5  131 1    
    12    6    7 1    
    13    6  132 1    
    14    6  133 1    
    15    7    8 1    
    16    8    9 1    
    17    8  134 1    
    18    8  135 1    
    19    9   10 ar   
    20    9   14 ar   
    21   10   11 ar   
    22   10  136 1    
    23   11   12 ar   
    24   11  126 1    
    25   12   13 ar   
    26   12  137 1    
    27   13   14 ar   
    28   13   15 1    
    29   14  138 1    
    30   15   16 1    
    31   15  139 1    
    32   15  140 1    
    33   16   17 1    
    34   17   18 1    
    35   17  141 1    
    36   17  142 1    
    37   18   19 1    
    38   18   67 1    
    39   18  143 1    
    40   19   20 am   BACKBONE|DICT|INTERRES
    41   19  144 1    
    42   20   21 2    
    43   20   22 1    
    44   22   23 1    
    45   22   24 1    
    46   22  145 1    
    47   23  146 1    
    48   23  147 1    
    49   23  148 1    
    50   24   25 am   BACKBONE|DICT|INTERRES
    51   24  149 1    
    52   25   26 2    
    53   25   27 1    
    54   27   28 1    
    55   27   29 1    
    56   27  150 1    
    57   28  151 1    
    58   28  152 1    
    59   28  153 1    
    60   29   30 am   BACKBONE|DICT|INTERRES
    61   29  154 1    
    62   30   31 2    
    63   30   32 1    
    64   32   33 1    
    65   32   34 1    
    66   32  155 1    
    67   33  156 1    
    68   33  157 1    
    69   33  158 1    
    70   34   35 am   BACKBONE|DICT|INTERRES
    71   34  159 1    
    72   35   36 2    
    73   35   37 1    
    74   37   38 1    
    75   37   39 1    
    76   37  160 1    
    77   38  161 1    
    78   38  162 1    
    79   38  163 1    
    80   39   40 am   BACKBONE|DICT|INTERRES
    81   39  164 1    
    82   40   41 2    
    83   40   42 1    
    84   42   43 1    
    85   42   44 1    
    86   42  165 1    
    87   43  166 1    
    88   43  167 1    
    89   43  168 1    
    90   44   45 am   BACKBONE|DICT|INTERRES
    91   44  169 1    
    92   45   46 2    
    93   45   47 1    
    94   47   48 1    
    95   47   49 1    
    96   47  170 1    
    97   48  171 1    
    98   48  172 1    
    99   48  173 1    
   100   49   50 am   BACKBONE|DICT|INTERRES
   101   49  174 1    
   102   50   51 2    
   103   50   52 1    
   104   52   53 1    
   105   52   54 1    
   106   52  175 1    
   107   53  176 1    
   108   53  177 1    
   109   53  178 1    
   110   54   55 am   BACKBONE|DICT|INTERRES
   111   54  179 1    
   112   55   56 2    
   113   55   57 1    
   114   57   58 1    
   115   57   59 1    
   116   57  180 1    
   117   58  181 1    
   118   58  182 1    
   119   58  183 1    
   120   59   60 am   BACKBONE|DICT|INTERRES
   121   59  184 1    
   122   60   61 2    
   123   60   62 1    
   124   62   63 1    
   125   62   64 1    
   126   62  185 1    
   127   63  186 1    
   128   63  187 1    
   129   63  188 1    
   130   64   65 am   BACKBONE|DICT|INTERRES
   131   64  189 1    
   132   65   66 2    
   133   67   68 2    
   134   67   69 am   BACKBONE|DICT|INTERRES
   135   69   70 1    
   136   69  190 1    
   137   70   71 1    
   138   70   72 1    
   139   70  191 1    
   140   71  192 1    
   141   71  193 1    
   142   71  194 1    
   143   72   73 2    
   144   72   74 am   BACKBONE|DICT|INTERRES
   145   74   75 1    
   146   74  195 1    
   147   75   76 1    
   148   75   77 1    
   149   75  196 1    
   150   76  197 1    
   151   76  198 1    
   152   76  199 1    
   153   77   78 2    
   154   77   79 am   BACKBONE|DICT|INTERRES
   155   79   80 1    
   156   79  200 1    
   157   80   81 1    
   158   80   82 1    
   159   80  201 1    
   160   81  202 1    
   161   81  203 1    
   162   81  204 1    
   163   82   83 2    
   164   82   84 am   BACKBONE|DICT|INTERRES
   165   84   85 1    
   166   84  205 1    
   167   85   86 1    
   168   85   87 1    
   169   85  206 1    
   170   86  207 1    
   171   86  208 1    
   172   86  209 1    
   173   87   88 2    
   174   87   89 am   BACKBONE|DICT|INTERRES
   175   89   90 1    
   176   89  210 1    
   177   90   91 1    
   178   90   92 1    
   179   90  211 1    
   180   91  212 1    
   181   91  213 1    
   182   91  214 1    
   183   92   93 2    
   184   92   94 am   BACKBONE|DICT|INTERRES
   185   94   95 1    
   186   94  215 1    
   187   95   96 1    
   188   95   97 1    
   189   95  216 1    
   190   96  217 1    
   191   96  218 1    
   192   96  219 1    
   193   97   98 2    
   194   97   99 am   BACKBONE|DICT|INTERRES
   195   99  100 1    
   196   99  220 1    
   197  100  101 1    
   198  100  102 1    
   199  100  221 1    
   200  101  222 1    
   201  101  223 1    
   202  101  224 1    
   203  102  103 2    
   204  102  104 am   BACKBONE|DICT|INTERRES
   205  104  105 1    
   206  104  225 1    
   207  105  106 1    
   208  105  107 1    
   209  105  226 1    
   210  106  227 1    
   211  106  228 1    
   212  106  229 1    
   213  107  108 2    
   214  107  109 am   BACKBONE|DICT|INTERRES
   215  109  110 1    
   216  109  230 1    
   217  110  111 1    
   218  110  112 1    
   219  110  231 1    
   220  111  232 1    
   221  111  233 1    
   222  111  234 1    
   223  112  113 2    
   224  112  114 am   BACKBONE|DICT|INTERRES
   225  114  115 1    
   226  114  235 1    
   227  115  116 1    
   228  115  117 1    
   229  115  236 1    
   230  116  237 1    
   231  116  238 1    
   232  116  239 1    
   233  117  118 2    
   234  117  119 am   BACKBONE|DICT|INTERRES
   235  119  120 1    
   236  119  240 1    
   237  120  121 1    
   238  120  124 1    
   239  120  241 1    
   240  121  122 am   BACKBONE|DICT|INTERRES
   241  121  123 2    
   242  122  242 1    
   243  122  243 1    
   244  124  125 1    
   245  124  244 1    
   246  124  245 1    
   247  125  126 1    
   248  126  246 1    
   249  126  247 1    
@<TRIPOS>SUBSTRUCTURE
     1 UNK         1 GROUP             0       ****    0 ROOT    
