@<TRIPOS>MOLECULE
3R540
247   249    1
SMALL
USER_CHARGES


@<TRIPOS>ATOM
      1 CA          3.1263  -12.7860  -49.0451 C.3       0 UNK        -0.1800 
      2 C           1.6760  -13.1690  -48.7866 C.2       0 UNK         0.5000 
      3 O           0.7795  -12.3612  -49.0284 O.2       0 UNK        -0.5000 
      4 N           1.4513  -14.3928  -48.2865 N.am      1 UNK        -0.5000 
      5 CA          0.1386  -14.9949  -47.9882 C.3       1 UNK         0.1400 
      6 C6         -0.7710  -15.1637  -49.2402 C.3       23 UNK        -0.0398 
      7 S7          0.0481  -16.0890  -50.5841 S.3       23 UNK        -0.2404 
      8 C8         -0.5886  -17.7604  -50.2737 C.3       23 UNK        -0.0205 
      9 C9          0.3181  -18.8147  -50.8792 C.ar      23 UNK        -0.0193 
     10 C10         0.0419  -19.3568  -52.1369 C.ar      23 UNK        -0.1150 
     11 C11         0.8977  -20.3086  -52.7004 C.ar      23 UNK        -0.0193 
     12 C12         2.0223  -20.7317  -51.9842 C.ar      23 UNK        -0.1150 
     13 C13         2.3012  -20.2020  -50.7200 C.ar      23 UNK        -0.0193 
     14 C14         1.4462  -19.2418  -50.1750 C.ar      23 UNK        -0.1150 
     15 C15         3.5447  -20.6412  -49.9620 C.3       23 UNK        -0.0205 
     16 S16         3.2281  -22.0825  -48.8970 S.3       23 UNK        -0.2404 
     17 C17         2.5565  -21.3117  -47.3836 C.3       23 UNK        -0.0398 
     18 CA          1.3257  -22.0697  -46.8315 C.3       11 UNK         0.1400 
     19 N           1.1833  -21.9115  -45.3820 N.am      11 UNK        -0.5000 
     20 C           0.3490  -22.6367  -44.6229 C.2       10 UNK         0.5000 
     21 O          -0.3611  -23.5417  -45.0597 O.2       10 UNK        -0.5000 
     22 CA          0.2528  -22.2562  -43.1362 C.3       10 UNK         0.1400 
     23 CB          1.4335  -22.8387  -42.3455 C.3       10 UNK        -0.1800 
     24 N           0.1836  -20.8086  -42.9372 N.am      10 UNK        -0.5000 
     25 C          -0.8194  -20.0327  -43.3739 C.2       9 UNK         0.5000 
     26 O          -1.8220  -20.4693  -43.9391 O.2       9 UNK        -0.5000 
     27 CA         -0.6538  -18.5134  -43.1900 C.3       9 UNK         0.1400 
     28 CB         -0.9824  -18.1027  -41.7472 C.3       9 UNK        -0.1800 
     29 N           0.6910  -18.0531  -43.5305 N.am      9 UNK        -0.5000 
     30 C           1.2550  -18.1401  -44.7428 C.2       8 UNK         0.5000 
     31 O           0.6894  -18.5911  -45.7368 O.2       8 UNK        -0.5000 
     32 CA          2.7236  -17.7043  -44.8543 C.3       8 UNK         0.1400 
     33 CB          2.8351  -16.1815  -45.0062 C.3       8 UNK        -0.1800 
     34 N           3.5093  -18.1529  -43.7054 N.am      8 UNK        -0.5000 
     35 C           3.8216  -19.4342  -43.4652 C.2       7 UNK         0.5000 
     36 O           3.4988  -20.3660  -44.2029 O.2       7 UNK        -0.5000 
     37 CA          4.5913  -19.7240  -42.1640 C.3       7 UNK         0.1400 
     38 CB          6.0897  -19.4375  -42.3432 C.3       7 UNK        -0.1800 
     39 N           4.0808  -18.9572  -41.0263 N.am      7 UNK        -0.5000 
     40 C           2.8725  -19.1429  -40.4772 C.2       6 UNK         0.5000 
     41 O           2.0713  -19.9936  -40.8617 O.2       6 UNK        -0.5000 
     42 CA          2.4741  -18.1936  -39.3317 C.3       6 UNK         0.1400 
     43 CB          3.0056  -18.7168  -37.9889 C.3       6 UNK        -0.1800 
     44 N           2.9054  -16.8037  -39.5167 N.am      6 UNK        -0.5000 
     45 C           2.5823  -16.0352  -40.5647 C.2       5 UNK         0.5000 
     46 O           1.9689  -16.4442  -41.5498 O.2       5 UNK        -0.5000 
     47 CA          2.9954  -14.5605  -40.4987 C.3       5 UNK         0.1400 
     48 CB          3.7820  -14.1372  -41.7496 C.3       5 UNK        -0.1800 
     49 N           1.7837  -13.7551  -40.4032 N.am      5 UNK        -0.5000 
     50 C           1.2713  -13.2815  -39.2609 C.2       4 UNK         0.5000 
     51 O           1.8073  -13.4237  -38.1609 O.2       4 UNK        -0.5000 
     52 CA         -0.0607  -12.5126  -39.3549 C.3       4 UNK         0.1400 
     53 CB          0.2005  -11.0002  -39.4311 C.3       4 UNK        -0.1800 
     54 N          -0.8847  -12.9069  -40.4989 N.am      4 UNK        -0.5000 
     55 C          -1.5639  -14.0589  -40.5957 C.2       3 UNK         0.5000 
     56 O          -1.5670  -14.9255  -39.7213 O.2       3 UNK        -0.5000 
     57 CA         -2.3911  -14.2716  -41.8802 C.3       3 UNK         0.1400 
     58 CB         -3.8632  -13.9059  -41.6360 C.3       3 UNK        -0.1800 
     59 N          -1.8927  -13.5022  -43.0239 N.am      3 UNK        -0.5000 
     60 C          -0.7663  -13.7897  -43.6870 C.2       2 UNK         0.5000 
     61 O          -0.0258  -14.7302  -43.4021 O.2       2 UNK        -0.5000 
     62 CA         -0.3719  -12.8317  -44.8222 C.3       2 UNK         0.1400 
     63 CB          0.7026  -11.8465  -44.3353 C.3       2 UNK        -0.1800 
     64 N           0.1418  -13.5565  -45.9818 N.am      2 UNK        -0.5000 
     65 C          -0.6000  -14.2958  -46.8188 C.2       1 UNK         0.5000 
     66 O          -1.8182  -14.4333  -46.6941 O.2       1 UNK        -0.5000 
     67 C           0.0230  -21.7105  -47.5781 C.2       11 UNK         0.5000 
     68 O          -0.3941  -22.4661  -48.4537 O.2       11 UNK        -0.5000 
     69 N          -0.6344  -20.6130  -47.1722 N.am      12 UNK        -0.5000 
     70 CA         -1.9361  -20.1766  -47.6809 C.3       12 UNK         0.1400 
     71 CB         -2.3249  -18.8338  -47.0368 C.3       12 UNK        -0.1800 
     72 C          -3.0494  -21.2137  -47.4543 C.2       12 UNK         0.5000 
     73 O          -3.8455  -21.4570  -48.3623 O.2       12 UNK        -0.5000 
     74 N          -3.0706  -21.8199  -46.2601 N.am      13 UNK        -0.5000 
     75 CA         -3.9914  -22.8948  -45.8972 C.3       13 UNK         0.1400 
     76 CB         -3.9164  -23.1477  -44.3837 C.3       13 UNK        -0.1800 
     77 C          -3.7247  -24.1886  -46.6874 C.2       13 UNK         0.5000 
     78 O          -4.6732  -24.8028  -47.1760 O.2       13 UNK        -0.5000 
     79 N          -2.4446  -24.5659  -46.8155 N.am      14 UNK        -0.5000 
     80 CA         -1.9940  -25.7548  -47.5404 C.3       14 UNK         0.1400 
     81 CB         -0.5069  -26.0043  -47.2457 C.3       14 UNK        -0.1800 
     82 C          -2.2393  -25.6670  -49.0572 C.2       14 UNK         0.5000 
     83 O          -2.7052  -26.6392  -49.6530 O.2       14 UNK        -0.5000 
     84 N          -1.9325  -24.5065  -49.6520 N.am      15 UNK        -0.5000 
     85 CA         -2.1225  -24.2335  -51.0772 C.3       15 UNK         0.1400 
     86 CB         -1.2261  -23.0550  -51.4880 C.3       15 UNK        -0.1800 
     87 C          -3.5909  -23.9528  -51.4505 C.2       15 UNK         0.5000 
     88 O          -3.9362  -24.0770  -52.6241 O.2       15 UNK        -0.5000 
     89 N          -4.4146  -23.5873  -50.4566 N.am      16 UNK        -0.5000 
     90 CA         -5.8174  -23.1776  -50.5550 C.3       16 UNK         0.1400 
     91 CB         -6.7026  -24.2959  -51.1448 C.3       16 UNK        -0.1800 
     92 C          -5.9528  -21.8345  -51.2960 C.2       16 UNK         0.5000 
     93 O          -6.5320  -21.7691  -52.3812 O.2       16 UNK        -0.5000 
     94 N          -5.4103  -20.7800  -50.6711 N.am      17 UNK        -0.5000 
     95 CA         -5.3252  -19.3932  -51.1529 C.3       17 UNK         0.1400 
     96 CB         -4.5977  -18.5572  -50.0899 C.3       17 UNK        -0.1800 
     97 C          -6.6530  -18.7114  -51.5555 C.2       17 UNK         0.5000 
     98 O          -6.6135  -17.6430  -52.1666 O.2       17 UNK        -0.5000 
     99 N          -7.7984  -19.3192  -51.2185 N.am      18 UNK        -0.5000 
    100 CA        -9.1244  -18.9235  -51.6974 C.3       18 UNK         0.1400 
    101 CB       -10.1903  -19.6396  -50.8536 C.3       18 UNK        -0.1800 
    102 C         -9.3373  -19.2169  -53.1992 C.2       18 UNK         0.5000 
    103 O        -10.1457  -18.5393  -53.8360 O.2       18 UNK        -0.5000 
    104 N         -8.6167  -20.2118  -53.7338 N.am      19 UNK        -0.5000 
    105 CA        -8.5751  -20.5678  -55.1512 C.3       19 UNK         0.1400 
    106 CB        -8.5223  -22.1044  -55.2544 C.3       19 UNK        -0.1800 
    107 C         -7.3609  -19.9035  -55.8352 C.2       19 UNK         0.5000 
    108 O         -6.7306  -19.0152  -55.2569 O.2       19 UNK        -0.5000 
    109 N         -7.0324  -20.3552  -57.0561 N.am      20 UNK        -0.5000 
    110 CA        -5.8174  -19.9673  -57.7875 C.3       20 UNK         0.1400 
    111 CB        -5.8638  -20.5600  -59.2039 C.3       20 UNK        -0.1800 
    112 C         -4.5242  -20.3938  -57.0604 C.2       20 UNK         0.5000 
    113 O         -3.5280  -19.6708  -57.1117 O.2       20 UNK        -0.5000 
    114 N         -4.6063  -21.5304  -56.3527 N.am      21 UNK        -0.5000 
    115 CA        -3.6734  -22.0719  -55.3633 C.3       21 UNK         0.1400 
    116 CB        -3.4941  -21.0815  -54.1959 C.3       21 UNK        -0.1800 
    117 C         -2.3226  -22.5341  -55.9347 C.2       21 UNK         0.5000 
    118 O         -2.0097  -23.7236  -55.8715 O.2       21 UNK        -0.5000 
    119 N         -1.5345  -21.5869  -56.4477 N.am      22 UNK        -0.5000 
    120 CA        -0.1849  -21.8113  -56.9757 C.3       22 UNK         0.1400 
    121 C         -0.2174  -22.4527  -58.3910 C.2       22 UNK         0.5000 
    122 N          0.7458  -23.3053  -58.7135 N.am      22 UNK        -0.7600 
    123 O         -1.0806  -22.1562  -59.2146 O.2       22 UNK        -0.5000 
    124 C124        0.6415  -20.4988  -56.9894 C.3       23 UNK        -0.0398 
    125 S125        0.9335  -19.6488  -55.3877 S.3       23 UNK        -0.2404 
    126 C126        0.6019  -20.8772  -54.0798 C.3       23 UNK        -0.0205 
    127 H127        3.2702  -12.5562  -50.1008 H         1 UNK         0.0600 
    128 H128        3.8130  -13.5887  -48.7755 H         1 UNK         0.0600 
    129 H129        3.3906  -11.9028  -48.4636 H         1 UNK         0.0600 
    130 H130        2.2429  -15.0009  -48.1333 H         1 UNK         0.3000 
    131 H131        0.3571  -15.9979  -47.6174 H         1 UNK         0.0600 
    132 H132       -1.0695  -14.1902  -49.6313 H         1 UNK         0.0800 
    133 H133       -1.6995  -15.6757  -48.9812 H         1 UNK         0.0800 
    134 H134       -1.6018  -17.8445  -50.6680 H         1 UNK         0.0800 
    135 H135       -0.6489  -17.9265  -49.2004 H         1 UNK         0.0800 
    136 H136       -0.8271  -19.0253  -52.6879 H         1 UNK         0.1150 
    137 H137        2.6867  -21.4688  -52.4129 H         1 UNK         0.1150 
    138 H138        1.6618  -18.8122  -49.2073 H         1 UNK         0.1150 
    139 H139        4.3296  -20.9029  -50.6733 H         1 UNK         0.0800 
    140 H140        3.9436  -19.8176  -49.3678 H         1 UNK         0.0800 
    141 H141        2.3366  -20.2550  -47.5366 H         1 UNK         0.0800 
    142 H142        3.3657  -21.3386  -46.6533 H         1 UNK         0.0800 
    143 H143        1.4969  -23.1363  -46.9935 H         1 UNK         0.0600 
    144 H144        1.7612  -21.2050  -44.9394 H         1 UNK         0.3000 
    145 H145       -0.6672  -22.6920  -42.7414 H         1 UNK         0.0600 
    146 H146        1.3181  -22.6572  -41.2769 H         1 UNK         0.0600 
    147 H147        2.3831  -22.4032  -42.6576 H         1 UNK         0.0600 
    148 H148        1.5037  -23.9181  -42.4858 H         1 UNK         0.0600 
    149 H149        0.9498  -20.3829  -42.4238 H         1 UNK         0.3000 
    150 H150       -1.3535  -18.0092  -43.8594 H         1 UNK         0.0600 
    151 H151       -2.0245  -18.3163  -41.5076 H         1 UNK         0.0600 
    152 H152       -0.8203  -17.0362  -41.5947 H         1 UNK         0.0600 
    153 H153       -0.3624  -18.6340  -41.0252 H         1 UNK         0.0600 
    154 H154        1.2130  -17.5917  -42.7881 H         1 UNK         0.3000 
    155 H155        3.1426  -18.1642  -45.7520 H         1 UNK         0.0600 
    156 H156        2.3255  -15.8454  -45.9082 H         1 UNK         0.0600 
    157 H157        3.8747  -15.8617  -45.0778 H         1 UNK         0.0600 
    158 H158        2.3776  -15.6632  -44.1650 H         1 UNK         0.0600 
    159 H159        3.7416  -17.4561  -43.0133 H         1 UNK         0.3000 
    160 H160        4.4730  -20.7861  -41.9385 H         1 UNK         0.0600 
    161 H161        6.2791  -18.3822  -42.5433 H         1 UNK         0.0600 
    162 H162        6.4985  -20.0088  -43.1778 H         1 UNK         0.0600 
    163 H163        6.6533  -19.7170  -41.4528 H         1 UNK         0.0600 
    164 H164        4.6753  -18.2319  -40.6534 H         1 UNK         0.3000 
    165 H165        1.3835  -18.1876  -39.2827 H         1 UNK         0.0600 
    166 H166        2.6353  -18.1174  -37.1571 H         1 UNK         0.0600 
    167 H167        2.6834  -19.7445  -37.8149 H         1 UNK         0.0600 
    168 H168        4.0956  -18.7040  -37.9542 H         1 UNK         0.0600 
    169 H169        3.4051  -16.3859  -38.7449 H         1 UNK         0.3000 
    170 H170        3.6377  -14.4038  -39.6294 H         1 UNK         0.0600 
    171 H171        3.1620  -14.1612  -42.6452 H         1 UNK         0.0600 
    172 H172        4.1645  -13.1220  -41.6431 H         1 UNK         0.0600 
    173 H173        4.6376  -14.7921  -41.9188 H         1 UNK         0.0600 
    174 H174        1.2349  -13.6808  -41.2484 H         1 UNK         0.3000 
    175 H175       -0.6228  -12.7155  -38.4408 H         1 UNK         0.0600 
    176 H176        0.7469  -10.7308  -40.3360 H         1 UNK         0.0600 
    177 H177       -0.7330  -10.4372  -39.4212 H         1 UNK         0.0600 
    178 H178        0.7909  -10.6621  -38.5784 H         1 UNK         0.0600 
    179 H179       -0.9519  -12.2475  -41.2595 H         1 UNK         0.3000 
    180 H180       -2.3458  -15.3321  -42.1344 H         1 UNK         0.0600 
    181 H181       -4.4733  -14.1173  -42.5144 H         1 UNK         0.0600 
    182 H182       -3.9811  -12.8499  -41.3899 H         1 UNK         0.0600 
    183 H183       -4.2770  -14.4839  -40.8084 H         1 UNK         0.0600 
    184 H184       -2.4512  -12.7125  -43.3148 H         1 UNK         0.3000 
    185 H185       -1.2506  -12.2627  -45.1339 H         1 UNK         0.0600 
    186 H186        0.3448  -11.2641  -43.4853 H         1 UNK         0.0600 
    187 H187        1.6102  -12.3634  -44.0198 H         1 UNK         0.0600 
    188 H188        0.9746  -11.1401  -45.1200 H         1 UNK         0.0600 
    189 H189        1.1369  -13.5103  -46.1392 H         1 UNK         0.3000 
    190 H190       -0.2028  -20.0135  -46.4722 H         1 UNK         0.3000 
    191 H191       -1.8293  -20.0350  -48.7573 H         1 UNK         0.0600 
    192 H192       -1.5487  -18.0802  -47.1586 H         1 UNK         0.0600 
    193 H193       -2.5073  -18.9376  -45.9678 H         1 UNK         0.0600 
    194 H194       -3.2372  -18.4351  -47.4797 H         1 UNK         0.0600 
    195 H195       -2.4157  -21.5162  -45.5460 H         1 UNK         0.3000 
    196 H196       -5.0046  -22.5631  -46.1338 H         1 UNK         0.0600 
    197 H197       -4.1762  -22.2503  -43.8221 H         1 UNK         0.0600 
    198 H198       -2.9176  -23.4560  -44.0740 H         1 UNK         0.0600 
    199 H199       -4.6112  -23.9330  -44.0838 H         1 UNK         0.0600 
    200 H200       -1.7250  -24.0244  -46.3441 H         1 UNK         0.3000 
    201 H201       -2.5597  -26.6091  -47.1626 H         1 UNK         0.0600 
    202 H202       -0.3367  -26.1564  -46.1798 H         1 UNK         0.0600 
    203 H203        0.1127  -25.1665  -47.5669 H         1 UNK         0.0600 
    204 H204       -0.1493  -26.8956  -47.7628 H         1 UNK         0.0600 
    205 H205       -1.4983  -23.7647  -49.1043 H         1 UNK         0.3000 
    206 H206       -1.8006  -25.1114  -51.6414 H         1 UNK         0.0600 
    207 H207       -1.5493  -22.1201  -51.0274 H         1 UNK         0.0600 
    208 H208       -1.2411  -22.9182  -52.5689 H         1 UNK         0.0600 
    209 H209       -0.1879  -23.2253  -51.2019 H         1 UNK         0.0600 
    210 H210       -4.0041  -23.4802  -49.5383 H         1 UNK         0.3000 
    211 H211       -6.1544  -23.0075  -49.5312 H         1 UNK         0.0600 
    212 H212       -6.4717  -24.4987  -52.1907 H         1 UNK         0.0600 
    213 H213       -7.7562  -24.0187  -51.0964 H         1 UNK         0.0600 
    214 H214       -6.5840  -25.2255  -50.5882 H         1 UNK         0.0600 
    215 H215       -4.9294  -20.9650  -49.7930 H         1 UNK         0.3000 
    216 H216       -4.7013  -19.3994  -52.0462 H         1 UNK         0.0600 
    217 H217       -4.4787  -17.5210  -50.4094 H         1 UNK         0.0600 
    218 H218       -3.6007  -18.9521  -49.9047 H         1 UNK         0.0600 
    219 H219       -5.1415  -18.5521  -49.1446 H         1 UNK         0.0600 
    220 H220       -7.7397  -20.1897  -50.7121 H         1 UNK         0.3000 
    221 H221       -9.2369  -17.8473  -51.5503 H         1 UNK         0.0600 
    222 H222      -10.1183  -20.7237  -50.9503 H         1 UNK         0.0600 
    223 H223      -10.0925  -19.3882  -49.7974 H         1 UNK         0.0600 
    224 H224      -11.1945  -19.3483  -51.1644 H         1 UNK         0.0600 
    225 H225       -7.9282  -20.6812  -53.1514 H         1 UNK         0.3000 
    226 H226       -9.4777  -20.2165  -55.6550 H         1 UNK         0.0600 
    227 H227       -8.6197  -22.4427  -56.2862 H         1 UNK         0.0600 
    228 H228       -7.5861  -22.5024  -54.8602 H         1 UNK         0.0600 
    229 H229       -9.3373  -22.5624  -54.6936 H         1 UNK         0.0600 
    230 H230       -7.6082  -21.0651  -57.4852 H         1 UNK         0.3000 
    231 H231       -5.8066  -18.8785  -57.8709 H         1 UNK         0.0600 
    232 H232       -6.7350  -20.2026  -59.7531 H         1 UNK         0.0600 
    233 H233       -5.9012  -21.6499  -59.1848 H         1 UNK         0.0600 
    234 H234       -4.9801  -20.2724  -59.7753 H         1 UNK         0.0600 
    235 H235       -5.4710  -22.0448  -56.4326 H         1 UNK         0.3000 
    236 H236       -4.1668  -22.9587  -54.9646 H         1 UNK         0.0600 
    237 H237       -2.9622  -20.1769  -54.4916 H         1 UNK         0.0600 
    238 H238       -4.4656  -20.7814  -53.8088 H         1 UNK         0.0600 
    239 H239       -2.9413  -21.5329  -53.3740 H         1 UNK         0.0600 
    240 H240       -1.9269  -20.6579  -56.5632 H         1 UNK         0.3000 
    241 H241        0.3185  -22.5206  -56.3169 H         1 UNK         0.0600 
    242 H242        0.7454  -23.7177  -59.6339 H         1 UNK         0.3800 
    243 H243        1.4706  -23.5608  -58.0603 H         1 UNK         0.3800 
    244 H244        0.1714  -19.7754  -57.6581 H         1 UNK         0.0800 
    245 H245        1.6269  -20.6929  -57.4168 H         1 UNK         0.0800 
    246 H246        1.1972  -21.7738  -54.2572 H         1 UNK         0.0800 
    247 H247       -0.4431  -21.1782  -54.1028 H         1 UNK         0.0800 
@<TRIPOS>BOND
     1    1    2 1    
     2    1  127 1    
     3    1  128 1    
     4    1  129 1    
     5    2    3 2    
     6    2    4 am   BACKBONE|DICT|INTERRES
     7    4    5 1    
     8    4  130 1    
     9    5    6 1    
    10    5   65 1    
    11    5  131 1    
    12    6    7 1    
    13    6  132 1    
    14    6  133 1    
    15    7    8 1    
    16    8    9 1    
    17    8  134 1    
    18    8  135 1    
    19    9   10 ar   
    20    9   14 ar   
    21   10   11 ar   
    22   10  136 1    
    23   11   12 ar   
    24   11  126 1    
    25   12   13 ar   
    26   12  137 1    
    27   13   14 ar   
    28   13   15 1    
    29   14  138 1    
    30   15   16 1    
    31   15  139 1    
    32   15  140 1    
    33   16   17 1    
    34   17   18 1    
    35   17  141 1    
    36   17  142 1    
    37   18   19 1    
    38   18   67 1    
    39   18  143 1    
    40   19   20 am   BACKBONE|DICT|INTERRES
    41   19  144 1    
    42   20   21 2    
    43   20   22 1    
    44   22   23 1    
    45   22   24 1    
    46   22  145 1    
    47   23  146 1    
    48   23  147 1    
    49   23  148 1    
    50   24   25 am   BACKBONE|DICT|INTERRES
    51   24  149 1    
    52   25   26 2    
    53   25   27 1    
    54   27   28 1    
    55   27   29 1    
    56   27  150 1    
    57   28  151 1    
    58   28  152 1    
    59   28  153 1    
    60   29   30 am   BACKBONE|DICT|INTERRES
    61   29  154 1    
    62   30   31 2    
    63   30   32 1    
    64   32   33 1    
    65   32   34 1    
    66   32  155 1    
    67   33  156 1    
    68   33  157 1    
    69   33  158 1    
    70   34   35 am   BACKBONE|DICT|INTERRES
    71   34  159 1    
    72   35   36 2    
    73   35   37 1    
    74   37   38 1    
    75   37   39 1    
    76   37  160 1    
    77   38  161 1    
    78   38  162 1    
    79   38  163 1    
    80   39   40 am   BACKBONE|DICT|INTERRES
    81   39  164 1    
    82   40   41 2    
    83   40   42 1    
    84   42   43 1    
    85   42   44 1    
    86   42  165 1    
    87   43  166 1    
    88   43  167 1    
    89   43  168 1    
    90   44   45 am   BACKBONE|DICT|INTERRES
    91   44  169 1    
    92   45   46 2    
    93   45   47 1    
    94   47   48 1    
    95   47   49 1    
    96   47  170 1    
    97   48  171 1    
    98   48  172 1    
    99   48  173 1    
   100   49   50 am   BACKBONE|DICT|INTERRES
   101   49  174 1    
   102   50   51 2    
   103   50   52 1    
   104   52   53 1    
   105   52   54 1    
   106   52  175 1    
   107   53  176 1    
   108   53  177 1    
   109   53  178 1    
   110   54   55 am   BACKBONE|DICT|INTERRES
   111   54  179 1    
   112   55   56 2    
   113   55   57 1    
   114   57   58 1    
   115   57   59 1    
   116   57  180 1    
   117   58  181 1    
   118   58  182 1    
   119   58  183 1    
   120   59   60 am   BACKBONE|DICT|INTERRES
   121   59  184 1    
   122   60   61 2    
   123   60   62 1    
   124   62   63 1    
   125   62   64 1    
   126   62  185 1    
   127   63  186 1    
   128   63  187 1    
   129   63  188 1    
   130   64   65 am   BACKBONE|DICT|INTERRES
   131   64  189 1    
   132   65   66 2    
   133   67   68 2    
   134   67   69 am   BACKBONE|DICT|INTERRES
   135   69   70 1    
   136   69  190 1    
   137   70   71 1    
   138   70   72 1    
   139   70  191 1    
   140   71  192 1    
   141   71  193 1    
   142   71  194 1    
   143   72   73 2    
   144   72   74 am   BACKBONE|DICT|INTERRES
   145   74   75 1    
   146   74  195 1    
   147   75   76 1    
   148   75   77 1    
   149   75  196 1    
   150   76  197 1    
   151   76  198 1    
   152   76  199 1    
   153   77   78 2    
   154   77   79 am   BACKBONE|DICT|INTERRES
   155   79   80 1    
   156   79  200 1    
   157   80   81 1    
   158   80   82 1    
   159   80  201 1    
   160   81  202 1    
   161   81  203 1    
   162   81  204 1    
   163   82   83 2    
   164   82   84 am   BACKBONE|DICT|INTERRES
   165   84   85 1    
   166   84  205 1    
   167   85   86 1    
   168   85   87 1    
   169   85  206 1    
   170   86  207 1    
   171   86  208 1    
   172   86  209 1    
   173   87   88 2    
   174   87   89 am   BACKBONE|DICT|INTERRES
   175   89   90 1    
   176   89  210 1    
   177   90   91 1    
   178   90   92 1    
   179   90  211 1    
   180   91  212 1    
   181   91  213 1    
   182   91  214 1    
   183   92   93 2    
   184   92   94 am   BACKBONE|DICT|INTERRES
   185   94   95 1    
   186   94  215 1    
   187   95   96 1    
   188   95   97 1    
   189   95  216 1    
   190   96  217 1    
   191   96  218 1    
   192   96  219 1    
   193   97   98 2    
   194   97   99 am   BACKBONE|DICT|INTERRES
   195   99  100 1    
   196   99  220 1    
   197  100  101 1    
   198  100  102 1    
   199  100  221 1    
   200  101  222 1    
   201  101  223 1    
   202  101  224 1    
   203  102  103 2    
   204  102  104 am   BACKBONE|DICT|INTERRES
   205  104  105 1    
   206  104  225 1    
   207  105  106 1    
   208  105  107 1    
   209  105  226 1    
   210  106  227 1    
   211  106  228 1    
   212  106  229 1    
   213  107  108 2    
   214  107  109 am   BACKBONE|DICT|INTERRES
   215  109  110 1    
   216  109  230 1    
   217  110  111 1    
   218  110  112 1    
   219  110  231 1    
   220  111  232 1    
   221  111  233 1    
   222  111  234 1    
   223  112  113 2    
   224  112  114 am   BACKBONE|DICT|INTERRES
   225  114  115 1    
   226  114  235 1    
   227  115  116 1    
   228  115  117 1    
   229  115  236 1    
   230  116  237 1    
   231  116  238 1    
   232  116  239 1    
   233  117  118 2    
   234  117  119 am   BACKBONE|DICT|INTERRES
   235  119  120 1    
   236  119  240 1    
   237  120  121 1    
   238  120  124 1    
   239  120  241 1    
   240  121  122 am   BACKBONE|DICT|INTERRES
   241  121  123 2    
   242  122  242 1    
   243  122  243 1    
   244  124  125 1    
   245  124  244 1    
   246  124  245 1    
   247  125  126 1    
   248  126  246 1    
   249  126  247 1    
@<TRIPOS>SUBSTRUCTURE
     1 UNK         1 GROUP             0       ****    0 ROOT    
