@<TRIPOS>MOLECULE
3R540
247   249    1
SMALL
USER_CHARGES


@<TRIPOS>ATOM
      1 CA         -3.9168  -16.5489  -50.1593 C.3       0 UNK        -0.1800 
      2 C          -3.6876  -15.9627  -48.7751 C.2       0 UNK         0.5000 
      3 O          -4.6504  -15.6803  -48.0611 O.2       0 UNK        -0.5000 
      4 N          -2.4193  -15.7817  -48.3886 N.am      1 UNK        -0.5000 
      5 CA         -1.9798  -15.2018  -47.1137 C.3       1 UNK         0.1400 
      6 C6         -0.5411  -14.6230  -47.1872 C.3       23 UNK        -0.0398 
      7 S7         -0.2487  -13.4841  -48.5806 S.3       23 UNK        -0.2404 
      8 C8          1.0538  -14.3719  -49.4922 C.3       23 UNK        -0.0205 
      9 C9          0.4838  -15.4766  -50.3695 C.ar      23 UNK        -0.0193 
     10 C10         0.1470  -15.1992  -51.6963 C.ar      23 UNK        -0.1150 
     11 C11        -0.3465  -16.2029  -52.5330 C.ar      23 UNK        -0.0193 
     12 C12        -0.5208  -17.4934  -52.0228 C.ar      23 UNK        -0.1150 
     13 C13        -0.2029  -17.7832  -50.6921 C.ar      23 UNK        -0.0193 
     14 C14         0.3084  -16.7729  -49.8736 C.ar      23 UNK        -0.1150 
     15 C15        -0.3961  -19.1910  -50.1479 C.3       23 UNK        -0.0205 
     16 S16        -1.8769  -19.3140  -49.0882 S.3       23 UNK        -0.2404 
     17 C17        -1.1503  -19.5408  -47.4272 C.3       23 UNK        -0.0398 
     18 CA         -1.2470  -21.0133  -46.9502 C.3       11 UNK         0.1400 
     19 N          -0.0169  -21.4737  -46.3069 N.am      11 UNK        -0.5000 
     20 C           0.3009  -22.7660  -46.1555 C.2       10 UNK         0.5000 
     21 O          -0.4134  -23.6953  -46.5335 O.2       10 UNK        -0.5000 
     22 CA          1.6150  -23.0650  -45.4187 C.3       10 UNK         0.1400 
     23 CB          2.8279  -22.7934  -46.3222 C.3       10 UNK        -0.1800 
     24 N           1.7400  -22.2940  -44.1825 N.am      10 UNK        -0.5000 
     25 C           0.9670  -22.4664  -43.1022 C.2       9 UNK         0.5000 
     26 O           0.0451  -23.2781  -43.0426 O.2       9 UNK        -0.5000 
     27 CA          1.2583  -21.5682  -41.8897 C.3       9 UNK         0.1400 
     28 CB          2.3605  -22.1829  -41.0144 C.3       9 UNK        -0.1800 
     29 N           1.6413  -20.2089  -42.2659 N.am      9 UNK        -0.5000 
     30 C           0.8037  -19.3128  -42.8016 C.2       8 UNK         0.5000 
     31 O          -0.3735  -19.5411  -43.0872 O.2       8 UNK        -0.5000 
     32 CA          1.3829  -17.9147  -43.0574 C.3       8 UNK         0.1400 
     33 CB          1.8859  -17.2813  -41.7474 C.3       8 UNK        -0.1800 
     34 N           2.4439  -17.8316  -44.0624 N.am      8 UNK        -0.5000 
     35 C           2.5544  -18.4936  -45.2238 C.2       7 UNK         0.5000 
     36 O           1.8258  -19.4259  -45.5664 O.2       7 UNK        -0.5000 
     37 CA          3.6582  -18.0237  -46.1937 C.3       7 UNK         0.1400 
     38 CB          3.0546  -17.6665  -47.5607 C.3       7 UNK        -0.1800 
     39 N           4.4039  -16.8582  -45.7121 N.am      7 UNK        -0.5000 
     40 C           5.4776  -16.8916  -44.9123 C.2       6 UNK         0.5000 
     41 O           5.9592  -17.9303  -44.4602 O.2       6 UNK        -0.5000 
     42 CA          6.1194  -15.5345  -44.5569 C.3       6 UNK         0.1400 
     43 CB          7.3516  -15.2788  -45.4385 C.3       6 UNK        -0.1800 
     44 N           5.1922  -14.4063  -44.6992 N.am      6 UNK        -0.5000 
     45 C           4.2149  -14.1159  -43.8299 C.2       5 UNK         0.5000 
     46 O           4.0454  -14.7422  -42.7816 O.2       5 UNK        -0.5000 
     47 CA          3.2943  -12.9207  -44.1789 C.3       5 UNK         0.1400 
     48 CB          3.0817  -12.7406  -45.7009 C.3       5 UNK        -0.1800 
     49 N           1.9981  -12.9716  -43.4875 N.am      5 UNK        -0.5000 
     50 C           1.0743  -13.9359  -43.6006 C.2       4 UNK         0.5000 
     51 O           1.1951  -14.9119  -44.3403 O.2       4 UNK        -0.5000 
     52 CA         -0.2039  -13.7624  -42.7647 C.3       4 UNK         0.1400 
     53 CB         -1.2124  -12.8454  -43.4769 C.3       4 UNK        -0.1800 
     54 N          -0.8310  -15.0607  -42.5200 N.am      4 UNK        -0.5000 
     55 C          -1.4010  -15.4297  -41.3636 C.2       3 UNK         0.5000 
     56 O          -1.4829  -14.6834  -40.3863 O.2       3 UNK        -0.5000 
     57 CA         -1.9504  -16.8729  -41.2645 C.3       3 UNK         0.1400 
     58 CB         -3.0248  -17.0420  -40.1693 C.3       3 UNK        -0.1800 
     59 N          -2.4114  -17.4186  -42.5433 N.am      3 UNK        -0.5000 
     60 C          -3.4409  -16.9825  -43.2820 C.2       2 UNK         0.5000 
     61 O          -4.1906  -16.0578  -42.9632 O.2       2 UNK        -0.5000 
     62 CA         -3.6278  -17.6738  -44.6440 C.3       2 UNK         0.1400 
     63 CB         -5.0477  -18.2317  -44.8209 C.3       2 UNK        -0.1800 
     64 N          -3.3213  -16.7528  -45.7366 N.am      2 UNK        -0.5000 
     65 C          -2.1153  -16.2148  -45.9527 C.2       1 UNK         0.5000 
     66 O          -1.1294  -16.5270  -45.2857 O.2       1 UNK        -0.5000 
     67 C          -2.4877  -21.2800  -46.0680 C.2       11 UNK         0.5000 
     68 O          -3.5568  -21.5654  -46.6081 O.2       11 UNK        -0.5000 
     69 N          -2.3255  -21.2381  -44.7340 N.am      12 UNK        -0.5000 
     70 CA         -3.3617  -21.6210  -43.7706 C.3       12 UNK         0.1400 
     71 CB         -2.9693  -21.1882  -42.3511 C.3       12 UNK        -0.1800 
     72 C          -3.6751  -23.1260  -43.8080 C.2       12 UNK         0.5000 
     73 O          -4.8499  -23.4917  -43.8100 O.2       12 UNK        -0.5000 
     74 N          -2.6365  -23.9712  -43.8894 N.am      13 UNK        -0.5000 
     75 CA         -2.7600  -25.4249  -44.0457 C.3       13 UNK         0.1400 
     76 CB         -1.3768  -26.0800  -43.9162 C.3       13 UNK        -0.1800 
     77 C          -3.4313  -25.8287  -45.3724 C.2       13 UNK         0.5000 
     78 O          -4.1782  -26.8069  -45.4059 O.2       13 UNK        -0.5000 
     79 N          -3.1926  -25.0363  -46.4255 N.am      14 UNK        -0.5000 
     80 CA         -3.8592  -25.1388  -47.7233 C.3       14 UNK         0.1400 
     81 CB         -2.9808  -24.4544  -48.7823 C.3       14 UNK        -0.1800 
     82 C          -5.2804  -24.5358  -47.7374 C.2       14 UNK         0.5000 
     83 O          -5.9422  -24.6115  -48.7714 O.2       14 UNK        -0.5000 
     84 N          -5.7187  -23.9133  -46.6313 N.am      15 UNK        -0.5000 
     85 CA         -7.0004  -23.2192  -46.4500 C.3       15 UNK         0.1400 
     86 CB         -8.1616  -24.2342  -46.4200 C.3       15 UNK        -0.1800 
     87 C          -7.2191  -22.0819  -47.4720 C.2       15 UNK         0.5000 
     88 O          -8.3382  -21.8797  -47.9456 O.2       15 UNK        -0.5000 
     89 N          -6.1229  -21.3909  -47.8185 N.am      16 UNK        -0.5000 
     90 CA         -5.9914  -20.3428  -48.8345 C.3       16 UNK         0.1400 
     91 CB         -6.8772  -19.1238  -48.5052 C.3       16 UNK        -0.1800 
     92 C          -6.1879  -20.8214  -50.2903 C.2       16 UNK         0.5000 
     93 O          -6.1237  -19.9912  -51.1960 O.2       16 UNK        -0.5000 
     94 N          -6.3664  -22.1320  -50.5310 N.am      17 UNK        -0.5000 
     95 CA         -6.5161  -22.7071  -51.8762 C.3       17 UNK         0.1400 
     96 CB         -6.9972  -24.1613  -51.7739 C.3       17 UNK        -0.1800 
     97 C          -5.2226  -22.6237  -52.7095 C.2       17 UNK         0.5000 
     98 O          -5.2823  -22.6140  -53.9397 O.2       17 UNK        -0.5000 
     99 N          -4.0797  -22.4987  -52.0198 N.am      18 UNK        -0.5000 
    100 CA        -2.7591  -22.2391  -52.5902 C.3       18 UNK         0.1400 
    101 CB        -1.6907  -22.4686  -51.5110 C.3       18 UNK        -0.1800 
    102 C         -2.6143  -20.8486  -53.2454 C.2       18 UNK         0.5000 
    103 O         -1.6010  -20.6137  -53.9034 O.2       18 UNK        -0.5000 
    104 N         -3.6256  -19.9718  -53.1210 N.am      19 UNK        -0.5000 
    105 CA        -3.7462  -18.7031  -53.8489 C.3       19 UNK         0.1400 
    106 CB        -5.0480  -17.9986  -53.4437 C.3       19 UNK        -0.1800 
    107 C         -3.6999  -18.8609  -55.3816 C.2       19 UNK         0.5000 
    108 O         -3.2033  -17.9686  -56.0686 O.2       19 UNK        -0.5000 
    109 N         -4.1980  -20.0005  -55.8829 N.am      20 UNK        -0.5000 
    110 CA        -4.1656  -20.3720  -57.2972 C.3       20 UNK         0.1400 
    111 CB        -5.1390  -21.5389  -57.5229 C.3       20 UNK        -0.1800 
    112 C         -2.7551  -20.7432  -57.7978 C.2       20 UNK         0.5000 
    113 O         -2.4914  -20.6165  -58.9942 O.2       20 UNK        -0.5000 
    114 N         -1.8831  -21.1986  -56.8879 N.am      21 UNK        -0.5000 
    115 CA        -0.4947  -21.5517  -57.1730 C.3       21 UNK         0.1400 
    116 CB        -0.0777  -22.7448  -56.2961 C.3       21 UNK        -0.1800 
    117 C          0.4241  -20.3422  -56.9438 C.2       21 UNK         0.5000 
    118 O          1.1569  -19.9541  -57.8542 O.2       21 UNK        -0.5000 
    119 N          0.3495  -19.7625  -55.7373 N.am      22 UNK        -0.5000 
    120 CA         1.1193  -18.5902  -55.2896 C.3       22 UNK         0.1400 
    121 C          2.6665  -18.8014  -55.2367 C.2       22 UNK         0.5000 
    122 N          3.1489  -20.0290  -55.0828 N.am      22 UNK        -0.7600 
    123 O          3.4447  -17.8551  -55.3176 O.2       22 UNK        -0.5000 
    124 C124        0.6711  -17.2980  -56.0287 C.3       23 UNK        -0.0398 
    125 S125        0.8092  -15.7849  -55.0151 S.3       23 UNK        -0.2404 
    126 C126       -0.6876  -15.8736  -53.9799 C.3       23 UNK        -0.0205 
    127 H127       -4.6218  -15.9328  -50.7171 H         1 UNK         0.0600 
    128 H128       -4.3299  -17.5540  -50.0740 H         1 UNK         0.0600 
    129 H129       -2.9919  -16.6081  -50.7324 H         1 UNK         0.0600 
    130 H130       -1.6753  -16.0427  -49.0214 H         1 UNK         0.3000 
    131 H131       -2.6465  -14.3692  -46.8796 H         1 UNK         0.0600 
    132 H132        0.1996  -15.4226  -47.2085 H         1 UNK         0.0800 
    133 H133       -0.3295  -14.0586  -46.2801 H         1 UNK         0.0800 
    134 H134        1.7954  -14.7733  -48.8004 H         1 UNK         0.0800 
    135 H135        1.5897  -13.6525  -50.1132 H         1 UNK         0.0800 
    136 H136        0.2830  -14.2000  -52.0861 H         1 UNK         0.1150 
    137 H137       -0.8958  -18.2790  -52.6609 H         1 UNK         0.1150 
    138 H138        0.5609  -17.0026  -48.8502 H         1 UNK         0.1150 
    139 H139       -0.5042  -19.8908  -50.9761 H         1 UNK         0.0800 
    140 H140        0.4993  -19.5076  -49.6120 H         1 UNK         0.0800 
    141 H141       -1.6488  -18.8681  -46.7329 H         1 UNK         0.0800 
    142 H142       -0.1147  -19.2010  -47.4485 H         1 UNK         0.0800 
    143 H143       -1.3671  -21.6414  -47.8358 H         1 UNK         0.0600 
    144 H144        0.6246  -20.7604  -45.9630 H         1 UNK         0.3000 
    145 H145        1.6164  -24.1256  -45.1582 H         1 UNK         0.0600 
    146 H146        3.7577  -23.0748  -45.8277 H         1 UNK         0.0600 
    147 H147        2.7631  -23.3717  -47.2448 H         1 UNK         0.0600 
    148 H148        2.9015  -21.7413  -46.5997 H         1 UNK         0.0600 
    149 H149        2.4275  -21.5550  -44.1723 H         1 UNK         0.3000 
    150 H150        0.3457  -21.5107  -41.2927 H         1 UNK         0.0600 
    151 H151        2.0922  -23.1930  -40.7018 H         1 UNK         0.0600 
    152 H152        2.5188  -21.5956  -40.1097 H         1 UNK         0.0600 
    153 H153        3.3110  -22.2451  -41.5458 H         1 UNK         0.0600 
    154 H154        2.5945  -19.9334  -42.0805 H         1 UNK         0.3000 
    155 H155        0.5581  -17.3100  -43.4299 H         1 UNK         0.0600 
    156 H156        2.8493  -17.6923  -41.4438 H         1 UNK         0.0600 
    157 H157        1.1918  -17.4430  -40.9232 H         1 UNK         0.0600 
    158 H158        2.0074  -16.2044  -41.8544 H         1 UNK         0.0600 
    159 H159        3.0911  -17.0689  -43.9249 H         1 UNK         0.3000 
    160 H160        4.3445  -18.8616  -46.3317 H         1 UNK         0.0600 
    161 H161        2.3689  -16.8239  -47.4751 H         1 UNK         0.0600 
    162 H162        2.5015  -18.5056  -47.9850 H         1 UNK         0.0600 
    163 H163        3.8301  -17.3966  -48.2777 H         1 UNK         0.0600 
    164 H164        4.0643  -15.9563  -46.0118 H         1 UNK         0.3000 
    165 H165        6.4508  -15.5883  -43.5176 H         1 UNK         0.0600 
    166 H166        7.8540  -14.3536  -45.1555 H         1 UNK         0.0600 
    167 H167        8.0789  -16.0855  -45.3371 H         1 UNK         0.0600 
    168 H168        7.0850  -15.2081  -46.4938 H         1 UNK         0.0600 
    169 H169        5.2954  -13.8372  -45.5270 H         1 UNK         0.3000 
    170 H170        3.8005  -12.0295  -43.8059 H         1 UNK         0.0600 
    171 H171        4.0101  -12.4746  -46.2068 H         1 UNK         0.0600 
    172 H172        2.6958  -13.6464  -46.1704 H         1 UNK         0.0600 
    173 H173        2.3722  -11.9384  -45.9045 H         1 UNK         0.0600 
    174 H174        1.8283  -12.2182  -42.8364 H         1 UNK         0.3000 
    175 H175        0.0878  -13.3032  -41.8178 H         1 UNK         0.0600 
    176 H176       -1.5776  -13.2908  -44.4022 H         1 UNK         0.0600 
    177 H177       -2.0763  -12.6480  -42.8420 H         1 UNK         0.0600 
    178 H178       -0.7655  -11.8823  -43.7263 H         1 UNK         0.0600 
    179 H179       -0.7731  -15.7123  -43.2968 H         1 UNK         0.3000 
    180 H180       -1.1063  -17.4950  -40.9700 H         1 UNK         0.0600 
    181 H181       -3.3868  -18.0694  -40.1276 H         1 UNK         0.0600 
    182 H182       -3.8824  -16.3897  -40.3356 H         1 UNK         0.0600 
    183 H183       -2.6208  -16.8026  -39.1851 H         1 UNK         0.0600 
    184 H184       -1.8337  -18.1658  -42.9174 H         1 UNK         0.3000 
    185 H185       -2.9325  -18.5123  -44.7026 H         1 UNK         0.0600 
    186 H186       -5.1119  -18.8517  -45.7151 H         1 UNK         0.0600 
    187 H187       -5.3322  -18.8551  -43.9726 H         1 UNK         0.0600 
    188 H188       -5.7875  -17.4349  -44.9058 H         1 UNK         0.0600 
    189 H189       -4.0868  -16.4592  -46.3354 H         1 UNK         0.3000 
    190 H190       -1.4267  -20.9684  -44.3514 H         1 UNK         0.3000 
    191 H191       -4.2788  -21.0928  -44.0381 H         1 UNK         0.0600 
    192 H192       -3.7196  -21.5027  -41.6247 H         1 UNK         0.0600 
    193 H193       -2.8885  -20.1059  -42.2759 H         1 UNK         0.0600 
    194 H194       -2.0168  -21.6204  -42.0455 H         1 UNK         0.0600 
    195 H195       -1.6908  -23.6055  -43.8191 H         1 UNK         0.3000 
    196 H196       -3.3883  -25.7953  -43.2332 H         1 UNK         0.0600 
    197 H197       -0.6843  -25.7123  -44.6740 H         1 UNK         0.0600 
    198 H198       -0.9381  -25.8823  -42.9382 H         1 UNK         0.0600 
    199 H199       -1.4438  -27.1628  -44.0287 H         1 UNK         0.0600 
    200 H200       -2.5111  -24.2936  -46.3230 H         1 UNK         0.3000 
    201 H201       -3.9503  -26.1941  -47.9878 H         1 UNK         0.0600 
    202 H202       -2.9023  -23.3815  -48.6072 H         1 UNK         0.0600 
    203 H203       -3.3945  -24.5957  -49.7815 H         1 UNK         0.0600 
    204 H204       -1.9719  -24.8675  -48.7883 H         1 UNK         0.0600 
    205 H205       -5.1059  -23.8852  -45.8251 H         1 UNK         0.3000 
    206 H206       -6.9546  -22.7402  -45.4712 H         1 UNK         0.0600 
    207 H207       -7.9828  -25.0137  -45.6795 H         1 UNK         0.0600 
    208 H208       -9.1011  -23.7472  -46.1564 H         1 UNK         0.0600 
    209 H209       -8.3030  -24.7166  -47.3877 H         1 UNK         0.0600 
    210 H210       -5.2483  -21.6337  -47.3553 H         1 UNK         0.3000 
    211 H211       -4.9536  -20.0123  -48.7723 H         1 UNK         0.0600 
    212 H212       -6.6414  -18.2822  -49.1575 H         1 UNK         0.0600 
    213 H213       -6.7260  -18.7869  -47.4804 H         1 UNK         0.0600 
    214 H214       -7.9369  -19.3447  -48.6331 H         1 UNK         0.0600 
    215 H215       -6.3932  -22.7843  -49.7550 H         1 UNK         0.3000 
    216 H216       -7.2833  -22.1338  -52.4007 H         1 UNK         0.0600 
    217 H217       -6.2286  -24.8123  -51.3568 H         1 UNK         0.0600 
    218 H218       -7.2538  -24.5539  -52.7585 H         1 UNK         0.0600 
    219 H219       -7.8860  -24.2436  -51.1479 H         1 UNK         0.0600 
    220 H220       -4.1416  -22.5091  -51.0131 H         1 UNK         0.3000 
    221 H221       -2.5907  -22.9688  -53.3848 H         1 UNK         0.0600 
    222 H222       -1.6544  -23.5169  -51.2164 H         1 UNK         0.0600 
    223 H223       -1.8856  -21.8774  -50.6170 H         1 UNK         0.0600 
    224 H224       -0.6955  -22.2081  -51.8737 H         1 UNK         0.0600 
    225 H225       -4.4174  -20.2211  -52.5405 H         1 UNK         0.3000 
    226 H226       -2.9159  -18.0673  -53.5512 H         1 UNK         0.0600 
    227 H227       -5.9245  -18.5949  -53.7006 H         1 UNK         0.0600 
    228 H228       -5.0790  -17.8088  -52.3728 H         1 UNK         0.0600 
    229 H229       -5.1456  -17.0349  -53.9453 H         1 UNK         0.0600 
    230 H230       -4.5930  -20.6798  -55.2453 H         1 UNK         0.3000 
    231 H231       -4.5114  -19.5190  -57.8850 H         1 UNK         0.0600 
    232 H232       -4.8552  -22.4171  -56.9411 H         1 UNK         0.0600 
    233 H233       -5.1617  -21.8328  -58.5731 H         1 UNK         0.0600 
    234 H234       -6.1557  -21.2648  -57.2406 H         1 UNK         0.0600 
    235 H235       -2.1572  -21.2022  -55.9150 H         1 UNK         0.3000 
    236 H236       -0.3957  -21.8586  -58.2166 H         1 UNK         0.0600 
    237 H237       -0.6940  -23.6188  -56.5073 H         1 UNK         0.0600 
    238 H238        0.9587  -23.0251  -56.4881 H         1 UNK         0.0600 
    239 H239       -0.1669  -22.5258  -55.2317 H         1 UNK         0.0600 
    240 H240       -0.3016  -20.1429  -55.0528 H         1 UNK         0.3000 
    241 H241        0.8387  -18.4811  -54.2441 H         1 UNK         0.0600 
    242 H242        4.1465  -20.1683  -55.0449 H         1 UNK         0.3800 
    243 H243        2.5285  -20.8189  -55.0082 H         1 UNK         0.3800 
    244 H244       -0.3681  -17.3831  -56.3506 H         1 UNK         0.0800 
    245 H245        1.2454  -17.1628  -56.9465 H         1 UNK         0.0800 
    246 H246       -1.1978  -14.9100  -54.0188 H         1 UNK         0.0800 
    247 H247       -1.3885  -16.5992  -54.3900 H         1 UNK         0.0800 
@<TRIPOS>BOND
     1    1    2 1    
     2    1  127 1    
     3    1  128 1    
     4    1  129 1    
     5    2    3 2    
     6    2    4 am   BACKBONE|DICT|INTERRES
     7    4    5 1    
     8    4  130 1    
     9    5    6 1    
    10    5   65 1    
    11    5  131 1    
    12    6    7 1    
    13    6  132 1    
    14    6  133 1    
    15    7    8 1    
    16    8    9 1    
    17    8  134 1    
    18    8  135 1    
    19    9   10 ar   
    20    9   14 ar   
    21   10   11 ar   
    22   10  136 1    
    23   11   12 ar   
    24   11  126 1    
    25   12   13 ar   
    26   12  137 1    
    27   13   14 ar   
    28   13   15 1    
    29   14  138 1    
    30   15   16 1    
    31   15  139 1    
    32   15  140 1    
    33   16   17 1    
    34   17   18 1    
    35   17  141 1    
    36   17  142 1    
    37   18   19 1    
    38   18   67 1    
    39   18  143 1    
    40   19   20 am   BACKBONE|DICT|INTERRES
    41   19  144 1    
    42   20   21 2    
    43   20   22 1    
    44   22   23 1    
    45   22   24 1    
    46   22  145 1    
    47   23  146 1    
    48   23  147 1    
    49   23  148 1    
    50   24   25 am   BACKBONE|DICT|INTERRES
    51   24  149 1    
    52   25   26 2    
    53   25   27 1    
    54   27   28 1    
    55   27   29 1    
    56   27  150 1    
    57   28  151 1    
    58   28  152 1    
    59   28  153 1    
    60   29   30 am   BACKBONE|DICT|INTERRES
    61   29  154 1    
    62   30   31 2    
    63   30   32 1    
    64   32   33 1    
    65   32   34 1    
    66   32  155 1    
    67   33  156 1    
    68   33  157 1    
    69   33  158 1    
    70   34   35 am   BACKBONE|DICT|INTERRES
    71   34  159 1    
    72   35   36 2    
    73   35   37 1    
    74   37   38 1    
    75   37   39 1    
    76   37  160 1    
    77   38  161 1    
    78   38  162 1    
    79   38  163 1    
    80   39   40 am   BACKBONE|DICT|INTERRES
    81   39  164 1    
    82   40   41 2    
    83   40   42 1    
    84   42   43 1    
    85   42   44 1    
    86   42  165 1    
    87   43  166 1    
    88   43  167 1    
    89   43  168 1    
    90   44   45 am   BACKBONE|DICT|INTERRES
    91   44  169 1    
    92   45   46 2    
    93   45   47 1    
    94   47   48 1    
    95   47   49 1    
    96   47  170 1    
    97   48  171 1    
    98   48  172 1    
    99   48  173 1    
   100   49   50 am   BACKBONE|DICT|INTERRES
   101   49  174 1    
   102   50   51 2    
   103   50   52 1    
   104   52   53 1    
   105   52   54 1    
   106   52  175 1    
   107   53  176 1    
   108   53  177 1    
   109   53  178 1    
   110   54   55 am   BACKBONE|DICT|INTERRES
   111   54  179 1    
   112   55   56 2    
   113   55   57 1    
   114   57   58 1    
   115   57   59 1    
   116   57  180 1    
   117   58  181 1    
   118   58  182 1    
   119   58  183 1    
   120   59   60 am   BACKBONE|DICT|INTERRES
   121   59  184 1    
   122   60   61 2    
   123   60   62 1    
   124   62   63 1    
   125   62   64 1    
   126   62  185 1    
   127   63  186 1    
   128   63  187 1    
   129   63  188 1    
   130   64   65 am   BACKBONE|DICT|INTERRES
   131   64  189 1    
   132   65   66 2    
   133   67   68 2    
   134   67   69 am   BACKBONE|DICT|INTERRES
   135   69   70 1    
   136   69  190 1    
   137   70   71 1    
   138   70   72 1    
   139   70  191 1    
   140   71  192 1    
   141   71  193 1    
   142   71  194 1    
   143   72   73 2    
   144   72   74 am   BACKBONE|DICT|INTERRES
   145   74   75 1    
   146   74  195 1    
   147   75   76 1    
   148   75   77 1    
   149   75  196 1    
   150   76  197 1    
   151   76  198 1    
   152   76  199 1    
   153   77   78 2    
   154   77   79 am   BACKBONE|DICT|INTERRES
   155   79   80 1    
   156   79  200 1    
   157   80   81 1    
   158   80   82 1    
   159   80  201 1    
   160   81  202 1    
   161   81  203 1    
   162   81  204 1    
   163   82   83 2    
   164   82   84 am   BACKBONE|DICT|INTERRES
   165   84   85 1    
   166   84  205 1    
   167   85   86 1    
   168   85   87 1    
   169   85  206 1    
   170   86  207 1    
   171   86  208 1    
   172   86  209 1    
   173   87   88 2    
   174   87   89 am   BACKBONE|DICT|INTERRES
   175   89   90 1    
   176   89  210 1    
   177   90   91 1    
   178   90   92 1    
   179   90  211 1    
   180   91  212 1    
   181   91  213 1    
   182   91  214 1    
   183   92   93 2    
   184   92   94 am   BACKBONE|DICT|INTERRES
   185   94   95 1    
   186   94  215 1    
   187   95   96 1    
   188   95   97 1    
   189   95  216 1    
   190   96  217 1    
   191   96  218 1    
   192   96  219 1    
   193   97   98 2    
   194   97   99 am   BACKBONE|DICT|INTERRES
   195   99  100 1    
   196   99  220 1    
   197  100  101 1    
   198  100  102 1    
   199  100  221 1    
   200  101  222 1    
   201  101  223 1    
   202  101  224 1    
   203  102  103 2    
   204  102  104 am   BACKBONE|DICT|INTERRES
   205  104  105 1    
   206  104  225 1    
   207  105  106 1    
   208  105  107 1    
   209  105  226 1    
   210  106  227 1    
   211  106  228 1    
   212  106  229 1    
   213  107  108 2    
   214  107  109 am   BACKBONE|DICT|INTERRES
   215  109  110 1    
   216  109  230 1    
   217  110  111 1    
   218  110  112 1    
   219  110  231 1    
   220  111  232 1    
   221  111  233 1    
   222  111  234 1    
   223  112  113 2    
   224  112  114 am   BACKBONE|DICT|INTERRES
   225  114  115 1    
   226  114  235 1    
   227  115  116 1    
   228  115  117 1    
   229  115  236 1    
   230  116  237 1    
   231  116  238 1    
   232  116  239 1    
   233  117  118 2    
   234  117  119 am   BACKBONE|DICT|INTERRES
   235  119  120 1    
   236  119  240 1    
   237  120  121 1    
   238  120  124 1    
   239  120  241 1    
   240  121  122 am   BACKBONE|DICT|INTERRES
   241  121  123 2    
   242  122  242 1    
   243  122  243 1    
   244  124  125 1    
   245  124  244 1    
   246  124  245 1    
   247  125  126 1    
   248  126  246 1    
   249  126  247 1    
@<TRIPOS>SUBSTRUCTURE
     1 UNK         1 GROUP             0       ****    0 ROOT    
