@<TRIPOS>MOLECULE
3R540
247   249    1
SMALL
USER_CHARGES


@<TRIPOS>ATOM
      1 CA          0.8620  -14.9452  -48.7435 C.3       0 UNK        -0.1800 
      2 C          -0.0253  -14.5620  -47.5715 C.2       0 UNK         0.5000 
      3 O           0.4815  -14.2709  -46.4909 O.2       0 UNK        -0.5000 
      4 N          -1.3472  -14.5237  -47.7832 N.am      1 UNK        -0.5000 
      5 CA         -2.3506  -14.1680  -46.7685 C.3       1 UNK         0.1400 
      6 C6         -3.7959  -14.4715  -47.2360 C.3       23 UNK        -0.0398 
      7 S7         -4.3056  -13.5745  -48.7470 S.3       23 UNK        -0.2404 
      8 C8         -4.5318  -14.9291  -49.9421 C.3       23 UNK        -0.0205 
      9 C9         -3.2066  -15.5277  -50.3849 C.ar      23 UNK        -0.0193 
     10 C10        -2.4080  -14.8465  -51.3076 C.ar      23 UNK        -0.1150 
     11 C11        -1.2013  -15.3977  -51.7444 C.ar      23 UNK        -0.0193 
     12 C12        -0.7957  -16.6409  -51.2509 C.ar      23 UNK        -0.1150 
     13 C13        -1.5788  -17.3264  -50.3180 C.ar      23 UNK        -0.0193 
     14 C14        -2.7834  -16.7635  -49.8867 C.ar      23 UNK        -0.1150 
     15 C15        -1.1155  -18.6674  -49.7715 C.3       23 UNK        -0.0205 
     16 S16        -2.1734  -20.0252  -50.3621 S.3       23 UNK        -0.2404 
     17 C17        -3.1165  -20.4484  -48.8607 C.3       23 UNK        -0.0398 
     18 CA         -2.6084  -21.7648  -48.2232 C.3       11 UNK         0.1400 
     19 N          -1.2825  -21.6353  -47.6246 N.am      11 UNK        -0.5000 
     20 C          -0.4520  -22.6681  -47.4351 C.2       10 UNK         0.5000 
     21 O          -0.6826  -23.8118  -47.8231 O.2       10 UNK        -0.5000 
     22 CA          0.8085  -22.3922  -46.5967 C.3       10 UNK         0.1400 
     23 CB          1.8825  -21.6890  -47.4390 C.3       10 UNK        -0.1800 
     24 N           0.5067  -21.6063  -45.3995 N.am      10 UNK        -0.5000 
     25 C          -0.3728  -21.9774  -44.4570 C.2       9 UNK         0.5000 
     26 O          -0.9630  -23.0591  -44.4637 O.2       9 UNK        -0.5000 
     27 CA         -0.6898  -20.9679  -43.3419 C.3       9 UNK         0.1400 
     28 CB          0.1457  -21.2824  -42.0932 C.3       9 UNK        -0.1800 
     29 N          -0.5000  -19.5661  -43.7250 N.am      9 UNK        -0.5000 
     30 C          -1.1587  -18.9213  -44.7009 C.2       8 UNK         0.5000 
     31 O          -2.0012  -19.4492  -45.4286 O.2       8 UNK        -0.5000 
     32 CA         -0.7677  -17.4511  -44.9362 C.3       8 UNK         0.1400 
     33 CB         -1.3271  -16.5444  -43.8291 C.3       8 UNK        -0.1800 
     34 N           0.6812  -17.2842  -45.0193 N.am      8 UNK        -0.5000 
     35 C           1.4467  -17.7905  -45.9955 C.2       7 UNK         0.5000 
     36 O           0.9994  -18.3832  -46.9762 O.2       7 UNK        -0.5000 
     37 CA          2.9688  -17.6571  -45.8213 C.3       7 UNK         0.1400 
     38 CB          3.4772  -16.3150  -46.3691 C.3       7 UNK        -0.1800 
     39 N           3.3646  -17.8006  -44.4200 N.am      7 UNK        -0.5000 
     40 C           3.3838  -18.9668  -43.7587 C.2       6 UNK         0.5000 
     41 O           3.1113  -20.0498  -44.2770 O.2       6 UNK        -0.5000 
     42 CA          3.7437  -18.9116  -42.2612 C.3       6 UNK         0.1400 
     43 CB          5.2662  -18.9797  -42.0704 C.3       6 UNK        -0.1800 
     44 N           3.2279  -17.7159  -41.5919 N.am      6 UNK        -0.5000 
     45 C           1.9274  -17.4636  -41.3874 C.2       5 UNK         0.5000 
     46 O           1.0253  -18.2327  -41.7120 O.2       5 UNK        -0.5000 
     47 CA          1.5688  -16.0997  -40.7675 C.3       5 UNK         0.1400 
     48 CB          1.5721  -16.1869  -39.2343 C.3       5 UNK        -0.1800 
     49 N           2.4499  -15.0086  -41.1955 N.am      5 UNK        -0.5000 
     50 C           2.6275  -14.6267  -42.4670 C.2       4 UNK         0.5000 
     51 O           2.0944  -15.1876  -43.4266 O.2       4 UNK        -0.5000 
     52 CA          3.6279  -13.4798  -42.6980 C.3       4 UNK         0.1400 
     53 CB          5.0623  -14.0320  -42.7216 C.3       4 UNK        -0.1800 
     54 N           3.3869  -12.7659  -43.9513 N.am      4 UNK        -0.5000 
     55 C           2.3166  -12.0072  -44.2207 C.2       3 UNK         0.5000 
     56 O           1.4240  -11.7773  -43.4006 O.2       3 UNK        -0.5000 
     57 CA          2.2580  -11.3605  -45.6203 C.3       3 UNK         0.1400 
     58 CB          3.1437  -12.0646  -46.6698 C.3       3 UNK        -0.1800 
     59 N           0.8815  -11.3409  -46.1087 N.am      3 UNK        -0.5000 
     60 C           0.0750  -10.2707  -46.1184 C.2       2 UNK         0.5000 
     61 O           0.4158   -9.1600  -45.7074 O.2       2 UNK        -0.5000 
     62 CA         -1.3402  -10.4415  -46.7116 C.3       2 UNK         0.1400 
     63 CB         -1.5014   -9.5858  -47.9790 C.3       2 UNK        -0.1800 
     64 N          -1.6513  -11.8283  -47.0560 N.am      2 UNK        -0.5000 
     65 C          -2.2080  -12.7244  -46.2310 C.2       1 UNK         0.5000 
     66 O          -2.5814  -12.4622  -45.0872 O.2       1 UNK        -0.5000 
     67 C          -3.6087  -22.2967  -47.1833 C.2       11 UNK         0.5000 
     68 O          -4.2472  -23.3188  -47.4294 O.2       11 UNK        -0.5000 
     69 N          -3.7485  -21.5838  -46.0586 N.am      12 UNK        -0.5000 
     70 CA         -4.8575  -21.7428  -45.1165 C.3       12 UNK         0.1400 
     71 CB         -4.8488  -20.5698  -44.1242 C.3       12 UNK        -0.1800 
     72 C          -4.9053  -23.0855  -44.3654 C.2       12 UNK         0.5000 
     73 O          -6.0014  -23.5161  -44.0034 O.2       12 UNK        -0.5000 
     74 N          -3.7454  -23.7114  -44.1306 N.am      13 UNK        -0.5000 
     75 CA         -3.6274  -24.9500  -43.3640 C.3       13 UNK         0.1400 
     76 CB         -2.8132  -24.6881  -42.0851 C.3       13 UNK        -0.1800 
     77 C          -3.0016  -26.0791  -44.1932 C.2       13 UNK         0.5000 
     78 O          -3.5580  -27.1775  -44.2146 O.2       13 UNK        -0.5000 
     79 N          -1.8515  -25.8158  -44.8311 N.am      14 UNK        -0.5000 
     80 CA         -1.0476  -26.8502  -45.4867 C.3       14 UNK         0.1400 
     81 CB          0.4008  -26.3702  -45.6650 C.3       14 UNK        -0.1800 
     82 C          -1.6594  -27.3461  -46.8092 C.2       14 UNK         0.5000 
     83 O          -1.9511  -28.5372  -46.9284 O.2       14 UNK        -0.5000 
     84 N          -1.8406  -26.4396  -47.7793 N.am      15 UNK        -0.5000 
     85 CA         -2.3712  -26.7699  -49.1060 C.3       15 UNK         0.1400 
     86 CB         -1.9629  -25.6791  -50.1065 C.3       15 UNK        -0.1800 
     87 C          -3.8984  -26.9580  -49.1297 C.2       15 UNK         0.5000 
     88 O          -4.3975  -27.6370  -50.0275 O.2       15 UNK        -0.5000 
     89 N          -4.5999  -26.3473  -48.1616 N.am      16 UNK        -0.5000 
     90 CA         -6.0585  -26.2082  -48.0816 C.3       16 UNK         0.1400 
     91 CB         -6.7564  -27.5767  -47.9328 C.3       16 UNK        -0.1800 
     92 C          -6.5870  -25.3606  -49.2580 C.2       16 UNK         0.5000 
     93 O          -7.4076  -25.8242  -50.0523 O.2       16 UNK        -0.5000 
     94 N          -6.0612  -24.1302  -49.3200 N.am      17 UNK        -0.5000 
     95 CA         -6.1845  -23.0920  -50.3441 C.3       17 UNK         0.1400 
     96 CB         -7.6506  -22.8261  -50.7395 C.3       17 UNK        -0.1800 
     97 C          -5.2987  -23.3580  -51.5758 C.2       17 UNK         0.5000 
     98 O          -5.0191  -24.5081  -51.9171 O.2       17 UNK        -0.5000 
     99 N          -4.9003  -22.2587  -52.2313 N.am      18 UNK        -0.5000 
    100 CA        -4.1889  -22.1952  -53.5117 C.3       18 UNK         0.1400 
    101 CB        -5.1117  -22.6575  -54.6591 C.3       18 UNK        -0.1800 
    102 C         -2.8164  -22.9036  -53.5196 C.2       18 UNK         0.5000 
    103 O         -2.5276  -23.6822  -54.4309 O.2       18 UNK        -0.5000 
    104 N         -1.9689  -22.5890  -52.5272 N.am      19 UNK        -0.5000 
    105 CA        -0.5439  -22.9544  -52.5349 C.3       19 UNK         0.1400 
    106 CB         0.0637  -22.7291  -51.1429 C.3       19 UNK        -0.1800 
    107 C          0.2465  -22.1525  -53.5895 C.2       19 UNK         0.5000 
    108 O          1.2296  -22.6530  -54.1367 O.2       19 UNK        -0.5000 
    109 N         -0.2289  -20.9345  -53.8653 N.am      20 UNK        -0.5000 
    110 CA         0.1587  -20.0727  -54.9714 C.3       20 UNK         0.1400 
    111 CB         0.9277  -18.8649  -54.4145 C.3       20 UNK        -0.1800 
    112 C         -1.1336  -19.6234  -55.6708 C.2       20 UNK         0.5000 
    113 O         -2.2090  -19.6869  -55.0661 O.2       20 UNK        -0.5000 
    114 N         -1.0131  -19.1505  -56.9182 N.am      21 UNK        -0.5000 
    115 CA        -2.1319  -18.7151  -57.7673 C.3       21 UNK         0.1400 
    116 CB        -1.5891  -18.3441  -59.1560 C.3       21 UNK        -0.1800 
    117 C         -2.9653  -17.5528  -57.1860 C.2       21 UNK         0.5000 
    118 O         -4.1464  -17.4273  -57.5116 O.2       21 UNK        -0.5000 
    119 N         -2.3389  -16.7438  -56.3255 N.am      22 UNK        -0.5000 
    120 CA        -2.9728  -15.7034  -55.5045 C.3       22 UNK         0.1400 
    121 C         -3.8335  -16.2326  -54.3182 C.2       22 UNK         0.5000 
    122 N         -3.7728  -17.5079  -53.9523 N.am      22 UNK        -0.7600 
    123 O         -4.6001  -15.4691  -53.7375 O.2       22 UNK        -0.5000 
    124 C124       -1.9426  -14.6326  -55.0520 C.3       23 UNK        -0.0398 
    125 S125       -0.3769  -15.3202  -54.3967 S.3       23 UNK        -0.2404 
    126 C126       -0.3114  -14.6359  -52.7134 C.3       23 UNK        -0.0205 
    127 H127        1.8710  -14.5587  -48.6021 H         1 UNK         0.0600 
    128 H128        0.4771  -14.5304  -49.6735 H         1 UNK         0.0600 
    129 H129        0.9188  -16.0299  -48.8353 H         1 UNK         0.0600 
    130 H130       -1.7147  -14.7643  -48.6947 H         1 UNK         0.3000 
    131 H131       -2.1610  -14.8167  -45.9137 H         1 UNK         0.0600 
    132 H132       -3.9042  -15.5444  -47.3966 H         1 UNK         0.0800 
    133 H133       -4.5067  -14.2305  -46.4436 H         1 UNK         0.0800 
    134 H134       -5.1831  -15.6935  -49.5154 H         1 UNK         0.0800 
    135 H135       -5.0554  -14.5419  -50.8177 H         1 UNK         0.0800 
    136 H136       -2.7325  -13.8883  -51.6882 H         1 UNK         0.1150 
    137 H137        0.1402  -17.0657  -51.5850 H         1 UNK         0.1150 
    138 H138       -3.3949  -17.2954  -49.1719 H         1 UNK         0.1150 
    139 H139       -0.0896  -18.8724  -50.0810 H         1 UNK         0.0800 
    140 H140       -1.0941  -18.6304  -48.6819 H         1 UNK         0.0800 
    141 H141       -4.1606  -20.5432  -49.1620 H         1 UNK         0.0800 
    142 H142       -3.0885  -19.6259  -48.1442 H         1 UNK         0.0800 
    143 H143       -2.5598  -22.5096  -49.0198 H         1 UNK         0.0600 
    144 H144       -1.0479  -20.7404  -47.2171 H         1 UNK         0.3000 
    145 H145        1.2146  -23.3479  -46.2632 H         1 UNK         0.0600 
    146 H146        2.7679  -21.4616  -46.8450 H         1 UNK         0.0600 
    147 H147        2.1986  -22.3236  -48.2679 H         1 UNK         0.0600 
    148 H148        1.5161  -20.7571  -47.8685 H         1 UNK         0.0600 
    149 H149        0.9773  -20.7170  -45.3012 H         1 UNK         0.3000 
    150 H150       -1.7406  -21.0987  -43.0816 H         1 UNK         0.0600 
    151 H151        0.0162  -22.3208  -41.7849 H         1 UNK         0.0600 
    152 H152       -0.1521  -20.6570  -41.2517 H         1 UNK         0.0600 
    153 H153        1.2092  -21.1222  -42.2728 H         1 UNK         0.0600 
    154 H154        0.1530  -19.0377  -43.1506 H         1 UNK         0.3000 
    155 H155       -1.1964  -17.1353  -45.8895 H         1 UNK         0.0600 
    156 H156       -1.0008  -16.8614  -42.8389 H         1 UNK         0.0600 
    157 H157       -2.4176  -16.5550  -43.8328 H         1 UNK         0.0600 
    158 H158       -1.0065  -15.5109  -43.9643 H         1 UNK         0.0600 
    159 H159        1.1279  -16.7333  -44.2932 H         1 UNK         0.3000 
    160 H160        3.4422  -18.4559  -46.3965 H         1 UNK         0.0600 
    161 H161        2.9944  -15.4680  -45.8819 H         1 UNK         0.0600 
    162 H162        3.2765  -16.2350  -47.4375 H         1 UNK         0.0600 
    163 H163        4.5537  -16.2129  -46.2327 H         1 UNK         0.0600 
    164 H164        3.5195  -16.9449  -43.9065 H         1 UNK         0.3000 
    165 H165        3.3009  -19.7866  -41.7809 H         1 UNK         0.0600 
    166 H166        5.5298  -19.0215  -41.0135 H         1 UNK         0.0600 
    167 H167        5.6789  -19.8722  -42.5426 H         1 UNK         0.0600 
    168 H168        5.7670  -18.1151  -42.5082 H         1 UNK         0.0600 
    169 H169        3.9045  -17.0290  -41.2943 H         1 UNK         0.3000 
    170 H170        0.5567  -15.8499  -41.0923 H         1 UNK         0.0600 
    171 H171        0.9077  -16.9795  -38.8872 H         1 UNK         0.0600 
    172 H172        2.5683  -16.3994  -38.8445 H         1 UNK         0.0600 
    173 H173        1.2263  -15.2557  -38.7851 H         1 UNK         0.0600 
    174 H174        2.9369  -14.5128  -40.4628 H         1 UNK         0.3000 
    175 H175        3.5356  -12.7663  -41.8766 H         1 UNK         0.0600 
    176 H176        5.2053  -14.7467  -43.5334 H         1 UNK         0.0600 
    177 H177        5.7912  -13.2311  -42.8481 H         1 UNK         0.0600 
    178 H178        5.3048  -14.5424  -41.7887 H         1 UNK         0.0600 
    179 H179        4.0568  -12.9230  -44.6889 H         1 UNK         0.3000 
    180 H180        2.6312  -10.3407  -45.5092 H         1 UNK         0.0600 
    181 H181        2.9116  -13.1265  -46.7514 H         1 UNK         0.0600 
    182 H182        4.2024  -11.9705  -46.4264 H         1 UNK         0.0600 
    183 H183        3.0071  -11.6212  -47.6564 H         1 UNK         0.0600 
    184 H184        0.5030  -12.2467  -46.3639 H         1 UNK         0.3000 
    185 H185       -2.0524  -10.0813  -45.9664 H         1 UNK         0.0600 
    186 H186       -1.3269   -8.5304  -47.7656 H         1 UNK         0.0600 
    187 H187       -0.7988   -9.8840  -48.7581 H         1 UNK         0.0600 
    188 H188       -2.5095   -9.6701  -48.3857 H         1 UNK         0.0600 
    189 H189       -1.3815  -12.1365  -47.9788 H         1 UNK         0.3000 
    190 H190       -3.1390  -20.7834  -45.8990 H         1 UNK         0.3000 
    191 H191       -5.7805  -21.6752  -45.6964 H         1 UNK         0.0600 
    192 H192       -4.9073  -19.6129  -44.6433 H         1 UNK         0.0600 
    193 H193       -5.7016  -20.6237  -43.4464 H         1 UNK         0.0600 
    194 H194       -3.9465  -20.5637  -43.5142 H         1 UNK         0.0600 
    195 H195       -2.8788  -23.3102  -44.4744 H         1 UNK         0.3000 
    196 H196       -4.6117  -25.3037  -43.0503 H         1 UNK         0.0600 
    197 H197       -2.7288  -25.5949  -41.4851 H         1 UNK         0.0600 
    198 H198       -3.2923  -23.9312  -41.4639 H         1 UNK         0.0600 
    199 H199       -1.8017  -24.3467  -42.3045 H         1 UNK         0.0600 
    200 H200       -1.4513  -24.8837  -44.7697 H         1 UNK         0.3000 
    201 H201       -1.0074  -27.7088  -44.8122 H         1 UNK         0.0600 
    202 H202        0.8332  -26.0561  -44.7149 H         1 UNK         0.0600 
    203 H203        0.4731  -25.5355  -46.3570 H         1 UNK         0.0600 
    204 H204        1.0272  -27.1711  -46.0592 H         1 UNK         0.0600 
    205 H205       -1.5280  -25.4810  -47.6393 H         1 UNK         0.3000 
    206 H206       -1.9197  -27.7079  -49.4365 H         1 UNK         0.0600 
    207 H207       -0.8798  -25.5632  -50.1417 H         1 UNK         0.0600 
    208 H208       -2.2973  -25.9247  -51.1154 H         1 UNK         0.0600 
    209 H209       -2.4020  -24.7160  -49.8471 H         1 UNK         0.0600 
    210 H210       -4.0753  -25.7926  -47.4988 H         1 UNK         0.3000 
    211 H211       -6.2617  -25.6411  -47.1714 H         1 UNK         0.0600 
    212 H212       -6.6541  -28.1926  -48.8262 H         1 UNK         0.0600 
    213 H213       -7.8236  -27.4467  -47.7507 H         1 UNK         0.0600 
    214 H214       -6.3482  -28.1362  -47.0910 H         1 UNK         0.0600 
    215 H215       -5.3826  -23.9024  -48.5932 H         1 UNK         0.3000 
    216 H216       -5.8094  -22.1868  -49.8657 H         1 UNK         0.0600 
    217 H217       -7.7303  -21.9283  -51.3533 H         1 UNK         0.0600 
    218 H218       -8.2776  -22.6751  -49.8608 H         1 UNK         0.0600 
    219 H219       -8.0727  -23.6473  -51.3193 H         1 UNK         0.0600 
    220 H220       -5.1725  -21.3605  -51.8575 H         1 UNK         0.3000 
    221 H221       -3.9772  -21.1387  -53.6802 H         1 UNK         0.0600 
    222 H222       -5.3536  -23.7181  -54.5821 H         1 UNK         0.0600 
    223 H223       -6.0478  -22.0992  -54.6614 H         1 UNK         0.0600 
    224 H224       -4.6390  -22.4977  -55.6290 H         1 UNK         0.0600 
    225 H225       -2.2698  -21.9444  -51.8087 H         1 UNK         0.3000 
    226 H226       -0.4619  -24.0163  -52.7761 H         1 UNK         0.0600 
    227 H227       -0.5445  -23.1910  -50.3701 H         1 UNK         0.0600 
    228 H228        1.0601  -23.1676  -51.0795 H         1 UNK         0.0600 
    229 H229        0.1613  -21.6703  -50.9033 H         1 UNK         0.0600 
    230 H230       -1.0829  -20.6451  -53.4076 H         1 UNK         0.3000 
    231 H231        0.7790  -20.6150  -55.6879 H         1 UNK         0.0600 
    232 H232        0.3184  -18.2913  -53.7151 H         1 UNK         0.0600 
    233 H233        1.2361  -18.1897  -55.2134 H         1 UNK         0.0600 
    234 H234        1.8290  -19.1811  -53.8893 H         1 UNK         0.0600 
    235 H235       -0.0958  -19.1137  -57.3391 H         1 UNK         0.3000 
    236 H236       -2.8061  -19.5665  -57.8809 H         1 UNK         0.0600 
    237 H237       -1.0844  -19.1903  -59.6225 H         1 UNK         0.0600 
    238 H238       -2.3968  -18.0417  -59.8240 H         1 UNK         0.0600 
    239 H239       -0.8806  -17.5165  -59.1022 H         1 UNK         0.0600 
    240 H240       -1.3692  -16.9264  -56.1129 H         1 UNK         0.3000 
    241 H241       -3.6862  -15.1885  -56.1509 H         1 UNK         0.0600 
    242 H242       -4.3358  -17.8158  -53.1778 H         1 UNK         0.3800 
    243 H243       -3.1680  -18.1709  -54.4269 H         1 UNK         0.3800 
    244 H244       -1.6782  -14.0170  -55.9126 H         1 UNK         0.0800 
    245 H245       -2.3838  -13.9408  -54.3326 H         1 UNK         0.0800 
    246 H246       -0.5698  -13.5760  -52.7336 H         1 UNK         0.0800 
    247 H247        0.7195  -14.6865  -52.3601 H         1 UNK         0.0800 
@<TRIPOS>BOND
     1    1    2 1    
     2    1  127 1    
     3    1  128 1    
     4    1  129 1    
     5    2    3 2    
     6    2    4 am   BACKBONE|DICT|INTERRES
     7    4    5 1    
     8    4  130 1    
     9    5    6 1    
    10    5   65 1    
    11    5  131 1    
    12    6    7 1    
    13    6  132 1    
    14    6  133 1    
    15    7    8 1    
    16    8    9 1    
    17    8  134 1    
    18    8  135 1    
    19    9   10 ar   
    20    9   14 ar   
    21   10   11 ar   
    22   10  136 1    
    23   11   12 ar   
    24   11  126 1    
    25   12   13 ar   
    26   12  137 1    
    27   13   14 ar   
    28   13   15 1    
    29   14  138 1    
    30   15   16 1    
    31   15  139 1    
    32   15  140 1    
    33   16   17 1    
    34   17   18 1    
    35   17  141 1    
    36   17  142 1    
    37   18   19 1    
    38   18   67 1    
    39   18  143 1    
    40   19   20 am   BACKBONE|DICT|INTERRES
    41   19  144 1    
    42   20   21 2    
    43   20   22 1    
    44   22   23 1    
    45   22   24 1    
    46   22  145 1    
    47   23  146 1    
    48   23  147 1    
    49   23  148 1    
    50   24   25 am   BACKBONE|DICT|INTERRES
    51   24  149 1    
    52   25   26 2    
    53   25   27 1    
    54   27   28 1    
    55   27   29 1    
    56   27  150 1    
    57   28  151 1    
    58   28  152 1    
    59   28  153 1    
    60   29   30 am   BACKBONE|DICT|INTERRES
    61   29  154 1    
    62   30   31 2    
    63   30   32 1    
    64   32   33 1    
    65   32   34 1    
    66   32  155 1    
    67   33  156 1    
    68   33  157 1    
    69   33  158 1    
    70   34   35 am   BACKBONE|DICT|INTERRES
    71   34  159 1    
    72   35   36 2    
    73   35   37 1    
    74   37   38 1    
    75   37   39 1    
    76   37  160 1    
    77   38  161 1    
    78   38  162 1    
    79   38  163 1    
    80   39   40 am   BACKBONE|DICT|INTERRES
    81   39  164 1    
    82   40   41 2    
    83   40   42 1    
    84   42   43 1    
    85   42   44 1    
    86   42  165 1    
    87   43  166 1    
    88   43  167 1    
    89   43  168 1    
    90   44   45 am   BACKBONE|DICT|INTERRES
    91   44  169 1    
    92   45   46 2    
    93   45   47 1    
    94   47   48 1    
    95   47   49 1    
    96   47  170 1    
    97   48  171 1    
    98   48  172 1    
    99   48  173 1    
   100   49   50 am   BACKBONE|DICT|INTERRES
   101   49  174 1    
   102   50   51 2    
   103   50   52 1    
   104   52   53 1    
   105   52   54 1    
   106   52  175 1    
   107   53  176 1    
   108   53  177 1    
   109   53  178 1    
   110   54   55 am   BACKBONE|DICT|INTERRES
   111   54  179 1    
   112   55   56 2    
   113   55   57 1    
   114   57   58 1    
   115   57   59 1    
   116   57  180 1    
   117   58  181 1    
   118   58  182 1    
   119   58  183 1    
   120   59   60 am   BACKBONE|DICT|INTERRES
   121   59  184 1    
   122   60   61 2    
   123   60   62 1    
   124   62   63 1    
   125   62   64 1    
   126   62  185 1    
   127   63  186 1    
   128   63  187 1    
   129   63  188 1    
   130   64   65 am   BACKBONE|DICT|INTERRES
   131   64  189 1    
   132   65   66 2    
   133   67   68 2    
   134   67   69 am   BACKBONE|DICT|INTERRES
   135   69   70 1    
   136   69  190 1    
   137   70   71 1    
   138   70   72 1    
   139   70  191 1    
   140   71  192 1    
   141   71  193 1    
   142   71  194 1    
   143   72   73 2    
   144   72   74 am   BACKBONE|DICT|INTERRES
   145   74   75 1    
   146   74  195 1    
   147   75   76 1    
   148   75   77 1    
   149   75  196 1    
   150   76  197 1    
   151   76  198 1    
   152   76  199 1    
   153   77   78 2    
   154   77   79 am   BACKBONE|DICT|INTERRES
   155   79   80 1    
   156   79  200 1    
   157   80   81 1    
   158   80   82 1    
   159   80  201 1    
   160   81  202 1    
   161   81  203 1    
   162   81  204 1    
   163   82   83 2    
   164   82   84 am   BACKBONE|DICT|INTERRES
   165   84   85 1    
   166   84  205 1    
   167   85   86 1    
   168   85   87 1    
   169   85  206 1    
   170   86  207 1    
   171   86  208 1    
   172   86  209 1    
   173   87   88 2    
   174   87   89 am   BACKBONE|DICT|INTERRES
   175   89   90 1    
   176   89  210 1    
   177   90   91 1    
   178   90   92 1    
   179   90  211 1    
   180   91  212 1    
   181   91  213 1    
   182   91  214 1    
   183   92   93 2    
   184   92   94 am   BACKBONE|DICT|INTERRES
   185   94   95 1    
   186   94  215 1    
   187   95   96 1    
   188   95   97 1    
   189   95  216 1    
   190   96  217 1    
   191   96  218 1    
   192   96  219 1    
   193   97   98 2    
   194   97   99 am   BACKBONE|DICT|INTERRES
   195   99  100 1    
   196   99  220 1    
   197  100  101 1    
   198  100  102 1    
   199  100  221 1    
   200  101  222 1    
   201  101  223 1    
   202  101  224 1    
   203  102  103 2    
   204  102  104 am   BACKBONE|DICT|INTERRES
   205  104  105 1    
   206  104  225 1    
   207  105  106 1    
   208  105  107 1    
   209  105  226 1    
   210  106  227 1    
   211  106  228 1    
   212  106  229 1    
   213  107  108 2    
   214  107  109 am   BACKBONE|DICT|INTERRES
   215  109  110 1    
   216  109  230 1    
   217  110  111 1    
   218  110  112 1    
   219  110  231 1    
   220  111  232 1    
   221  111  233 1    
   222  111  234 1    
   223  112  113 2    
   224  112  114 am   BACKBONE|DICT|INTERRES
   225  114  115 1    
   226  114  235 1    
   227  115  116 1    
   228  115  117 1    
   229  115  236 1    
   230  116  237 1    
   231  116  238 1    
   232  116  239 1    
   233  117  118 2    
   234  117  119 am   BACKBONE|DICT|INTERRES
   235  119  120 1    
   236  119  240 1    
   237  120  121 1    
   238  120  124 1    
   239  120  241 1    
   240  121  122 am   BACKBONE|DICT|INTERRES
   241  121  123 2    
   242  122  242 1    
   243  122  243 1    
   244  124  125 1    
   245  124  244 1    
   246  124  245 1    
   247  125  126 1    
   248  126  246 1    
   249  126  247 1    
@<TRIPOS>SUBSTRUCTURE
     1 UNK         1 GROUP             0       ****    0 ROOT    
