@<TRIPOS>MOLECULE
3R540
247   249    1
SMALL
USER_CHARGES


@<TRIPOS>ATOM
      1 CA          0.4505  -10.9541  -52.4186 C.3       0 UNK        -0.1800 
      2 C           0.8949  -10.7797  -50.9730 C.2       0 UNK         0.5000 
      3 O           0.8868   -9.6608  -50.4584 O.2       0 UNK        -0.5000 
      4 N           1.2918  -11.8778  -50.3222 N.am      1 UNK        -0.5000 
      5 CA          1.6701  -11.9346  -48.9070 C.3       1 UNK         0.1400 
      6 C6          2.4921  -13.2095  -48.5776 C.3       23 UNK        -0.0398 
      7 S7          1.7285  -14.7542  -49.1852 S.3       23 UNK        -0.2404 
      8 C8          3.1871  -15.7875  -49.5092 C.3       23 UNK        -0.0205 
      9 C9          2.7997  -16.9566  -50.3952 C.ar      23 UNK        -0.0193 
     10 C10         2.8628  -16.8273  -51.7833 C.ar      23 UNK        -0.1150 
     11 C11         2.4246  -17.8599  -52.6202 C.ar      23 UNK        -0.0193 
     12 C12         1.9631  -19.0495  -52.0452 C.ar      23 UNK        -0.1150 
     13 C13         1.9205  -19.2014  -50.6536 C.ar      23 UNK        -0.0193 
     14 C14         2.3387  -18.1491  -49.8368 C.ar      23 UNK        -0.1150 
     15 C15         1.4591  -20.5110  -50.0320 C.3       23 UNK        -0.0205 
     16 S16        -0.1580  -20.3745  -49.1937 S.3       23 UNK        -0.2404 
     17 C17        -0.5904  -22.1431  -49.0930 C.3       23 UNK        -0.0398 
     18 CA         -1.0327  -22.7115  -47.7205 C.3       11 UNK         0.1400 
     19 N          -0.1223  -22.4553  -46.5942 N.am      11 UNK        -0.5000 
     20 C          -0.0925  -23.2514  -45.5105 C.2       10 UNK         0.5000 
     21 O          -0.8106  -24.2438  -45.3827 O.2       10 UNK        -0.5000 
     22 CA          0.8519  -22.8788  -44.3554 C.3       10 UNK         0.1400 
     23 CB          2.3201  -23.1456  -44.7201 C.3       10 UNK        -0.1800 
     24 N           0.6749  -21.5029  -43.8971 N.am      10 UNK        -0.5000 
     25 C          -0.4522  -21.0275  -43.3462 C.2       9 UNK         0.5000 
     26 O          -1.4575  -21.7085  -43.1498 O.2       9 UNK        -0.5000 
     27 CA         -0.4847  -19.5294  -42.9953 C.3       9 UNK         0.1400 
     28 CB          0.1686  -19.2700  -41.6301 C.3       9 UNK        -0.1800 
     29 N           0.1626  -18.7040  -44.0100 N.am      9 UNK        -0.5000 
     30 C          -0.2199  -18.6249  -45.2919 C.2       8 UNK         0.5000 
     31 O          -1.2043  -19.1982  -45.7557 O.2       8 UNK        -0.5000 
     32 CA          0.6934  -17.8110  -46.2182 C.3       8 UNK         0.1400 
     33 CB          0.4530  -16.3086  -46.0235 C.3       8 UNK        -0.1800 
     34 N           2.1057  -18.1191  -45.9893 N.am      8 UNK        -0.5000 
     35 C           2.6719  -19.3112  -46.2288 C.2       7 UNK         0.5000 
     36 O           2.0672  -20.2828  -46.6800 O.2       7 UNK        -0.5000 
     37 CA          4.1634  -19.4427  -45.8790 C.3       7 UNK         0.1400 
     38 CB          5.0341  -18.8215  -46.9821 C.3       7 UNK        -0.1800 
     39 N           4.4865  -18.8256  -44.5924 N.am      7 UNK        -0.5000 
     40 C           4.0440  -19.2770  -43.4103 C.2       6 UNK         0.5000 
     41 O           3.3531  -20.2866  -43.2778 O.2       6 UNK        -0.5000 
     42 CA          4.3957  -18.4309  -42.1732 C.3       6 UNK         0.1400 
     43 CB          5.7880  -18.8023  -41.6411 C.3       6 UNK        -0.1800 
     44 N           4.3347  -16.9855  -42.4137 N.am      6 UNK        -0.5000 
     45 C           3.2287  -16.3242  -42.7795 C.2       5 UNK         0.5000 
     46 O           2.1559  -16.8755  -43.0319 O.2       5 UNK        -0.5000 
     47 CA          3.3516  -14.7974  -42.9231 C.3       5 UNK         0.1400 
     48 CB          3.6199  -14.4160  -44.3875 C.3       5 UNK        -0.1800 
     49 N           2.1366  -14.1266  -42.4595 N.am      5 UNK        -0.5000 
     50 C           1.7627  -14.0567  -41.1717 C.2       4 UNK         0.5000 
     51 O           2.4574  -14.4731  -40.2429 O.2       4 UNK        -0.5000 
     52 CA          0.4026  -13.4048  -40.8447 C.3       4 UNK         0.1400 
     53 CB          0.6062  -11.9758  -40.3170 C.3       4 UNK        -0.1800 
     54 N          -0.5128  -13.3544  -41.9826 N.am      4 UNK        -0.5000 
     55 C          -1.1369  -14.4087  -42.5244 C.2       3 UNK         0.5000 
     56 O          -1.0916  -15.5446  -42.0530 O.2       3 UNK        -0.5000 
     57 CA         -1.9459  -14.1540  -43.8151 C.3       3 UNK         0.1400 
     58 CB         -3.4533  -14.1920  -43.5199 C.3       3 UNK        -0.1800 
     59 N          -1.6307  -12.8952  -44.5059 N.am      3 UNK        -0.5000 
     60 C          -0.4381  -12.5696  -45.0222 C.2       2 UNK         0.5000 
     61 O           0.5699  -13.2696  -44.9098 O.2       2 UNK        -0.5000 
     62 CA         -0.3361  -11.2002  -45.7144 C.3       2 UNK         0.1400 
     63 CB          0.0787  -10.1235  -44.6994 C.3       2 UNK        -0.1800 
     64 N           0.6536  -11.2444  -46.7891 N.am      2 UNK        -0.5000 
     65 C           0.4367  -11.8022  -47.9864 C.2       1 UNK         0.5000 
     66 O          -0.6662  -12.2159  -48.3556 O.2       1 UNK        -0.5000 
     67 C          -2.5154  -22.4464  -47.3876 C.2       11 UNK         0.5000 
     68 O          -3.3763  -23.1039  -47.9751 O.2       11 UNK        -0.5000 
     69 N          -2.8053  -21.5638  -46.4211 N.am      12 UNK        -0.5000 
     70 CA         -4.1436  -21.4009  -45.8509 C.3       12 UNK         0.1400 
     71 CB         -4.2017  -20.1433  -44.9716 C.3       12 UNK        -0.1800 
     72 C          -4.5966  -22.6494  -45.0708 C.2       12 UNK         0.5000 
     73 O          -5.6891  -23.1556  -45.3273 O.2       12 UNK        -0.5000 
     74 N          -3.7400  -23.1483  -44.1670 N.am      13 UNK        -0.5000 
     75 CA         -3.9879  -24.3383  -43.3469 C.3       13 UNK         0.1400 
     76 CB         -2.8857  -24.4724  -42.2855 C.3       13 UNK        -0.1800 
     77 C          -4.1039  -25.6344  -44.1695 C.2       13 UNK         0.5000 
     78 O          -4.9461  -26.4776  -43.8593 O.2       13 UNK        -0.5000 
     79 N          -3.2805  -25.7571  -45.2191 N.am      14 UNK        -0.5000 
     80 CA         -3.2996  -26.8710  -46.1707 C.3       14 UNK         0.1400 
     81 CB         -1.9707  -26.8832  -46.9427 C.3       14 UNK        -0.1800 
     82 C          -4.4850  -26.8243  -47.1576 C.2       14 UNK         0.5000 
     83 O          -4.7002  -27.8011  -47.8756 O.2       14 UNK        -0.5000 
     84 N          -5.2031  -25.6909  -47.2027 N.am      15 UNK        -0.5000 
     85 CA         -6.2983  -25.3555  -48.1205 C.3       15 UNK         0.1400 
     86 CB         -7.4941  -26.3150  -47.9531 C.3       15 UNK        -0.1800 
     87 C          -5.8484  -25.2107  -49.5903 C.2       15 UNK         0.5000 
     88 O          -6.6817  -25.2354  -50.4957 O.2       15 UNK        -0.5000 
     89 N          -4.5440  -24.9994  -49.8058 N.am      16 UNK        -0.5000 
     90 CA         -3.9503  -24.6744  -51.1007 C.3       16 UNK         0.1400 
     91 CB         -2.4419  -24.9541  -51.0539 C.3       16 UNK        -0.1800 
     92 C          -4.2512  -23.2248  -51.5255 C.2       16 UNK         0.5000 
     93 O          -4.2649  -22.9356  -52.7201 O.2       16 UNK        -0.5000 
     94 N          -4.5569  -22.3460  -50.5597 N.am      17 UNK        -0.5000 
     95 CA         -5.0749  -20.9946  -50.7936 C.3       17 UNK         0.1400 
     96 CB         -5.2089  -20.2640  -49.4507 C.3       17 UNK        -0.1800 
     97 C          -6.4167  -20.9930  -51.5557 C.2       17 UNK         0.5000 
     98 O          -6.6294  -20.1331  -52.4101 O.2       17 UNK        -0.5000 
     99 N          -7.2684  -21.9959  -51.2894 N.am      18 UNK        -0.5000 
    100 CA        -8.5225  -22.2351  -52.0118 C.3       18 UNK         0.1400 
    101 CB        -9.4190  -23.1691  -51.1848 C.3       18 UNK        -0.1800 
    102 C         -8.3005  -22.7997  -53.4312 C.2       18 UNK         0.5000 
    103 O         -9.1814  -22.6627  -54.2799 O.2       18 UNK        -0.5000 
    104 N         -7.1176  -23.3808  -53.6766 N.am      19 UNK        -0.5000 
    105 CA        -6.6283  -23.8120  -54.9886 C.3       19 UNK         0.1400 
    106 CB        -5.8196  -25.1107  -54.8221 C.3       19 UNK        -0.1800 
    107 C         -5.8058  -22.7065  -55.6913 C.2       19 UNK         0.5000 
    108 O         -5.1259  -22.9921  -56.6779 O.2       19 UNK        -0.5000 
    109 N         -5.9002  -21.4679  -55.1848 N.am      20 UNK        -0.5000 
    110 CA        -5.3200  -20.2300  -55.7045 C.3       20 UNK         0.1400 
    111 CB        -5.7955  -19.9419  -57.1455 C.3       20 UNK        -0.1800 
    112 C         -3.7933  -20.1127  -55.5253 C.2       20 UNK         0.5000 
    113 O         -3.1325  -19.4871  -56.3577 O.2       20 UNK        -0.5000 
    114 N         -3.2522  -20.6482  -54.4187 N.am      21 UNK        -0.5000 
    115 CA        -1.9162  -20.2874  -53.9278 C.3       21 UNK         0.1400 
    116 CB        -1.5127  -21.1947  -52.7567 C.3       21 UNK        -0.1800 
    117 C         -1.8841  -18.8013  -53.5113 C.2       21 UNK         0.5000 
    118 O         -2.8249  -18.3298  -52.8686 O.2       21 UNK        -0.5000 
    119 N         -0.8321  -18.0900  -53.9295 N.am      22 UNK        -0.5000 
    120 CA        -0.7415  -16.6191  -53.9099 C.3       22 UNK         0.1400 
    121 C         -0.5528  -15.9196  -52.5290 C.2       22 UNK         0.5000 
    122 N         -0.5212  -16.6375  -51.4156 N.am      22 UNK        -0.7600 
    123 O         -0.4592  -14.6964  -52.4669 O.2       22 UNK        -0.5000 
    124 C124        0.2021  -16.0958  -55.0301 C.3       23 UNK        -0.0398 
    125 S125        2.0090  -16.0414  -54.7304 S.3       23 UNK        -0.2404 
    126 C126        2.4734  -17.7087  -54.1394 C.3       23 UNK        -0.0205 
    127 H127        1.0656  -10.3418  -53.0781 H         1 UNK         0.0600 
    128 H128        0.5318  -11.9918  -52.7441 H         1 UNK         0.0600 
    129 H129       -0.5881  -10.6436  -52.5319 H         1 UNK         0.0600 
    130 H130        1.2223  -12.7779  -50.7783 H         1 UNK         0.3000 
    131 H131        2.3136  -11.0746  -48.7082 H         1 UNK         0.0600 
    132 H132        3.4804  -13.1094  -49.0275 H         1 UNK         0.0800 
    133 H133        2.6666  -13.3024  -47.5038 H         1 UNK         0.0800 
    134 H134        3.9665  -15.1992  -49.9955 H         1 UNK         0.0800 
    135 H135        3.6011  -16.1412  -48.5640 H         1 UNK         0.0800 
    136 H136        3.2231  -15.9022  -52.2096 H         1 UNK         0.1150 
    137 H137        1.6464  -19.8623  -52.6826 H         1 UNK         0.1150 
    138 H138        2.2901  -18.2532  -48.7657 H         1 UNK         0.1150 
    139 H139        2.2059  -20.8543  -49.3150 H         1 UNK         0.0800 
    140 H140        1.4050  -21.2787  -50.8051 H         1 UNK         0.0800 
    141 H141        0.2644  -22.7308  -49.4293 H         1 UNK         0.0800 
    142 H142       -1.3623  -22.3176  -49.8428 H         1 UNK         0.0800 
    143 H143       -1.0005  -23.7920  -47.8748 H         1 UNK         0.0600 
    144 H144        0.4821  -21.6404  -46.6505 H         1 UNK         0.3000 
    145 H145        0.6042  -23.5297  -43.5142 H         1 UNK         0.0600 
    146 H146        2.9756  -22.9681  -43.8676 H         1 UNK         0.0600 
    147 H147        2.4612  -24.1829  -45.0261 H         1 UNK         0.0600 
    148 H148        2.6606  -22.5159  -45.5403 H         1 UNK         0.0600 
    149 H149        1.4739  -20.8861  -43.9901 H         1 UNK         0.3000 
    150 H150       -1.5301  -19.2207  -42.9368 H         1 UNK         0.0600 
    151 H151        1.2247  -19.5404  -41.6312 H         1 UNK         0.0600 
    152 H152       -0.3201  -19.8502  -40.8466 H         1 UNK         0.0600 
    153 H153        0.0940  -18.2179  -41.3530 H         1 UNK         0.0600 
    154 H154        0.9620  -18.1525  -43.7059 H         1 UNK         0.3000 
    155 H155        0.4518  -18.0672  -47.2513 H         1 UNK         0.0600 
    156 H156        0.5386  -16.0149  -44.9772 H         1 UNK         0.0600 
    157 H157       -0.5440  -16.0286  -46.3639 H         1 UNK         0.0600 
    158 H158        1.1672  -15.7130  -46.5872 H         1 UNK         0.0600 
    159 H159        2.6603  -17.3972  -45.5559 H         1 UNK         0.3000 
    160 H160        4.3990  -20.5074  -45.8166 H         1 UNK         0.0600 
    161 H161        4.8774  -17.7455  -47.0643 H         1 UNK         0.0600 
    162 H162        4.8053  -19.2614  -47.9540 H         1 UNK         0.0600 
    163 H163        6.0935  -18.9924  -46.7903 H         1 UNK         0.0600 
    164 H164        5.0502  -17.9888  -44.6099 H         1 UNK         0.3000 
    165 H165        3.6630  -18.6662  -41.3985 H         1 UNK         0.0600 
    166 H166        6.0062  -18.2809  -40.7090 H         1 UNK         0.0600 
    167 H167        6.5730  -18.5551  -42.3568 H         1 UNK         0.0600 
    168 H168        5.8550  -19.8717  -41.4366 H         1 UNK         0.0600 
    169 H169        5.1812  -16.4647  -42.2349 H         1 UNK         0.3000 
    170 H170        4.1892  -14.4479  -42.3159 H         1 UNK         0.0600 
    171 H171        4.5555  -14.8509  -44.7408 H         1 UNK         0.0600 
    172 H172        2.8266  -14.7660  -45.0476 H         1 UNK         0.0600 
    173 H173        3.6976  -13.3352  -44.5061 H         1 UNK         0.0600 
    174 H174        1.4995  -13.8055  -43.1809 H         1 UNK         0.3000 
    175 H175       -0.0640  -13.9987  -40.0561 H         1 UNK         0.0600 
    176 H176        1.0586  -11.3296  -41.0705 H         1 UNK         0.0600 
    177 H177       -0.3403  -11.5280  -40.0137 H         1 UNK         0.0600 
    178 H178        1.2606  -11.9704  -39.4442 H         1 UNK         0.0600 
    179 H179       -0.6163  -12.4609  -42.4389 H         1 UNK         0.3000 
    180 H180       -1.7166  -14.9720  -44.4994 H         1 UNK         0.0600 
    181 H181       -3.7531  -13.3796  -42.8568 H         1 UNK         0.0600 
    182 H182       -3.7351  -15.1296  -43.0386 H         1 UNK         0.0600 
    183 H183       -4.0379  -14.1126  -44.4366 H         1 UNK         0.0600 
    184 H184       -2.3994  -12.2497  -44.6181 H         1 UNK         0.3000 
    185 H185       -1.3094  -10.9341  -46.1323 H         1 UNK         0.0600 
    186 H186        0.1553   -9.1444  -45.1727 H         1 UNK         0.0600 
    187 H187       -0.6550  -10.0378  -43.8969 H         1 UNK         0.0600 
    188 H188        1.0420  -10.3506  -44.2403 H         1 UNK         0.0600 
    189 H189        1.5896  -10.9604  -46.5397 H         1 UNK         0.3000 
    190 H190       -2.0646  -20.9910  -46.0284 H         1 UNK         0.3000 
    191 H191       -4.8453  -21.2589  -46.6740 H         1 UNK         0.0600 
    192 H192       -5.1968  -20.0100  -44.5458 H         1 UNK         0.0600 
    193 H193       -3.9743  -19.2487  -45.5515 H         1 UNK         0.0600 
    194 H194       -3.4946  -20.1939  -44.1442 H         1 UNK         0.0600 
    195 H195       -2.8644  -22.6603  -43.9929 H         1 UNK         0.3000 
    196 H196       -4.9385  -24.1915  -42.8301 H         1 UNK         0.0600 
    197 H197       -1.8995  -24.5704  -42.7411 H         1 UNK         0.0600 
    198 H198       -2.8651  -23.6032  -41.6279 H         1 UNK         0.0600 
    199 H199       -3.0485  -25.3500  -41.6587 H         1 UNK         0.0600 
    200 H200       -2.5591  -25.0535  -45.3563 H         1 UNK         0.3000 
    201 H201       -3.3771  -27.8042  -45.6092 H         1 UNK         0.0600 
    202 H202       -1.8505  -25.9837  -47.5463 H         1 UNK         0.0600 
    203 H203       -1.9151  -27.7393  -47.6163 H         1 UNK         0.0600 
    204 H204       -1.1196  -26.9492  -46.2646 H         1 UNK         0.0600 
    205 H205       -4.9438  -24.9495  -46.5639 H         1 UNK         0.3000 
    206 H206       -6.6360  -24.3630  -47.8191 H         1 UNK         0.0600 
    207 H207       -7.7888  -26.3983  -46.9070 H         1 UNK         0.0600 
    208 H208       -8.3627  -25.9555  -48.5061 H         1 UNK         0.0600 
    209 H209       -7.2683  -27.3161  -48.3205 H         1 UNK         0.0600 
    210 H210       -3.9490  -24.8883  -48.9946 H         1 UNK         0.3000 
    211 H211       -4.3885  -25.3278  -51.8577 H         1 UNK         0.0600 
    212 H212       -1.9457  -24.6097  -51.9623 H         1 UNK         0.0600 
    213 H213       -2.2499  -26.0235  -50.9654 H         1 UNK         0.0600 
    214 H214       -1.9654  -24.4669  -50.2059 H         1 UNK         0.0600 
    215 H215       -4.4491  -22.6394  -49.5943 H         1 UNK         0.3000 
    216 H216       -4.3512  -20.4524  -51.4045 H         1 UNK         0.0600 
    217 H217       -5.9121  -20.7689  -48.7877 H         1 UNK         0.0600 
    218 H218       -5.5672  -19.2441  -49.5959 H         1 UNK         0.0600 
    219 H219       -4.2474  -20.1993  -48.9406 H         1 UNK         0.0600 
    220 H220       -7.0089  -22.6863  -50.5999 H         1 UNK         0.3000 
    221 H221       -9.0414  -21.2799  -52.1179 H         1 UNK         0.0600 
    222 H222       -9.5901  -22.7715  -50.1843 H         1 UNK         0.0600 
    223 H223       -8.9854  -24.1635  -51.0830 H         1 UNK         0.0600 
    224 H224      -10.3948  -23.2881  -51.6575 H         1 UNK         0.0600 
    225 H225       -6.4377  -23.4175  -52.9296 H         1 UNK         0.3000 
    226 H226       -7.4790  -24.0340  -55.6357 H         1 UNK         0.0600 
    227 H227       -4.8869  -24.9437  -54.2845 H         1 UNK         0.0600 
    228 H228       -6.3898  -25.8655  -54.2803 H         1 UNK         0.0600 
    229 H229       -5.5617  -25.5357  -55.7928 H         1 UNK         0.0600 
    230 H230       -6.4493  -21.3519  -54.3436 H         1 UNK         0.3000 
    231 H231       -5.7356  -19.4404  -55.0769 H         1 UNK         0.0600 
    232 H232       -5.3563  -20.6325  -57.8656 H         1 UNK         0.0600 
    233 H233       -5.5179  -18.9332  -57.4537 H         1 UNK         0.0600 
    234 H234       -6.8801  -20.0154  -57.2261 H         1 UNK         0.0600 
    235 H235       -3.8295  -21.2096  -53.8033 H         1 UNK         0.3000 
    236 H236       -1.2052  -20.4482  -54.7410 H         1 UNK         0.0600 
    237 H237       -1.5655  -22.2473  -53.0342 H         1 UNK         0.0600 
    238 H238       -0.4882  -20.9933  -52.4460 H         1 UNK         0.0600 
    239 H239       -2.1485  -21.0396  -51.8861 H         1 UNK         0.0600 
    240 H240       -0.0966  -18.5627  -54.4306 H         1 UNK         0.3000 
    241 H241       -1.7359  -16.2829  -54.2112 H         1 UNK         0.0600 
    242 H242       -0.3622  -16.1708  -50.5377 H         1 UNK         0.3800 
    243 H243       -0.5910  -17.6409  -51.4521 H         1 UNK         0.3800 
    244 H244        0.0311  -16.6573  -55.9498 H         1 UNK         0.0800 
    245 H245       -0.0905  -15.0731  -55.2740 H         1 UNK         0.0800 
    246 H246        1.8588  -18.4594  -54.6359 H         1 UNK         0.0800 
    247 H247        3.4987  -17.9036  -54.4559 H         1 UNK         0.0800 
@<TRIPOS>BOND
     1    1    2 1    
     2    1  127 1    
     3    1  128 1    
     4    1  129 1    
     5    2    3 2    
     6    2    4 am   BACKBONE|DICT|INTERRES
     7    4    5 1    
     8    4  130 1    
     9    5    6 1    
    10    5   65 1    
    11    5  131 1    
    12    6    7 1    
    13    6  132 1    
    14    6  133 1    
    15    7    8 1    
    16    8    9 1    
    17    8  134 1    
    18    8  135 1    
    19    9   10 ar   
    20    9   14 ar   
    21   10   11 ar   
    22   10  136 1    
    23   11   12 ar   
    24   11  126 1    
    25   12   13 ar   
    26   12  137 1    
    27   13   14 ar   
    28   13   15 1    
    29   14  138 1    
    30   15   16 1    
    31   15  139 1    
    32   15  140 1    
    33   16   17 1    
    34   17   18 1    
    35   17  141 1    
    36   17  142 1    
    37   18   19 1    
    38   18   67 1    
    39   18  143 1    
    40   19   20 am   BACKBONE|DICT|INTERRES
    41   19  144 1    
    42   20   21 2    
    43   20   22 1    
    44   22   23 1    
    45   22   24 1    
    46   22  145 1    
    47   23  146 1    
    48   23  147 1    
    49   23  148 1    
    50   24   25 am   BACKBONE|DICT|INTERRES
    51   24  149 1    
    52   25   26 2    
    53   25   27 1    
    54   27   28 1    
    55   27   29 1    
    56   27  150 1    
    57   28  151 1    
    58   28  152 1    
    59   28  153 1    
    60   29   30 am   BACKBONE|DICT|INTERRES
    61   29  154 1    
    62   30   31 2    
    63   30   32 1    
    64   32   33 1    
    65   32   34 1    
    66   32  155 1    
    67   33  156 1    
    68   33  157 1    
    69   33  158 1    
    70   34   35 am   BACKBONE|DICT|INTERRES
    71   34  159 1    
    72   35   36 2    
    73   35   37 1    
    74   37   38 1    
    75   37   39 1    
    76   37  160 1    
    77   38  161 1    
    78   38  162 1    
    79   38  163 1    
    80   39   40 am   BACKBONE|DICT|INTERRES
    81   39  164 1    
    82   40   41 2    
    83   40   42 1    
    84   42   43 1    
    85   42   44 1    
    86   42  165 1    
    87   43  166 1    
    88   43  167 1    
    89   43  168 1    
    90   44   45 am   BACKBONE|DICT|INTERRES
    91   44  169 1    
    92   45   46 2    
    93   45   47 1    
    94   47   48 1    
    95   47   49 1    
    96   47  170 1    
    97   48  171 1    
    98   48  172 1    
    99   48  173 1    
   100   49   50 am   BACKBONE|DICT|INTERRES
   101   49  174 1    
   102   50   51 2    
   103   50   52 1    
   104   52   53 1    
   105   52   54 1    
   106   52  175 1    
   107   53  176 1    
   108   53  177 1    
   109   53  178 1    
   110   54   55 am   BACKBONE|DICT|INTERRES
   111   54  179 1    
   112   55   56 2    
   113   55   57 1    
   114   57   58 1    
   115   57   59 1    
   116   57  180 1    
   117   58  181 1    
   118   58  182 1    
   119   58  183 1    
   120   59   60 am   BACKBONE|DICT|INTERRES
   121   59  184 1    
   122   60   61 2    
   123   60   62 1    
   124   62   63 1    
   125   62   64 1    
   126   62  185 1    
   127   63  186 1    
   128   63  187 1    
   129   63  188 1    
   130   64   65 am   BACKBONE|DICT|INTERRES
   131   64  189 1    
   132   65   66 2    
   133   67   68 2    
   134   67   69 am   BACKBONE|DICT|INTERRES
   135   69   70 1    
   136   69  190 1    
   137   70   71 1    
   138   70   72 1    
   139   70  191 1    
   140   71  192 1    
   141   71  193 1    
   142   71  194 1    
   143   72   73 2    
   144   72   74 am   BACKBONE|DICT|INTERRES
   145   74   75 1    
   146   74  195 1    
   147   75   76 1    
   148   75   77 1    
   149   75  196 1    
   150   76  197 1    
   151   76  198 1    
   152   76  199 1    
   153   77   78 2    
   154   77   79 am   BACKBONE|DICT|INTERRES
   155   79   80 1    
   156   79  200 1    
   157   80   81 1    
   158   80   82 1    
   159   80  201 1    
   160   81  202 1    
   161   81  203 1    
   162   81  204 1    
   163   82   83 2    
   164   82   84 am   BACKBONE|DICT|INTERRES
   165   84   85 1    
   166   84  205 1    
   167   85   86 1    
   168   85   87 1    
   169   85  206 1    
   170   86  207 1    
   171   86  208 1    
   172   86  209 1    
   173   87   88 2    
   174   87   89 am   BACKBONE|DICT|INTERRES
   175   89   90 1    
   176   89  210 1    
   177   90   91 1    
   178   90   92 1    
   179   90  211 1    
   180   91  212 1    
   181   91  213 1    
   182   91  214 1    
   183   92   93 2    
   184   92   94 am   BACKBONE|DICT|INTERRES
   185   94   95 1    
   186   94  215 1    
   187   95   96 1    
   188   95   97 1    
   189   95  216 1    
   190   96  217 1    
   191   96  218 1    
   192   96  219 1    
   193   97   98 2    
   194   97   99 am   BACKBONE|DICT|INTERRES
   195   99  100 1    
   196   99  220 1    
   197  100  101 1    
   198  100  102 1    
   199  100  221 1    
   200  101  222 1    
   201  101  223 1    
   202  101  224 1    
   203  102  103 2    
   204  102  104 am   BACKBONE|DICT|INTERRES
   205  104  105 1    
   206  104  225 1    
   207  105  106 1    
   208  105  107 1    
   209  105  226 1    
   210  106  227 1    
   211  106  228 1    
   212  106  229 1    
   213  107  108 2    
   214  107  109 am   BACKBONE|DICT|INTERRES
   215  109  110 1    
   216  109  230 1    
   217  110  111 1    
   218  110  112 1    
   219  110  231 1    
   220  111  232 1    
   221  111  233 1    
   222  111  234 1    
   223  112  113 2    
   224  112  114 am   BACKBONE|DICT|INTERRES
   225  114  115 1    
   226  114  235 1    
   227  115  116 1    
   228  115  117 1    
   229  115  236 1    
   230  116  237 1    
   231  116  238 1    
   232  116  239 1    
   233  117  118 2    
   234  117  119 am   BACKBONE|DICT|INTERRES
   235  119  120 1    
   236  119  240 1    
   237  120  121 1    
   238  120  124 1    
   239  120  241 1    
   240  121  122 am   BACKBONE|DICT|INTERRES
   241  121  123 2    
   242  122  242 1    
   243  122  243 1    
   244  124  125 1    
   245  124  244 1    
   246  124  245 1    
   247  125  126 1    
   248  126  246 1    
   249  126  247 1    
@<TRIPOS>SUBSTRUCTURE
     1 UNK         1 GROUP             0       ****    0 ROOT    
