@<TRIPOS>MOLECULE
3R540
247   249    1
SMALL
USER_CHARGES


@<TRIPOS>ATOM
      1 CA          1.0413  -15.3594  -50.9870 C.3       0 UNK        -0.1800 
      2 C           0.8062  -14.8349  -49.5779 C.2       0 UNK         0.5000 
      3 O           1.7568  -14.4435  -48.8995 O.2       0 UNK        -0.5000 
      4 N          -0.4571  -14.8176  -49.1362 N.am      1 UNK        -0.5000 
      5 CA         -0.8991  -14.3196  -47.8298 C.3       1 UNK         0.1400 
      6 C6         -2.2631  -14.9256  -47.4133 C.3       23 UNK        -0.0398 
      7 S7         -2.1591  -16.6993  -46.9997 S.3       23 UNK        -0.2404 
      8 C8         -2.9172  -17.5150  -48.4497 C.3       23 UNK        -0.0205 
      9 C9         -1.9494  -18.1361  -49.4600 C.ar      23 UNK        -0.0193 
     10 C10        -2.4884  -18.6515  -50.6411 C.ar      23 UNK        -0.1150 
     11 C11        -1.6828  -19.2478  -51.6147 C.ar      23 UNK        -0.0193 
     12 C12        -0.3010  -19.3091  -51.3987 C.ar      23 UNK        -0.1150 
     13 C13         0.2606  -18.8079  -50.2211 C.ar      23 UNK        -0.0193 
     14 C14        -0.5668  -18.2316  -49.2525 C.ar      23 UNK        -0.1150 
     15 C15         1.7684  -18.8569  -50.0223 C.3       23 UNK        -0.0205 
     16 S16         2.3420  -20.4912  -49.4647 S.3       23 UNK        -0.2404 
     17 C17         1.9506  -20.4265  -47.6854 C.3       23 UNK        -0.0398 
     18 CA          1.3485  -21.7463  -47.1494 C.3       11 UNK         0.1400 
     19 N           1.5036  -21.8612  -45.6972 N.am      11 UNK        -0.5000 
     20 C           1.2435  -22.9628  -44.9797 C.2       10 UNK         0.5000 
     21 O           0.8998  -24.0353  -45.4757 O.2       10 UNK        -0.5000 
     22 CA          1.3336  -22.8305  -43.4474 C.3       10 UNK         0.1400 
     23 CB          2.7870  -22.9578  -42.9680 C.3       10 UNK        -0.1800 
     24 N           0.7596  -21.5746  -42.9607 N.am      10 UNK        -0.5000 
     25 C          -0.5363  -21.2469  -43.0691 C.2       9 UNK         0.5000 
     26 O          -1.3940  -22.0070  -43.5187 O.2       9 UNK        -0.5000 
     27 CA         -0.9316  -19.8143  -42.6611 C.3       9 UNK         0.1400 
     28 CB         -1.1212  -19.7055  -41.1411 C.3       9 UNK        -0.1800 
     29 N           0.0353  -18.8102  -43.1088 N.am      9 UNK        -0.5000 
     30 C           0.3312  -18.5605  -44.3922 C.2       8 UNK         0.5000 
     31 O          -0.2117  -19.1242  -45.3387 O.2       8 UNK        -0.5000 
     32 CA          1.4740  -17.5701  -44.6662 C.3       8 UNK         0.1400 
     33 CB          0.9898  -16.1188  -44.5591 C.3       8 UNK        -0.1800 
     34 N           2.6072  -17.7871  -43.7679 N.am      8 UNK        -0.5000 
     35 C           3.4014  -18.8663  -43.8045 C.2       7 UNK         0.5000 
     36 O           3.2884  -19.7678  -44.6337 O.2       7 UNK        -0.5000 
     37 CA          4.4725  -18.9762  -42.7043 C.3       7 UNK         0.1400 
     38 CB          5.7332  -18.1917  -43.0962 C.3       7 UNK        -0.1800 
     39 N           3.9900  -18.5026  -41.4065 N.am      7 UNK        -0.5000 
     40 C           3.0307  -19.1042  -40.6881 C.2       6 UNK         0.5000 
     41 O           2.4863  -20.1566  -41.0210 O.2       6 UNK        -0.5000 
     42 CA          2.5644  -18.3705  -39.4153 C.3       6 UNK         0.1400 
     43 CB          3.4625  -18.7298  -38.2225 C.3       6 UNK        -0.1800 
     44 N           2.5298  -16.9128  -39.5811 N.am      6 UNK        -0.5000 
     45 C           1.7311  -16.2759  -40.4474 C.2       5 UNK         0.5000 
     46 O           0.9239  -16.8575  -41.1758 O.2       5 UNK        -0.5000 
     47 CA          1.9247  -14.7540  -40.5724 C.3       5 UNK         0.1400 
     48 CB          3.1438  -14.4437  -41.4565 C.3       5 UNK        -0.1800 
     49 N           0.7547  -14.1105  -41.1653 N.am      5 UNK        -0.5000 
     50 C          -0.3956  -13.8588  -40.5321 C.2       4 UNK         0.5000 
     51 O          -0.5675  -14.0740  -39.3304 O.2       4 UNK        -0.5000 
     52 CA         -1.5261  -13.2402  -41.3867 C.3       4 UNK         0.1400 
     53 CB         -2.7511  -12.8338  -40.5471 C.3       4 UNK        -0.1800 
     54 N          -1.0762  -12.0738  -42.1549 N.am      4 UNK        -0.5000 
     55 C          -0.3977  -12.1217  -43.3068 C.2       3 UNK         0.5000 
     56 O          -0.0541  -13.1752  -43.8505 O.2       3 UNK        -0.5000 
     57 CA         -0.0059  -10.7788  -43.9384 C.3       3 UNK         0.1400 
     58 CB          1.2125  -10.1649  -43.2272 C.3       3 UNK        -0.1800 
     59 N           0.3130  -11.0259  -45.3377 N.am      3 UNK        -0.5000 
     60 C           0.2019  -10.1606  -46.3502 C.2       2 UNK         0.5000 
     61 O          -0.1140   -8.9785  -46.2096 O.2       2 UNK        -0.5000 
     62 CA          0.4775  -10.7152  -47.7637 C.3       2 UNK         0.1400 
     63 CB          1.9144  -10.3907  -48.1996 C.3       2 UNK        -0.1800 
     64 N           0.2676  -12.1629  -47.8641 N.am      2 UNK        -0.5000 
     65 C          -0.9226  -12.7746  -47.8124 C.2       1 UNK         0.5000 
     66 O          -1.9939  -12.1675  -47.7608 O.2       1 UNK        -0.5000 
     67 C          -0.1189  -21.9446  -47.5861 C.2       11 UNK         0.5000 
     68 O          -0.3716  -22.7183  -48.5071 O.2       11 UNK        -0.5000 
     69 N          -1.0607  -21.3067  -46.8762 N.am      12 UNK        -0.5000 
     70 CA         -2.5043  -21.4495  -47.0741 C.3       12 UNK         0.1400 
     71 CB         -3.2509  -20.4923  -46.1328 C.3       12 UNK        -0.1800 
     72 C          -2.9953  -22.8921  -46.8578 C.2       12 UNK         0.5000 
     73 O          -3.8118  -23.3796  -47.6404 O.2       12 UNK        -0.5000 
     74 N          -2.4707  -23.5562  -45.8179 N.am      13 UNK        -0.5000 
     75 CA         -2.7354  -24.9614  -45.5134 C.3       13 UNK         0.1400 
     76 CB         -2.1691  -25.3110  -44.1291 C.3       13 UNK        -0.1800 
     77 C          -2.1857  -25.9076  -46.5959 C.2       13 UNK         0.5000 
     78 O          -2.9076  -26.8024  -47.0358 O.2       13 UNK        -0.5000 
     79 N          -0.9450  -25.6659  -47.0445 N.am      14 UNK        -0.5000 
     80 CA         -0.2949  -26.3959  -48.1380 C.3       14 UNK         0.1400 
     81 CB          1.1780  -25.9707  -48.2346 C.3       14 UNK        -0.1800 
     82 C          -1.0085  -26.2122  -49.4923 C.2       14 UNK         0.5000 
     83 O          -1.1049  -27.1651  -50.2661 O.2       14 UNK        -0.5000 
     84 N          -1.5353  -25.0044  -49.7294 N.am      15 UNK        -0.5000 
     85 CA         -2.3671  -24.6422  -50.8771 C.3       15 UNK         0.1400 
     86 CB         -2.3874  -23.1103  -51.0037 C.3       15 UNK        -0.1800 
     87 C          -3.8076  -25.1908  -50.8007 C.2       15 UNK         0.5000 
     88 O          -4.5564  -25.0203  -51.7620 O.2       15 UNK        -0.5000 
     89 N          -4.1847  -25.8097  -49.6710 N.am      16 UNK        -0.5000 
     90 CA         -5.5050  -26.3667  -49.3595 C.3       16 UNK         0.1400 
     91 CB         -5.8169  -27.5774  -50.2639 C.3       16 UNK        -0.1800 
     92 C          -6.6187  -25.2982  -49.3628 C.2       16 UNK         0.5000 
     93 O          -7.7188  -25.5483  -49.8587 O.2       16 UNK        -0.5000 
     94 N          -6.2974  -24.1205  -48.8071 N.am      17 UNK        -0.5000 
     95 CA         -7.1463  -22.9321  -48.6749 C.3       17 UNK         0.1400 
     96 CB         -8.3708  -23.2181  -47.7800 C.3       17 UNK        -0.1800 
     97 C          -7.5204  -22.2678  -50.0184 C.2       17 UNK         0.5000 
     98 O          -8.5184  -21.5471  -50.0866 O.2       17 UNK        -0.5000 
     99 N          -6.7006  -22.4864  -51.0562 N.am      18 UNK        -0.5000 
    100 CA        -6.7555  -21.7611  -52.3268 C.3       18 UNK         0.1400 
    101 CB        -5.9597  -22.5466  -53.3818 C.3       18 UNK        -0.1800 
    102 C         -6.2191  -20.3203  -52.1847 C.2       18 UNK         0.5000 
    103 O         -5.7046  -19.9455  -51.1284 O.2       18 UNK        -0.5000 
    104 N         -6.3299  -19.5408  -53.2635 N.am      19 UNK        -0.5000 
    105 CA        -5.8634  -18.1603  -53.3576 C.3       19 UNK         0.1400 
    106 CB        -7.0347  -17.2119  -53.0445 C.3       19 UNK        -0.1800 
    107 C         -5.2882  -17.9041  -54.7592 C.2       19 UNK         0.5000 
    108 O         -5.4317  -18.7504  -55.6463 O.2       19 UNK        -0.5000 
    109 N         -4.6579  -16.7328  -54.9242 N.am      20 UNK        -0.5000 
    110 CA        -4.0040  -16.2441  -56.1427 C.3       20 UNK         0.1400 
    111 CB        -5.0432  -15.9907  -57.2595 C.3       20 UNK        -0.1800 
    112 C         -2.8218  -17.1448  -56.5616 C.2       20 UNK         0.5000 
    113 O         -2.0304  -17.5382  -55.7018 O.2       20 UNK        -0.5000 
    114 N         -2.7019  -17.4490  -57.8596 N.am      21 UNK        -0.5000 
    115 CA        -1.6713  -18.3111  -58.4383 C.3       21 UNK         0.1400 
    116 CB        -1.5205  -17.9637  -59.9306 C.3       21 UNK        -0.1800 
    117 C         -1.9905  -19.8023  -58.2024 C.2       21 UNK         0.5000 
    118 O         -2.2819  -20.5336  -59.1509 O.2       21 UNK        -0.5000 
    119 N         -1.9577  -20.2179  -56.9316 N.am      22 UNK        -0.5000 
    120 CA        -2.2358  -21.5909  -56.4812 C.3       22 UNK         0.1400 
    121 C         -1.1279  -22.6401  -56.8004 C.2       22 UNK         0.5000 
    122 N          0.0606  -22.2447  -57.2408 N.am      22 UNK        -0.7600 
    123 O         -1.3585  -23.8382  -56.6612 O.2       22 UNK        -0.5000 
    124 C124       -2.6640  -21.6283  -54.9920 C.3       23 UNK        -0.0398 
    125 S125       -1.3948  -21.0129  -53.8274 S.3       23 UNK        -0.2404 
    126 C126       -2.3545  -19.7831  -52.8803 C.3       23 UNK        -0.0205 
    127 H127        0.1740  -15.9012  -51.3658 H         1 UNK         0.0600 
    128 H128        1.8951  -16.0361  -51.0006 H         1 UNK         0.0600 
    129 H129        1.2524  -14.5318  -51.6639 H         1 UNK         0.0600 
    130 H130       -1.1918  -15.1493  -49.7438 H         1 UNK         0.3000 
    131 H131       -0.1640  -14.6213  -47.0818 H         1 UNK         0.0600 
    132 H132       -3.0190  -14.7509  -48.1800 H         1 UNK         0.0800 
    133 H133       -2.6344  -14.4317  -46.5132 H         1 UNK         0.0800 
    134 H134       -3.5701  -18.3079  -48.0853 H         1 UNK         0.0800 
    135 H135       -3.5726  -16.8128  -48.9656 H         1 UNK         0.0800 
    136 H136       -3.5549  -18.5899  -50.8009 H         1 UNK         0.1150 
    137 H137        0.3501  -19.7449  -52.1421 H         1 UNK         0.1150 
    138 H138       -0.1217  -17.8482  -48.3466 H         1 UNK         0.1150 
    139 H139        2.2607  -18.6216  -50.9670 H         1 UNK         0.0800 
    140 H140        2.0923  -18.0905  -49.3162 H         1 UNK         0.0800 
    141 H141        1.2983  -19.5818  -47.4654 H         1 UNK         0.0800 
    142 H142        2.8916  -20.2154  -47.1773 H         1 UNK         0.0800 
    143 H143        1.9238  -22.5702  -47.5775 H         1 UNK         0.0600 
    144 H144        1.8313  -21.0327  -45.2121 H         1 UNK         0.3000 
    145 H145        0.7608  -23.6507  -43.0099 H         1 UNK         0.0600 
    146 H146        2.8463  -22.9290  -41.8799 H         1 UNK         0.0600 
    147 H147        3.2232  -23.9030  -43.2935 H         1 UNK         0.0600 
    148 H148        3.4136  -22.1557  -43.3574 H         1 UNK         0.0600 
    149 H149        1.3959  -20.9195  -42.5176 H         1 UNK         0.3000 
    150 H150       -1.8865  -19.5866  -43.1390 H         1 UNK         0.0600 
    151 H151       -1.8760  -20.4108  -40.7914 H         1 UNK         0.0600 
    152 H152       -1.4504  -18.7062  -40.8556 H         1 UNK         0.0600 
    153 H153       -0.1980  -19.9192  -40.6028 H         1 UNK         0.0600 
    154 H154        0.4917  -18.2583  -42.3874 H         1 UNK         0.3000 
    155 H155        1.8152  -17.7331  -45.6908 H         1 UNK         0.0600 
    156 H156        0.1364  -15.9471  -45.2131 H         1 UNK         0.0600 
    157 H157        0.6690  -15.8683  -43.5496 H         1 UNK         0.0600 
    158 H158        1.7702  -15.4155  -44.8495 H         1 UNK         0.0600 
    159 H159        2.7310  -17.1194  -43.0231 H         1 UNK         0.3000 
    160 H160        4.7416  -20.0299  -42.6045 H         1 UNK         0.0600 
    161 H161        5.5329  -17.1233  -43.1877 H         1 UNK         0.0600 
    162 H162        6.1240  -18.5359  -44.0547 H         1 UNK         0.0600 
    163 H163        6.5245  -18.3233  -42.3581 H         1 UNK         0.0600 
    164 H164        4.3893  -17.6453  -41.0549 H         1 UNK         0.3000 
    165 H165        1.5501  -18.7077  -39.1921 H         1 UNK         0.0600 
    166 H166        3.0927  -18.2800  -37.3009 H         1 UNK         0.0600 
    167 H167        3.4906  -19.8092  -38.0671 H         1 UNK         0.0600 
    168 H168        4.4889  -18.3930  -38.3729 H         1 UNK         0.0600 
    169 H169        3.1735  -16.3774  -39.0162 H         1 UNK         0.3000 
    170 H170        2.0929  -14.3386  -39.5766 H         1 UNK         0.0600 
    171 H171        3.0200  -14.8332  -42.4677 H         1 UNK         0.0600 
    172 H172        3.3084  -13.3687  -41.5332 H         1 UNK         0.0600 
    173 H173        4.0544  -14.8797  -41.0441 H         1 UNK         0.0600 
    174 H174        0.7825  -13.9350  -42.1634 H         1 UNK         0.3000 
    175 H175       -1.8509  -14.0152  -42.0844 H         1 UNK         0.0600 
    176 H176       -3.5512  -12.4474  -41.1789 H         1 UNK         0.0600 
    177 H177       -2.5005  -12.0653  -39.8148 H         1 UNK         0.0600 
    178 H178       -3.1556  -13.6885  -40.0033 H         1 UNK         0.0600 
    179 H179       -1.2826  -11.1722  -41.7494 H         1 UNK         0.3000 
    180 H180       -0.8593  -10.1008  -43.8707 H         1 UNK         0.0600 
    181 H181        1.4966   -9.2146  -43.6794 H         1 UNK         0.0600 
    182 H182        2.0778  -10.8278  -43.2707 H         1 UNK         0.0600 
    183 H183        0.9985   -9.9716  -42.1755 H         1 UNK         0.0600 
    184 H184        0.5320  -11.9937  -45.5382 H         1 UNK         0.3000 
    185 H185       -0.2101  -10.2203  -48.4528 H         1 UNK         0.0600 
    186 H186        2.1002   -9.3164  -48.1653 H         1 UNK         0.0600 
    187 H187        2.6490  -10.8724  -47.5529 H         1 UNK         0.0600 
    188 H188        2.1001  -10.7198  -49.2222 H         1 UNK         0.0600 
    189 H189        1.0914  -12.7437  -47.9842 H         1 UNK         0.3000 
    190 H190       -0.7648  -20.6387  -46.1667 H         1 UNK         0.3000 
    191 H191       -2.7227  -21.1618  -48.1044 H         1 UNK         0.0600 
    192 H192       -2.8538  -19.4810  -46.1956 H         1 UNK         0.0600 
    193 H193       -4.3107  -20.4478  -46.3858 H         1 UNK         0.0600 
    194 H194       -3.1760  -20.8050  -45.0916 H         1 UNK         0.0600 
    195 H195       -1.8498  -23.0594  -45.1869 H         1 UNK         0.3000 
    196 H196       -3.8187  -25.0943  -45.4763 H         1 UNK         0.0600 
    197 H197       -2.3875  -26.3474  -43.8691 H         1 UNK         0.0600 
    198 H198       -2.6074  -24.6813  -43.3546 H         1 UNK         0.0600 
    199 H199       -1.0876  -25.1837  -44.0887 H         1 UNK         0.0600 
    200 H200       -0.3998  -24.9299  -46.6034 H         1 UNK         0.3000 
    201 H201       -0.3254  -27.4589  -47.8906 H         1 UNK         0.0600 
    202 H202        1.7059  -26.1633  -47.3004 H         1 UNK         0.0600 
    203 H203        1.2768  -24.9088  -48.4608 H         1 UNK         0.0600 
    204 H204        1.6937  -26.5236  -49.0206 H         1 UNK         0.0600 
    205 H205       -1.3247  -24.2515  -49.0783 H         1 UNK         0.3000 
    206 H206       -1.9089  -25.0534  -51.7786 H         1 UNK         0.0600 
    207 H207       -2.9456  -22.7964  -51.8844 H         1 UNK         0.0600 
    208 H208       -2.8516  -22.6385  -50.1377 H         1 UNK         0.0600 
    209 H209       -1.3795  -22.7066  -51.1031 H         1 UNK         0.0600 
    210 H210       -3.5035  -25.8839  -48.9256 H         1 UNK         0.3000 
    211 H211       -5.4436  -26.7330  -48.3339 H         1 UNK         0.0600 
    212 H212       -5.9516  -27.2833  -51.3051 H         1 UNK         0.0600 
    213 H213       -6.7322  -28.0772  -49.9449 H         1 UNK         0.0600 
    214 H214       -5.0149  -28.3146  -50.2243 H         1 UNK         0.0600 
    215 H215       -5.3528  -24.0062  -48.4415 H         1 UNK         0.3000 
    216 H216       -6.5322  -22.1974  -48.1520 H         1 UNK         0.0600 
    217 H217       -8.9026  -22.2971  -47.5387 H         1 UNK         0.0600 
    218 H218       -8.0716  -23.6737  -46.8361 H         1 UNK         0.0600 
    219 H219       -9.0823  -23.8860  -48.2660 H         1 UNK         0.0600 
    220 H220       -5.9126  -23.1046  -50.9244 H         1 UNK         0.3000 
    221 H221       -7.7967  -21.7032  -52.6505 H         1 UNK         0.0600 
    222 H222       -4.9018  -22.5968  -53.1278 H         1 UNK         0.0600 
    223 H223       -6.3289  -23.5684  -53.4725 H         1 UNK         0.0600 
    224 H224       -6.0397  -22.0883  -54.3679 H         1 UNK         0.0600 
    225 H225       -6.6805  -19.9230  -54.1323 H         1 UNK         0.3000 
    226 H226       -5.0586  -17.9869  -52.6406 H         1 UNK         0.0600 
    227 H227       -7.4342  -17.3975  -52.0473 H         1 UNK         0.0600 
    228 H228       -6.7218  -16.1678  -53.0760 H         1 UNK         0.0600 
    229 H229       -7.8500  -17.3333  -53.7588 H         1 UNK         0.0600 
    230 H230       -4.5708  -16.1232  -54.1235 H         1 UNK         0.3000 
    231 H231       -3.5641  -15.2802  -55.8833 H         1 UNK         0.0600 
    232 H232       -5.4858  -16.9166  -57.6284 H         1 UNK         0.0600 
    233 H233       -4.5950  -15.4727  -58.1082 H         1 UNK         0.0600 
    234 H234       -5.8553  -15.3596  -56.8982 H         1 UNK         0.0600 
    235 H235       -3.4115  -17.1156  -58.4957 H         1 UNK         0.3000 
    236 H236       -0.7162  -18.0998  -57.9525 H         1 UNK         0.0600 
    237 H237       -1.2327  -16.9208  -60.0647 H         1 UNK         0.0600 
    238 H238       -0.7473  -18.5749  -60.3979 H         1 UNK         0.0600 
    239 H239       -2.4480  -18.1285  -60.4805 H         1 UNK         0.0600 
    240 H240       -1.7478  -19.5387  -56.2081 H         1 UNK         0.3000 
    241 H241       -3.1042  -21.9283  -57.0506 H         1 UNK         0.0600 
    242 H242        0.2651  -21.2650  -57.3512 H         1 UNK         0.3800 
    243 H243        0.7671  -22.9324  -57.4502 H         1 UNK         0.3800 
    244 H244       -3.5758  -21.0408  -54.8752 H         1 UNK         0.0800 
    245 H245       -2.9331  -22.6442  -54.6979 H         1 UNK         0.0800 
    246 H246       -3.3001  -20.2461  -52.5985 H         1 UNK         0.0800 
    247 H247       -2.5952  -18.9428  -53.5306 H         1 UNK         0.0800 
@<TRIPOS>BOND
     1    1    2 1    
     2    1  127 1    
     3    1  128 1    
     4    1  129 1    
     5    2    3 2    
     6    2    4 am   BACKBONE|DICT|INTERRES
     7    4    5 1    
     8    4  130 1    
     9    5    6 1    
    10    5   65 1    
    11    5  131 1    
    12    6    7 1    
    13    6  132 1    
    14    6  133 1    
    15    7    8 1    
    16    8    9 1    
    17    8  134 1    
    18    8  135 1    
    19    9   10 ar   
    20    9   14 ar   
    21   10   11 ar   
    22   10  136 1    
    23   11   12 ar   
    24   11  126 1    
    25   12   13 ar   
    26   12  137 1    
    27   13   14 ar   
    28   13   15 1    
    29   14  138 1    
    30   15   16 1    
    31   15  139 1    
    32   15  140 1    
    33   16   17 1    
    34   17   18 1    
    35   17  141 1    
    36   17  142 1    
    37   18   19 1    
    38   18   67 1    
    39   18  143 1    
    40   19   20 am   BACKBONE|DICT|INTERRES
    41   19  144 1    
    42   20   21 2    
    43   20   22 1    
    44   22   23 1    
    45   22   24 1    
    46   22  145 1    
    47   23  146 1    
    48   23  147 1    
    49   23  148 1    
    50   24   25 am   BACKBONE|DICT|INTERRES
    51   24  149 1    
    52   25   26 2    
    53   25   27 1    
    54   27   28 1    
    55   27   29 1    
    56   27  150 1    
    57   28  151 1    
    58   28  152 1    
    59   28  153 1    
    60   29   30 am   BACKBONE|DICT|INTERRES
    61   29  154 1    
    62   30   31 2    
    63   30   32 1    
    64   32   33 1    
    65   32   34 1    
    66   32  155 1    
    67   33  156 1    
    68   33  157 1    
    69   33  158 1    
    70   34   35 am   BACKBONE|DICT|INTERRES
    71   34  159 1    
    72   35   36 2    
    73   35   37 1    
    74   37   38 1    
    75   37   39 1    
    76   37  160 1    
    77   38  161 1    
    78   38  162 1    
    79   38  163 1    
    80   39   40 am   BACKBONE|DICT|INTERRES
    81   39  164 1    
    82   40   41 2    
    83   40   42 1    
    84   42   43 1    
    85   42   44 1    
    86   42  165 1    
    87   43  166 1    
    88   43  167 1    
    89   43  168 1    
    90   44   45 am   BACKBONE|DICT|INTERRES
    91   44  169 1    
    92   45   46 2    
    93   45   47 1    
    94   47   48 1    
    95   47   49 1    
    96   47  170 1    
    97   48  171 1    
    98   48  172 1    
    99   48  173 1    
   100   49   50 am   BACKBONE|DICT|INTERRES
   101   49  174 1    
   102   50   51 2    
   103   50   52 1    
   104   52   53 1    
   105   52   54 1    
   106   52  175 1    
   107   53  176 1    
   108   53  177 1    
   109   53  178 1    
   110   54   55 am   BACKBONE|DICT|INTERRES
   111   54  179 1    
   112   55   56 2    
   113   55   57 1    
   114   57   58 1    
   115   57   59 1    
   116   57  180 1    
   117   58  181 1    
   118   58  182 1    
   119   58  183 1    
   120   59   60 am   BACKBONE|DICT|INTERRES
   121   59  184 1    
   122   60   61 2    
   123   60   62 1    
   124   62   63 1    
   125   62   64 1    
   126   62  185 1    
   127   63  186 1    
   128   63  187 1    
   129   63  188 1    
   130   64   65 am   BACKBONE|DICT|INTERRES
   131   64  189 1    
   132   65   66 2    
   133   67   68 2    
   134   67   69 am   BACKBONE|DICT|INTERRES
   135   69   70 1    
   136   69  190 1    
   137   70   71 1    
   138   70   72 1    
   139   70  191 1    
   140   71  192 1    
   141   71  193 1    
   142   71  194 1    
   143   72   73 2    
   144   72   74 am   BACKBONE|DICT|INTERRES
   145   74   75 1    
   146   74  195 1    
   147   75   76 1    
   148   75   77 1    
   149   75  196 1    
   150   76  197 1    
   151   76  198 1    
   152   76  199 1    
   153   77   78 2    
   154   77   79 am   BACKBONE|DICT|INTERRES
   155   79   80 1    
   156   79  200 1    
   157   80   81 1    
   158   80   82 1    
   159   80  201 1    
   160   81  202 1    
   161   81  203 1    
   162   81  204 1    
   163   82   83 2    
   164   82   84 am   BACKBONE|DICT|INTERRES
   165   84   85 1    
   166   84  205 1    
   167   85   86 1    
   168   85   87 1    
   169   85  206 1    
   170   86  207 1    
   171   86  208 1    
   172   86  209 1    
   173   87   88 2    
   174   87   89 am   BACKBONE|DICT|INTERRES
   175   89   90 1    
   176   89  210 1    
   177   90   91 1    
   178   90   92 1    
   179   90  211 1    
   180   91  212 1    
   181   91  213 1    
   182   91  214 1    
   183   92   93 2    
   184   92   94 am   BACKBONE|DICT|INTERRES
   185   94   95 1    
   186   94  215 1    
   187   95   96 1    
   188   95   97 1    
   189   95  216 1    
   190   96  217 1    
   191   96  218 1    
   192   96  219 1    
   193   97   98 2    
   194   97   99 am   BACKBONE|DICT|INTERRES
   195   99  100 1    
   196   99  220 1    
   197  100  101 1    
   198  100  102 1    
   199  100  221 1    
   200  101  222 1    
   201  101  223 1    
   202  101  224 1    
   203  102  103 2    
   204  102  104 am   BACKBONE|DICT|INTERRES
   205  104  105 1    
   206  104  225 1    
   207  105  106 1    
   208  105  107 1    
   209  105  226 1    
   210  106  227 1    
   211  106  228 1    
   212  106  229 1    
   213  107  108 2    
   214  107  109 am   BACKBONE|DICT|INTERRES
   215  109  110 1    
   216  109  230 1    
   217  110  111 1    
   218  110  112 1    
   219  110  231 1    
   220  111  232 1    
   221  111  233 1    
   222  111  234 1    
   223  112  113 2    
   224  112  114 am   BACKBONE|DICT|INTERRES
   225  114  115 1    
   226  114  235 1    
   227  115  116 1    
   228  115  117 1    
   229  115  236 1    
   230  116  237 1    
   231  116  238 1    
   232  116  239 1    
   233  117  118 2    
   234  117  119 am   BACKBONE|DICT|INTERRES
   235  119  120 1    
   236  119  240 1    
   237  120  121 1    
   238  120  124 1    
   239  120  241 1    
   240  121  122 am   BACKBONE|DICT|INTERRES
   241  121  123 2    
   242  122  242 1    
   243  122  243 1    
   244  124  125 1    
   245  124  244 1    
   246  124  245 1    
   247  125  126 1    
   248  126  246 1    
   249  126  247 1    
@<TRIPOS>SUBSTRUCTURE
     1 UNK         1 GROUP             0       ****    0 ROOT    
