@<TRIPOS>MOLECULE
3R540
247   249    1
SMALL
USER_CHARGES


@<TRIPOS>ATOM
      1 CA         -1.0208   -9.1909  -48.3206 C.3       0 UNK        -0.1800 
      2 C          -0.7319  -10.6835  -48.3866 C.2       0 UNK         0.5000 
      3 O          -1.6623  -11.4821  -48.4977 O.2       0 UNK        -0.5000 
      4 N           0.5517  -11.0613  -48.3071 N.am      1 UNK        -0.5000 
      5 CA          1.0833  -12.4307  -48.3105 C.3       1 UNK         0.1400 
      6 C6          0.7040  -13.2440  -49.5756 C.3       23 UNK        -0.0398 
      7 S7          1.8070  -14.6674  -49.8685 S.3       23 UNK        -0.2404 
      8 C8          0.8360  -16.0334  -49.1569 C.3       23 UNK        -0.0205 
      9 C9          1.2078  -17.3523  -49.8105 C.ar      23 UNK        -0.0193 
     10 C10         0.5853  -17.7294  -51.0012 C.ar      23 UNK        -0.1150 
     11 C11         0.9069  -18.9366  -51.6261 C.ar      23 UNK        -0.0193 
     12 C12         1.8792  -19.7648  -51.0528 C.ar      23 UNK        -0.1150 
     13 C13         2.5256  -19.3894  -49.8684 C.ar      23 UNK        -0.0193 
     14 C14         2.1753  -18.1865  -49.2455 C.ar      23 UNK        -0.1150 
     15 C15         3.6535  -20.2420  -49.2989 C.3       23 UNK        -0.0205 
     16 S16         3.0850  -21.8038  -48.5553 S.3       23 UNK        -0.2404 
     17 C17         2.1577  -21.2214  -47.0935 C.3       23 UNK        -0.0398 
     18 CA          0.8207  -21.9742  -46.9001 C.3       11 UNK         0.1400 
     19 N           0.2036  -21.7086  -45.6005 N.am      11 UNK        -0.5000 
     20 C          -0.8864  -22.3386  -45.1372 C.2       10 UNK         0.5000 
     21 O          -1.4408  -23.2674  -45.7265 O.2       10 UNK        -0.5000 
     22 CA         -1.4856  -21.8187  -43.8196 C.3       10 UNK         0.1400 
     23 CB         -0.7761  -22.4549  -42.6158 C.3       10 UNK        -0.1800 
     24 N          -1.4312  -20.3602  -43.7101 N.am      10 UNK        -0.5000 
     25 C          -2.0741  -19.5070  -44.5206 C.2       9 UNK         0.5000 
     26 O          -2.8237  -19.8601  -45.4292 O.2       9 UNK        -0.5000 
     27 CA         -1.7845  -18.0090  -44.3224 C.3       9 UNK         0.1400 
     28 CB         -2.5356  -17.4539  -43.1034 C.3       9 UNK        -0.1800 
     29 N          -0.3529  -17.7419  -44.1899 N.am      9 UNK        -0.5000 
     30 C           0.5446  -17.9534  -45.1633 C.2       8 UNK         0.5000 
     31 O           0.2504  -18.3339  -46.2967 O.2       8 UNK        -0.5000 
     32 CA          2.0223  -17.7515  -44.7915 C.3       8 UNK         0.1400 
     33 CB          2.4315  -16.2835  -44.9543 C.3       8 UNK        -0.1800 
     34 N           2.3104  -18.1984  -43.4280 N.am      8 UNK        -0.5000 
     35 C           2.3581  -19.4886  -43.0656 C.2       7 UNK         0.5000 
     36 O           2.1780  -20.4203  -43.8488 O.2       7 UNK        -0.5000 
     37 CA          2.6056  -19.7935  -41.5766 C.3       7 UNK         0.1400 
     38 CB          4.1045  -19.7185  -41.2500 C.3       7 UNK        -0.1800 
     39 N           1.8703  -18.9017  -40.6810 N.am      7 UNK        -0.5000 
     40 C           0.5347  -18.8065  -40.6225 C.2       6 UNK         0.5000 
     41 O          -0.2273  -19.5050  -41.2881 O.2       6 UNK        -0.5000 
     42 CA         -0.0543  -17.7258  -39.6966 C.3       6 UNK         0.1400 
     43 CB         -0.4519  -18.3379  -38.3454 C.3       6 UNK        -0.1800 
     44 N           0.8351  -16.5840  -39.4642 N.am      6 UNK        -0.5000 
     45 C           1.3044  -15.7630  -40.4139 C.2       5 UNK         0.5000 
     46 O           1.0609  -15.9093  -41.6145 O.2       5 UNK        -0.5000 
     47 CA          2.1908  -14.6068  -39.9062 C.3       5 UNK         0.1400 
     48 CB          3.4775  -15.1278  -39.2302 C.3       5 UNK        -0.1800 
     49 N           2.5002  -13.6109  -40.9360 N.am      5 UNK        -0.5000 
     50 C           3.2637  -13.7425  -42.0291 C.2       4 UNK         0.5000 
     51 O           3.9112  -14.7547  -42.3034 O.2       4 UNK        -0.5000 
     52 CA          3.2982  -12.5161  -42.9677 C.3       4 UNK         0.1400 
     53 CB          4.2073  -12.7287  -44.1916 C.3       4 UNK        -0.1800 
     54 N           1.9582  -12.1350  -43.4264 N.am      4 UNK        -0.5000 
     55 C           1.0595  -11.4397  -42.7103 C.2       3 UNK         0.5000 
     56 O           1.2780  -11.0419  -41.5649 O.2       3 UNK        -0.5000 
     57 CA         -0.3116  -11.1413  -43.3532 C.3       3 UNK         0.1400 
     58 CB         -0.3512   -9.7009  -43.8871 C.3       3 UNK        -0.1800 
     59 N          -0.6501  -12.0508  -44.4444 N.am      3 UNK        -0.5000 
     60 C          -0.9528  -13.3489  -44.3102 C.2       2 UNK         0.5000 
     61 O          -1.1189  -13.8983  -43.2227 O.2       2 UNK        -0.5000 
     62 CA         -1.0704  -14.1748  -45.6095 C.3       2 UNK         0.1400 
     63 CB         -2.5312  -14.5627  -45.8836 C.3       2 UNK        -0.1800 
     64 N          -0.5337  -13.5017  -46.7973 N.am      2 UNK        -0.5000 
     65 C           0.7480  -13.1673  -46.9990 C.2       1 UNK         0.5000 
     66 O           1.6351  -13.3631  -46.1708 O.2       1 UNK        -0.5000 
     67 C          -0.1712  -21.7225  -48.0526 C.2       11 UNK         0.5000 
     68 O          -0.3816  -22.6194  -48.8678 O.2       11 UNK        -0.5000 
     69 N          -0.8099  -20.5450  -48.0571 N.am      12 UNK        -0.5000 
     70 CA         -1.8336  -20.1855  -49.0349 C.3       12 UNK         0.1400 
     71 CB         -2.2458  -18.7188  -48.8314 C.3       12 UNK        -0.1800 
     72 C          -3.0637  -21.1100  -48.9734 C.2       12 UNK         0.5000 
     73 O          -3.4998  -21.6152  -50.0059 O.2       12 UNK        -0.5000 
     74 N          -3.6022  -21.3051  -47.7630 N.am      13 UNK        -0.5000 
     75 CA         -4.8472  -22.0281  -47.5249 C.3       13 UNK         0.1400 
     76 CB         -5.3449  -21.7336  -46.1016 C.3       13 UNK        -0.1800 
     77 C          -4.7563  -23.5453  -47.7556 C.2       13 UNK         0.5000 
     78 O          -5.6836  -24.1059  -48.3395 O.2       13 UNK        -0.5000 
     79 N          -3.6877  -24.1855  -47.2615 N.am      14 UNK        -0.5000 
     80 CA         -3.5715  -25.6427  -47.2118 C.3       14 UNK         0.1400 
     81 CB         -3.3118  -26.0911  -45.7634 C.3       14 UNK        -0.1800 
     82 C          -2.4833  -26.1723  -48.1529 C.2       14 UNK         0.5000 
     83 O          -2.7804  -27.0356  -48.9801 O.2       14 UNK        -0.5000 
     84 N          -1.2429  -25.6790  -48.0119 N.am      15 UNK        -0.5000 
     85 CA         -0.0786  -26.2098  -48.7370 C.3       15 UNK         0.1400 
     86 CB          1.2228  -25.6318  -48.1620 C.3       15 UNK        -0.1800 
     87 C          -0.1570  -25.9748  -50.2565 C.2       15 UNK         0.5000 
     88 O           0.1938  -26.8631  -51.0332 O.2       15 UNK        -0.5000 
     89 N          -0.6705  -24.8032  -50.6448 N.am      16 UNK        -0.5000 
     90 CA         -0.9332  -24.3945  -52.0227 C.3       16 UNK         0.1400 
     91 CB         -0.6703  -22.8855  -52.1338 C.3       16 UNK        -0.1800 
     92 C          -2.3523  -24.7870  -52.4970 C.2       16 UNK         0.5000 
     93 O          -2.8766  -24.1719  -53.4264 O.2       16 UNK        -0.5000 
     94 N          -2.9460  -25.8064  -51.8575 N.am      17 UNK        -0.5000 
     95 CA         -4.2399  -26.4518  -52.1107 C.3       17 UNK         0.1400 
     96 CB         -4.3470  -26.9796  -53.5547 C.3       17 UNK        -0.1800 
     97 C          -5.4642  -25.6018  -51.7280 C.2       17 UNK         0.5000 
     98 O          -6.3474  -26.1050  -51.0325 O.2       17 UNK        -0.5000 
     99 N          -5.5000  -24.3462  -52.1788 N.am      18 UNK        -0.5000 
    100 CA        -6.5279  -23.3555  -51.8839 C.3       18 UNK         0.1400 
    101 CB        -7.8360  -23.6785  -52.6309 C.3       18 UNK        -0.1800 
    102 C         -5.9910  -21.9918  -52.3200 C.2       18 UNK         0.5000 
    103 O         -5.4399  -21.8918  -53.4177 O.2       18 UNK        -0.5000 
    104 N         -6.1930  -20.9618  -51.4890 N.am      19 UNK        -0.5000 
    105 CA        -5.6333  -19.6173  -51.6752 C.3       19 UNK         0.1400 
    106 CB        -5.8993  -18.7872  -50.4095 C.3       19 UNK        -0.1800 
    107 C         -6.1515  -18.8788  -52.9250 C.2       19 UNK         0.5000 
    108 O         -5.4697  -17.9865  -53.4293 O.2       19 UNK        -0.5000 
    109 N         -7.3381  -19.2709  -53.4093 N.am      20 UNK        -0.5000 
    110 CA        -7.9480  -18.7657  -54.6397 C.3       20 UNK         0.1400 
    111 CB        -9.4205  -19.2026  -54.6795 C.3       20 UNK        -0.1800 
    112 C         -7.2154  -19.2265  -55.9162 C.2       20 UNK         0.5000 
    113 O         -7.2832  -18.5305  -56.9302 O.2       20 UNK        -0.5000 
    114 N         -6.5378  -20.3801  -55.8469 N.am      21 UNK        -0.5000 
    115 CA        -5.7284  -20.9382  -56.9280 C.3       21 UNK         0.1400 
    116 CB        -6.0092  -22.4465  -57.0441 C.3       21 UNK        -0.1800 
    117 C         -4.2401  -20.6728  -56.6581 C.2       21 UNK         0.5000 
    118 O         -3.5545  -20.1006  -57.5058 O.2       21 UNK        -0.5000 
    119 N         -3.7849  -21.0780  -55.4669 N.am      22 UNK        -0.5000 
    120 CA        -2.4205  -20.9449  -54.9424 C.3       22 UNK         0.1400 
    121 C         -1.3193  -21.6822  -55.7680 C.2       22 UNK         0.5000 
    122 N         -1.6520  -22.7426  -56.4940 N.am      22 UNK        -0.7600 
    123 O         -0.1487  -21.3124  -55.7413 O.2       22 UNK        -0.5000 
    124 C124       -2.0688  -19.4731  -54.5719 C.3       23 UNK        -0.0398 
    125 S125       -1.5789  -19.3035  -52.8222 S.3       23 UNK        -0.2404 
    126 C126        0.2395  -19.3066  -52.9452 C.3       23 UNK        -0.0205 
    127 H127       -1.5488   -8.8713  -49.2190 H         1 UNK         0.0600 
    128 H128       -0.1063   -8.6033  -48.2363 H         1 UNK         0.0600 
    129 H129       -1.6484   -8.9691  -47.4575 H         1 UNK         0.0600 
    130 H130        1.2547  -10.3422  -48.2035 H         1 UNK         0.3000 
    131 H131        2.1674  -12.3034  -48.3223 H         1 UNK         0.0600 
    132 H132        0.7940  -12.6010  -50.4521 H         1 UNK         0.0800 
    133 H133       -0.3385  -13.5641  -49.5619 H         1 UNK         0.0800 
    134 H134       -0.2309  -15.8537  -49.2960 H         1 UNK         0.0800 
    135 H135        1.0000  -16.0817  -48.0797 H         1 UNK         0.0800 
    136 H136       -0.1527  -17.0772  -51.4469 H         1 UNK         0.1150 
    137 H137        2.1534  -20.6908  -51.5383 H         1 UNK         0.1150 
    138 H138        2.6700  -17.8854  -48.3329 H         1 UNK         0.1150 
    139 H139        4.3546  -20.4763  -50.1011 H         1 UNK         0.0800 
    140 H140        4.2245  -19.6825  -48.5562 H         1 UNK         0.0800 
    141 H141        1.9898  -20.1469  -47.1542 H         1 UNK         0.0800 
    142 H142        2.7990  -21.3784  -46.2260 H         1 UNK         0.0800 
    143 H143        1.0511  -23.0393  -46.8954 H         1 UNK         0.0600 
    144 H144        0.6447  -21.0014  -45.0226 H         1 UNK         0.3000 
    145 H145       -2.5356  -22.1166  -43.7936 H         1 UNK         0.0600 
    146 H146       -1.2473  -22.1572  -41.6790 H         1 UNK         0.0600 
    147 H147        0.2741  -22.1644  -42.5684 H         1 UNK         0.0600 
    148 H148       -0.8155  -23.5436  -42.6688 H         1 UNK         0.0600 
    149 H149       -0.8695  -19.9866  -42.9481 H         1 UNK         0.3000 
    150 H150       -2.1401  -17.4824  -45.2102 H         1 UNK         0.0600 
    151 H151       -3.6133  -17.5608  -43.2318 H         1 UNK         0.0600 
    152 H152       -2.3281  -16.3939  -42.9583 H         1 UNK         0.0600 
    153 H153       -2.2636  -17.9753  -42.1862 H         1 UNK         0.0600 
    154 H154       -0.0231  -17.4230  -43.2885 H         1 UNK         0.3000 
    155 H155        2.6250  -18.3445  -45.4826 H         1 UNK         0.0600 
    156 H156        2.2803  -15.9522  -45.9815 H         1 UNK         0.0600 
    157 H157        3.4865  -16.1402  -44.7216 H         1 UNK         0.0600 
    158 H158        1.8531  -15.6246  -44.3051 H         1 UNK         0.0600 
    159 H159        2.4080  -17.4778  -42.7237 H         1 UNK         0.3000 
    160 H160        2.2645  -20.8133  -41.3863 H         1 UNK         0.0600 
    161 H161        4.4975  -18.7103  -41.3876 H         1 UNK         0.0600 
    162 H162        4.6780  -20.3858  -41.8948 H         1 UNK         0.0600 
    163 H163        4.2992  -20.0174  -40.2198 H         1 UNK         0.0600 
    164 H164        2.4180  -18.2844  -40.1007 H         1 UNK         0.3000 
    165 H165       -0.9572  -17.3445  -40.1773 H         1 UNK         0.0600 
    166 H166       -0.9590  -17.6077  -37.7143 H         1 UNK         0.0600 
    167 H167       -1.1363  -19.1764  -38.4825 H         1 UNK         0.0600 
    168 H168        0.4169  -18.7091  -37.8004 H         1 UNK         0.0600 
    169 H169        1.0779  -16.4011  -38.5013 H         1 UNK         0.3000 
    170 H170        1.6087  -14.0739  -39.1529 H         1 UNK         0.0600 
    171 H171        4.0532  -15.7764  -39.8911 H         1 UNK         0.0600 
    172 H172        4.1230  -14.3045  -38.9241 H         1 UNK         0.0600 
    173 H173        3.2481  -15.7037  -38.3333 H         1 UNK         0.0600 
    174 H174        1.9947  -12.7342  -40.8537 H         1 UNK         0.3000 
    175 H175        3.7180  -11.6871  -42.3941 H         1 UNK         0.0600 
    176 H176        3.8827  -13.5780  -44.7930 H         1 UNK         0.0600 
    177 H177        4.2189  -11.8483  -44.8342 H         1 UNK         0.0600 
    178 H178        5.2359  -12.9207  -43.8844 H         1 UNK         0.0600 
    179 H179        1.6973  -12.4783  -44.3450 H         1 UNK         0.3000 
    180 H180       -1.0705  -11.2420  -42.5745 H         1 UNK         0.0600 
    181 H181       -1.3360   -9.4535  -44.2840 H         1 UNK         0.0600 
    182 H182        0.3801   -9.5456  -44.6814 H         1 UNK         0.0600 
    183 H183       -0.1324   -8.9841  -43.0945 H         1 UNK         0.0600 
    184 H184       -0.5493  -11.6894  -45.3806 H         1 UNK         0.3000 
    185 H185       -0.4954  -15.0894  -45.4576 H         1 UNK         0.0600 
    186 H186       -3.1426  -13.6874  -46.1064 H         1 UNK         0.0600 
    187 H187       -2.6039  -15.2484  -46.7282 H         1 UNK         0.0600 
    188 H188       -2.9762  -15.0615  -45.0222 H         1 UNK         0.0600 
    189 H189       -1.2106  -13.1851  -47.4839 H         1 UNK         0.3000 
    190 H190       -0.5778  -19.8486  -47.3558 H         1 UNK         0.3000 
    191 H191       -1.3862  -20.2826  -50.0254 H         1 UNK         0.0600 
    192 H192       -2.7429  -18.5640  -47.8733 H         1 UNK         0.0600 
    193 H193       -2.9298  -18.3960  -49.6168 H         1 UNK         0.0600 
    194 H194       -1.3813  -18.0585  -48.8613 H         1 UNK         0.0600 
    195 H195       -3.1890  -20.8375  -46.9587 H         1 UNK         0.3000 
    196 H196       -5.5917  -21.6372  -48.2217 H         1 UNK         0.0600 
    197 H197       -5.5136  -20.6664  -45.9561 H         1 UNK         0.0600 
    198 H198       -4.6279  -22.0646  -45.3493 H         1 UNK         0.0600 
    199 H199       -6.2891  -22.2421  -45.9028 H         1 UNK         0.0600 
    200 H200       -2.9477  -23.6571  -46.8065 H         1 UNK         0.3000 
    201 H201       -4.5089  -26.1105  -47.5203 H         1 UNK         0.0600 
    202 H202       -4.1140  -25.7634  -45.1020 H         1 UNK         0.0600 
    203 H203       -2.3748  -25.6968  -45.3706 H         1 UNK         0.0600 
    204 H204       -3.2604  -27.1786  -45.6969 H         1 UNK         0.0600 
    205 H205       -1.0784  -24.9416  -47.3388 H         1 UNK         0.3000 
    206 H206       -0.0613  -27.2890  -48.5701 H         1 UNK         0.0600 
    207 H207        2.0824  -26.2011  -48.5171 H         1 UNK         0.0600 
    208 H208        1.3779  -24.6001  -48.4741 H         1 UNK         0.0600 
    209 H209        1.2351  -25.6688  -47.0726 H         1 UNK         0.0600 
    210 H210       -0.8593  -24.1029  -49.9303 H         1 UNK         0.3000 
    211 H211       -0.2260  -24.9002  -52.6829 H         1 UNK         0.0600 
    212 H212       -1.4622  -22.3011  -51.6651 H         1 UNK         0.0600 
    213 H213       -0.6009  -22.5851  -53.1761 H         1 UNK         0.0600 
    214 H214        0.2724  -22.6069  -51.6622 H         1 UNK         0.0600 
    215 H215       -2.4462  -26.1955  -51.0678 H         1 UNK         0.3000 
    216 H216       -4.2528  -27.3221  -51.4524 H         1 UNK         0.0600 
    217 H217       -5.2598  -27.5618  -53.6861 H         1 UNK         0.0600 
    218 H218       -3.5079  -27.6304  -53.8002 H         1 UNK         0.0600 
    219 H219       -4.3718  -26.1720  -54.2867 H         1 UNK         0.0600 
    220 H220       -4.7204  -24.0091  -52.7400 H         1 UNK         0.3000 
    221 H221       -6.7102  -23.3447  -50.8076 H         1 UNK         0.0600 
    222 H222       -7.6771  -23.7392  -53.7085 H         1 UNK         0.0600 
    223 H223       -8.2623  -24.6260  -52.3024 H         1 UNK         0.0600 
    224 H224       -8.5880  -22.9091  -52.4521 H         1 UNK         0.0600 
    225 H225       -6.6753  -21.1261  -50.6182 H         1 UNK         0.3000 
    226 H226       -4.5527  -19.7243  -51.7920 H         1 UNK         0.0600 
    227 H227       -5.4669  -19.2589  -49.5272 H         1 UNK         0.0600 
    228 H228       -5.4561  -17.7941  -50.4939 H         1 UNK         0.0600 
    229 H229       -6.9673  -18.6568  -50.2316 H         1 UNK         0.0600 
    230 H230       -7.8327  -20.0031  -52.9219 H         1 UNK         0.3000 
    231 H231       -7.9148  -17.6744  -54.6150 H         1 UNK         0.0600 
    232 H232       -9.9171  -18.8209  -55.5725 H         1 UNK         0.0600 
    233 H233       -9.9687  -18.8226  -53.8172 H         1 UNK         0.0600 
    234 H234       -9.5180  -20.2890  -54.6888 H         1 UNK         0.0600 
    235 H235       -6.4817  -20.8553  -54.9545 H         1 UNK         0.3000 
    236 H236       -5.9869  -20.4750  -57.8826 H         1 UNK         0.0600 
    237 H237       -5.7996  -22.9754  -56.1132 H         1 UNK         0.0600 
    238 H238       -7.0523  -22.6303  -57.3016 H         1 UNK         0.0600 
    239 H239       -5.3971  -22.8985  -57.8255 H         1 UNK         0.0600 
    240 H240       -4.4362  -21.5145  -54.8161 H         1 UNK         0.3000 
    241 H241       -2.4734  -21.5173  -54.0173 H         1 UNK         0.0600 
    242 H242       -0.9436  -23.2250  -57.0236 H         1 UNK         0.3800 
    243 H243       -2.5999  -23.0834  -56.4915 H         1 UNK         0.3800 
    244 H244       -1.3052  -19.0489  -55.2254 H         1 UNK         0.0800 
    245 H245       -2.9381  -18.8272  -54.7046 H         1 UNK         0.0800 
    246 H246        0.5545  -18.5911  -53.7056 H         1 UNK         0.0800 
    247 H247        0.5708  -20.2893  -53.2830 H         1 UNK         0.0800 
@<TRIPOS>BOND
     1    1    2 1    
     2    1  127 1    
     3    1  128 1    
     4    1  129 1    
     5    2    3 2    
     6    2    4 am   BACKBONE|DICT|INTERRES
     7    4    5 1    
     8    4  130 1    
     9    5    6 1    
    10    5   65 1    
    11    5  131 1    
    12    6    7 1    
    13    6  132 1    
    14    6  133 1    
    15    7    8 1    
    16    8    9 1    
    17    8  134 1    
    18    8  135 1    
    19    9   10 ar   
    20    9   14 ar   
    21   10   11 ar   
    22   10  136 1    
    23   11   12 ar   
    24   11  126 1    
    25   12   13 ar   
    26   12  137 1    
    27   13   14 ar   
    28   13   15 1    
    29   14  138 1    
    30   15   16 1    
    31   15  139 1    
    32   15  140 1    
    33   16   17 1    
    34   17   18 1    
    35   17  141 1    
    36   17  142 1    
    37   18   19 1    
    38   18   67 1    
    39   18  143 1    
    40   19   20 am   BACKBONE|DICT|INTERRES
    41   19  144 1    
    42   20   21 2    
    43   20   22 1    
    44   22   23 1    
    45   22   24 1    
    46   22  145 1    
    47   23  146 1    
    48   23  147 1    
    49   23  148 1    
    50   24   25 am   BACKBONE|DICT|INTERRES
    51   24  149 1    
    52   25   26 2    
    53   25   27 1    
    54   27   28 1    
    55   27   29 1    
    56   27  150 1    
    57   28  151 1    
    58   28  152 1    
    59   28  153 1    
    60   29   30 am   BACKBONE|DICT|INTERRES
    61   29  154 1    
    62   30   31 2    
    63   30   32 1    
    64   32   33 1    
    65   32   34 1    
    66   32  155 1    
    67   33  156 1    
    68   33  157 1    
    69   33  158 1    
    70   34   35 am   BACKBONE|DICT|INTERRES
    71   34  159 1    
    72   35   36 2    
    73   35   37 1    
    74   37   38 1    
    75   37   39 1    
    76   37  160 1    
    77   38  161 1    
    78   38  162 1    
    79   38  163 1    
    80   39   40 am   BACKBONE|DICT|INTERRES
    81   39  164 1    
    82   40   41 2    
    83   40   42 1    
    84   42   43 1    
    85   42   44 1    
    86   42  165 1    
    87   43  166 1    
    88   43  167 1    
    89   43  168 1    
    90   44   45 am   BACKBONE|DICT|INTERRES
    91   44  169 1    
    92   45   46 2    
    93   45   47 1    
    94   47   48 1    
    95   47   49 1    
    96   47  170 1    
    97   48  171 1    
    98   48  172 1    
    99   48  173 1    
   100   49   50 am   BACKBONE|DICT|INTERRES
   101   49  174 1    
   102   50   51 2    
   103   50   52 1    
   104   52   53 1    
   105   52   54 1    
   106   52  175 1    
   107   53  176 1    
   108   53  177 1    
   109   53  178 1    
   110   54   55 am   BACKBONE|DICT|INTERRES
   111   54  179 1    
   112   55   56 2    
   113   55   57 1    
   114   57   58 1    
   115   57   59 1    
   116   57  180 1    
   117   58  181 1    
   118   58  182 1    
   119   58  183 1    
   120   59   60 am   BACKBONE|DICT|INTERRES
   121   59  184 1    
   122   60   61 2    
   123   60   62 1    
   124   62   63 1    
   125   62   64 1    
   126   62  185 1    
   127   63  186 1    
   128   63  187 1    
   129   63  188 1    
   130   64   65 am   BACKBONE|DICT|INTERRES
   131   64  189 1    
   132   65   66 2    
   133   67   68 2    
   134   67   69 am   BACKBONE|DICT|INTERRES
   135   69   70 1    
   136   69  190 1    
   137   70   71 1    
   138   70   72 1    
   139   70  191 1    
   140   71  192 1    
   141   71  193 1    
   142   71  194 1    
   143   72   73 2    
   144   72   74 am   BACKBONE|DICT|INTERRES
   145   74   75 1    
   146   74  195 1    
   147   75   76 1    
   148   75   77 1    
   149   75  196 1    
   150   76  197 1    
   151   76  198 1    
   152   76  199 1    
   153   77   78 2    
   154   77   79 am   BACKBONE|DICT|INTERRES
   155   79   80 1    
   156   79  200 1    
   157   80   81 1    
   158   80   82 1    
   159   80  201 1    
   160   81  202 1    
   161   81  203 1    
   162   81  204 1    
   163   82   83 2    
   164   82   84 am   BACKBONE|DICT|INTERRES
   165   84   85 1    
   166   84  205 1    
   167   85   86 1    
   168   85   87 1    
   169   85  206 1    
   170   86  207 1    
   171   86  208 1    
   172   86  209 1    
   173   87   88 2    
   174   87   89 am   BACKBONE|DICT|INTERRES
   175   89   90 1    
   176   89  210 1    
   177   90   91 1    
   178   90   92 1    
   179   90  211 1    
   180   91  212 1    
   181   91  213 1    
   182   91  214 1    
   183   92   93 2    
   184   92   94 am   BACKBONE|DICT|INTERRES
   185   94   95 1    
   186   94  215 1    
   187   95   96 1    
   188   95   97 1    
   189   95  216 1    
   190   96  217 1    
   191   96  218 1    
   192   96  219 1    
   193   97   98 2    
   194   97   99 am   BACKBONE|DICT|INTERRES
   195   99  100 1    
   196   99  220 1    
   197  100  101 1    
   198  100  102 1    
   199  100  221 1    
   200  101  222 1    
   201  101  223 1    
   202  101  224 1    
   203  102  103 2    
   204  102  104 am   BACKBONE|DICT|INTERRES
   205  104  105 1    
   206  104  225 1    
   207  105  106 1    
   208  105  107 1    
   209  105  226 1    
   210  106  227 1    
   211  106  228 1    
   212  106  229 1    
   213  107  108 2    
   214  107  109 am   BACKBONE|DICT|INTERRES
   215  109  110 1    
   216  109  230 1    
   217  110  111 1    
   218  110  112 1    
   219  110  231 1    
   220  111  232 1    
   221  111  233 1    
   222  111  234 1    
   223  112  113 2    
   224  112  114 am   BACKBONE|DICT|INTERRES
   225  114  115 1    
   226  114  235 1    
   227  115  116 1    
   228  115  117 1    
   229  115  236 1    
   230  116  237 1    
   231  116  238 1    
   232  116  239 1    
   233  117  118 2    
   234  117  119 am   BACKBONE|DICT|INTERRES
   235  119  120 1    
   236  119  240 1    
   237  120  121 1    
   238  120  124 1    
   239  120  241 1    
   240  121  122 am   BACKBONE|DICT|INTERRES
   241  121  123 2    
   242  122  242 1    
   243  122  243 1    
   244  124  125 1    
   245  124  244 1    
   246  124  245 1    
   247  125  126 1    
   248  126  246 1    
   249  126  247 1    
@<TRIPOS>SUBSTRUCTURE
     1 UNK         1 GROUP             0       ****    0 ROOT    
