@<TRIPOS>MOLECULE
3R540
247   249    1
SMALL
USER_CHARGES


@<TRIPOS>ATOM
      1 CA         -5.9350  -15.3796  -49.7823 C.3       0 UNK        -0.1800 
      2 C          -4.7968  -14.5011  -49.2809 C.2       0 UNK         0.5000 
      3 O          -4.5745  -13.4166  -49.8194 O.2       0 UNK        -0.5000 
      4 N          -4.0847  -14.9608  -48.2493 N.am      1 UNK        -0.5000 
      5 CA         -3.0086  -14.2435  -47.5709 C.3       1 UNK         0.1400 
      6 C6         -1.6193  -14.4131  -48.2451 C.3       23 UNK        -0.0398 
      7 S7         -1.1084  -16.1305  -48.6157 S.3       23 UNK        -0.2404 
      8 C8          0.4564  -15.8003  -49.4904 C.3       23 UNK        -0.0205 
      9 C9          1.1146  -17.0693  -50.0178 C.ar      23 UNK        -0.0193 
     10 C10         1.1816  -17.3190  -51.3932 C.ar      23 UNK        -0.1150 
     11 C11         1.8315  -18.4599  -51.8772 C.ar      23 UNK        -0.0193 
     12 C12         2.3895  -19.3700  -50.9743 C.ar      23 UNK        -0.1150 
     13 C13         2.3170  -19.1406  -49.5986 C.ar      23 UNK        -0.0193 
     14 C14         1.6968  -17.9782  -49.1301 C.ar      23 UNK        -0.1150 
     15 C15         2.8981  -20.1518  -48.6178 C.3       23 UNK        -0.0205 
     16 S16         1.7630  -21.5490  -48.3190 S.3       23 UNK        -0.2404 
     17 C17         0.2990  -20.6549  -47.7126 C.3       23 UNK        -0.0398 
     18 CA         -0.8266  -21.5677  -47.1845 C.3       11 UNK         0.1400 
     19 N          -0.4202  -22.3861  -46.0394 N.am      11 UNK        -0.5000 
     20 C          -1.1817  -23.3395  -45.4816 C.2       10 UNK         0.5000 
     21 O          -2.2905  -23.6640  -45.9036 O.2       10 UNK        -0.5000 
     22 CA         -0.6385  -24.0001  -44.2028 C.3       10 UNK         0.1400 
     23 CB          0.2894  -25.1727  -44.5520 C.3       10 UNK        -0.1800 
     24 N           0.0755  -23.0624  -43.3359 N.am      10 UNK        -0.5000 
     25 C          -0.4396  -21.9600  -42.7787 C.2       9 UNK         0.5000 
     26 O          -1.6121  -21.6127  -42.9268 O.2       9 UNK        -0.5000 
     27 CA          0.5145  -21.0678  -41.9603 C.3       9 UNK         0.1400 
     28 CB          0.5554  -21.5030  -40.4847 C.3       9 UNK        -0.1800 
     29 N           1.8688  -20.9318  -42.5185 N.am      9 UNK        -0.5000 
     30 C           2.8401  -21.8508  -42.6530 C.2       8 UNK         0.5000 
     31 O           2.7100  -23.0340  -42.3378 O.2       8 UNK        -0.5000 
     32 CA          4.1745  -21.3890  -43.2777 C.3       8 UNK         0.1400 
     33 CB          4.2192  -21.7760  -44.7650 C.3       8 UNK        -0.1800 
     34 N           4.4096  -19.9493  -43.1622 N.am      8 UNK        -0.5000 
     35 C           4.6020  -19.2838  -42.0149 C.2       7 UNK         0.5000 
     36 O           4.7493  -19.8373  -40.9247 O.2       7 UNK        -0.5000 
     37 CA          4.6027  -17.7411  -42.0863 C.3       7 UNK         0.1400 
     38 CB          6.0326  -17.1964  -41.9476 C.3       7 UNK        -0.1800 
     39 N           3.9950  -17.1576  -43.2897 N.am      7 UNK        -0.5000 
     40 C           2.7465  -17.3573  -43.7324 C.2       6 UNK         0.5000 
     41 O           1.9616  -18.1642  -43.2318 O.2       6 UNK        -0.5000 
     42 CA          2.3111  -16.5005  -44.9333 C.3       6 UNK         0.1400 
     43 CB          0.9628  -16.9541  -45.5128 C.3       6 UNK        -0.1800 
     44 N           2.1906  -15.1004  -44.5452 N.am      6 UNK        -0.5000 
     45 C           3.1949  -14.2239  -44.4269 C.2       5 UNK         0.5000 
     46 O           4.3727  -14.4982  -44.6612 O.2       5 UNK        -0.5000 
     47 CA          2.8134  -12.8220  -43.9283 C.3       5 UNK         0.1400 
     48 CB          2.0647  -12.0387  -45.0193 C.3       5 UNK        -0.1800 
     49 N           1.9664  -12.9275  -42.7414 N.am      5 UNK        -0.5000 
     50 C           2.4057  -12.8404  -41.4781 C.2       4 UNK         0.5000 
     51 O           3.5665  -12.5651  -41.1725 O.2       4 UNK        -0.5000 
     52 CA          1.3772  -13.1184  -40.3622 C.3       4 UNK         0.1400 
     53 CB          0.6824  -11.8169  -39.9338 C.3       4 UNK        -0.1800 
     54 N           0.3601  -14.0932  -40.7586 N.am      4 UNK        -0.5000 
     55 C           0.5967  -15.3924  -40.9887 C.2       3 UNK         0.5000 
     56 O           1.6778  -15.9330  -40.7592 O.2       3 UNK        -0.5000 
     57 CA         -0.5554  -16.2236  -41.5941 C.3       3 UNK         0.1400 
     58 CB         -1.1612  -17.1603  -40.5379 C.3       3 UNK        -0.1800 
     59 N          -1.6308  -15.4315  -42.2062 N.am      3 UNK        -0.5000 
     60 C          -1.4936  -14.6260  -43.2680 C.2       2 UNK         0.5000 
     61 O          -0.4143  -14.3891  -43.8147 O.2       2 UNK        -0.5000 
     62 CA         -2.7585  -13.9008  -43.7480 C.3       2 UNK         0.1400 
     63 CB         -2.8672  -12.5291  -43.0642 C.3       2 UNK        -0.1800 
     64 N          -2.7410  -13.7061  -45.1970 N.am      2 UNK        -0.5000 
     65 C          -3.0328  -14.6589  -46.0907 C.2       1 UNK         0.5000 
     66 O          -3.3600  -15.8081  -45.7849 O.2       1 UNK        -0.5000 
     67 C          -2.0521  -20.6980  -46.8528 C.2       11 UNK         0.5000 
     68 O          -2.9741  -20.6332  -47.6629 O.2       11 UNK        -0.5000 
     69 N          -2.0444  -20.0613  -45.6721 N.am      12 UNK        -0.5000 
     70 CA         -3.1249  -19.2001  -45.1900 C.3       12 UNK         0.1400 
     71 CB         -2.6676  -18.4388  -43.9365 C.3       12 UNK        -0.1800 
     72 C          -4.4099  -19.9939  -44.9113 C.2       12 UNK         0.5000 
     73 O          -5.4897  -19.5691  -45.3235 O.2       12 UNK        -0.5000 
     74 N          -4.2584  -21.1663  -44.2782 N.am      13 UNK        -0.5000 
     75 CA         -5.3355  -22.1278  -44.0288 C.3       13 UNK         0.1400 
     76 CB         -4.7913  -23.2810  -43.1725 C.3       13 UNK        -0.1800 
     77 C          -5.9776  -22.6659  -45.3242 C.2       13 UNK         0.5000 
     78 O          -7.1849  -22.9055  -45.3528 O.2       13 UNK        -0.5000 
     79 N          -5.1635  -22.8064  -46.3774 N.am      14 UNK        -0.5000 
     80 CA         -5.5658  -23.2216  -47.7197 C.3       14 UNK         0.1400 
     81 CB         -4.4400  -24.0819  -48.3151 C.3       14 UNK        -0.1800 
     82 C          -5.9257  -22.0382  -48.6457 C.2       14 UNK         0.5000 
     83 O          -6.0491  -22.2513  -49.8520 O.2       14 UNK        -0.5000 
     84 N          -6.0806  -20.8249  -48.0904 N.am      15 UNK        -0.5000 
     85 CA         -6.4848  -19.5822  -48.7613 C.3       15 UNK         0.1400 
     86 CB         -7.9607  -19.6668  -49.2023 C.3       15 UNK        -0.1800 
     87 C          -5.5345  -19.1707  -49.9067 C.2       15 UNK         0.5000 
     88 O          -5.9695  -18.9959  -51.0457 O.2       15 UNK        -0.5000 
     89 N          -4.2456  -19.0443  -49.5640 N.am      16 UNK        -0.5000 
     90 CA         -3.0977  -18.8189  -50.4504 C.3       16 UNK         0.1400 
     91 CB         -3.2062  -17.4875  -51.2223 C.3       16 UNK        -0.1800 
     92 C          -2.8415  -20.0306  -51.3641 C.2       16 UNK         0.5000 
     93 O          -2.5548  -19.8588  -52.5481 O.2       16 UNK        -0.5000 
     94 N          -2.9717  -21.2356  -50.7834 N.am      17 UNK        -0.5000 
     95 CA         -2.8184  -22.5448  -51.4279 C.3       17 UNK         0.1400 
     96 CB         -1.3280  -22.8227  -51.7125 C.3       17 UNK        -0.1800 
     97 C          -3.7074  -22.6816  -52.6810 C.2       17 UNK         0.5000 
     98 O          -3.2001  -22.9528  -53.7692 O.2       17 UNK        -0.5000 
     99 N          -5.0163  -22.4469  -52.5077 N.am      18 UNK        -0.5000 
    100 CA        -6.0179  -22.2230  -53.5588 C.3       18 UNK         0.1400 
    101 CB        -7.3887  -22.0134  -52.8981 C.3       18 UNK        -0.1800 
    102 C         -6.1163  -23.2954  -54.6633 C.2       18 UNK         0.5000 
    103 O         -6.5626  -22.9774  -55.7660 O.2       18 UNK        -0.5000 
    104 N         -5.6846  -24.5295  -54.3695 N.am      19 UNK        -0.5000 
    105 CA        -5.5638  -25.6217  -55.3383 C.3       19 UNK         0.1400 
    106 CB        -5.2784  -26.9294  -54.5843 C.3       19 UNK        -0.1800 
    107 C         -4.4821  -25.3698  -56.4111 C.2       19 UNK         0.5000 
    108 O         -4.6333  -25.8385  -57.5402 O.2       19 UNK        -0.5000 
    109 N         -3.4242  -24.6349  -56.0438 N.am      20 UNK        -0.5000 
    110 CA        -2.3404  -24.2072  -56.9290 C.3       20 UNK         0.1400 
    111 CB        -0.9960  -24.4839  -56.2369 C.3       20 UNK        -0.1800 
    112 C         -2.4527  -22.7122  -57.2768 C.2       20 UNK         0.5000 
    113 O         -2.0228  -22.3114  -58.3586 O.2       20 UNK        -0.5000 
    114 N         -2.9939  -21.9118  -56.3468 N.am      21 UNK        -0.5000 
    115 CA        -3.2098  -20.4581  -56.3605 C.3       21 UNK         0.1400 
    116 CB        -4.0990  -20.0286  -57.5423 C.3       21 UNK        -0.1800 
    117 C         -1.9210  -19.6135  -56.2823 C.2       21 UNK         0.5000 
    118 O         -1.9465  -18.5542  -55.6573 O.2       21 UNK        -0.5000 
    119 N         -0.8373  -20.0984  -56.9040 N.am      22 UNK        -0.5000 
    120 CA         0.5655  -19.6446  -56.8306 C.3       22 UNK         0.1400 
    121 C          0.8695  -18.1324  -57.0737 C.2       22 UNK         0.5000 
    122 N         -0.0353  -17.3590  -57.6588 N.am      22 UNK        -0.7600 
    123 O          1.9647  -17.6592  -56.7815 O.2       22 UNK        -0.5000 
    124 C124        1.3428  -20.2741  -55.6368 C.3       23 UNK        -0.0398 
    125 S125        0.7172  -19.8900  -53.9632 S.3       23 UNK        -0.2404 
    126 C126        1.9613  -18.7047  -53.3729 C.3       23 UNK        -0.0205 
    127 H127       -6.0715  -16.2599  -49.1544 H         1 UNK         0.0600 
    128 H128       -6.8696  -14.8189  -49.7851 H         1 UNK         0.0600 
    129 H129       -5.7346  -15.7145  -50.8000 H         1 UNK         0.0600 
    130 H130       -4.3117  -15.8450  -47.8127 H         1 UNK         0.3000 
    131 H131       -3.2541  -13.1792  -47.5918 H         1 UNK         0.0600 
    132 H132       -0.8441  -13.9428  -47.6374 H         1 UNK         0.0800 
    133 H133       -1.6257  -13.8644  -49.1878 H         1 UNK         0.0800 
    134 H134        1.1462  -15.2948  -48.8129 H         1 UNK         0.0800 
    135 H135        0.2660  -15.1059  -50.3102 H         1 UNK         0.0800 
    136 H136        0.7451  -16.6169  -52.0896 H         1 UNK         0.1150 
    137 H137        2.8762  -20.2619  -51.3438 H         1 UNK         0.1150 
    138 H138        1.6520  -17.7866  -48.0698 H         1 UNK         0.1150 
    139 H139        3.8415  -20.5388  -49.0057 H         1 UNK         0.0800 
    140 H140        3.1352  -19.6700  -47.6679 H         1 UNK         0.0800 
    141 H141        0.6211  -19.9585  -46.9385 H         1 UNK         0.0800 
    142 H142       -0.0796  -20.0513  -48.5400 H         1 UNK         0.0800 
    143 H143       -1.1172  -22.2477  -47.9886 H         1 UNK         0.0600 
    144 H144        0.4867  -22.1959  -45.6408 H         1 UNK         0.3000 
    145 H145       -1.4905  -24.3888  -43.6418 H         1 UNK         0.0600 
    146 H146        0.6160  -25.6972  -43.6539 H         1 UNK         0.0600 
    147 H147       -0.2208  -25.8995  -45.1855 H         1 UNK         0.0600 
    148 H148        1.1793  -24.8369  -45.0860 H         1 UNK         0.0600 
    149 H149        1.0461  -23.2755  -43.1206 H         1 UNK         0.3000 
    150 H150        0.0911  -20.0622  -41.9888 H         1 UNK         0.0600 
    151 H151       -0.4447  -21.4934  -40.0497 H         1 UNK         0.0600 
    152 H152        1.1738  -20.8274  -39.8935 H         1 UNK         0.0600 
    153 H153        0.9519  -22.5117  -40.3666 H         1 UNK         0.0600 
    154 H154        2.0791  -19.9861  -42.8315 H         1 UNK         0.3000 
    155 H155        4.9813  -21.9097  -42.7579 H         1 UNK         0.0600 
    156 H156        4.0764  -22.8497  -44.8952 H         1 UNK         0.0600 
    157 H157        5.1812  -21.5224  -45.2108 H         1 UNK         0.0600 
    158 H158        3.4400  -21.2706  -45.3374 H         1 UNK         0.0600 
    159 H159        4.3118  -19.4063  -44.0066 H         1 UNK         0.3000 
    160 H160        4.0205  -17.3883  -41.2330 H         1 UNK         0.0600 
    161 H161        6.6553  -17.4854  -42.7951 H         1 UNK         0.0600 
    162 H162        6.5115  -17.5742  -41.0432 H         1 UNK         0.0600 
    163 H163        6.0353  -16.1080  -41.8835 H         1 UNK         0.0600 
    164 H164        4.5370  -16.4398  -43.7569 H         1 UNK         0.3000 
    165 H165        3.0676  -16.5997  -45.7145 H         1 UNK         0.0600 
    166 H166        0.1564  -16.8443  -44.7906 H         1 UNK         0.0600 
    167 H167        0.7001  -16.3624  -46.3872 H         1 UNK         0.0600 
    168 H168        0.9932  -18.0004  -45.8113 H         1 UNK         0.0600 
    169 H169        1.2489  -14.7951  -44.3069 H         1 UNK         0.3000 
    170 H170        3.7329  -12.2813  -43.6944 H         1 UNK         0.0600 
    171 H171        2.6698  -11.9534  -45.9227 H         1 UNK         0.0600 
    172 H172        1.1258  -12.5198  -45.2964 H         1 UNK         0.0600 
    173 H173        1.8340  -11.0269  -44.6857 H         1 UNK         0.0600 
    174 H174        1.0077  -13.2121  -42.9032 H         1 UNK         0.3000 
    175 H175        1.9182  -13.5185  -39.5020 H         1 UNK         0.0600 
    176 H176        0.1071  -11.3791  -40.7507 H         1 UNK         0.0600 
    177 H177        0.0035  -11.9884  -39.0983 H         1 UNK         0.0600 
    178 H178        1.4122  -11.0732  -39.6108 H         1 UNK         0.0600 
    179 H179       -0.5636  -13.7358  -40.9500 H         1 UNK         0.3000 
    180 H180       -0.1224  -16.8428  -42.3797 H         1 UNK         0.0600 
    181 H181       -0.3949  -17.8013  -40.0993 H         1 UNK         0.0600 
    182 H182       -1.6278  -16.6017  -39.7257 H         1 UNK         0.0600 
    183 H183       -1.9156  -17.8148  -40.9741 H         1 UNK         0.0600 
    184 H184       -2.5467  -15.5406  -41.7950 H         1 UNK         0.3000 
    185 H185       -3.6344  -14.4962  -43.4807 H         1 UNK         0.0600 
    186 H186       -2.9167  -12.6333  -41.9795 H         1 UNK         0.0600 
    187 H187       -2.0106  -11.8937  -43.2941 H         1 UNK         0.0600 
    188 H188       -3.7686  -12.0026  -43.3786 H         1 UNK         0.0600 
    189 H189       -2.4537  -12.7938  -45.5194 H         1 UNK         0.3000 
    190 H190       -1.2782  -20.2191  -45.0352 H         1 UNK         0.3000 
    191 H191       -3.3460  -18.4711  -45.9720 H         1 UNK         0.0600 
    192 H192       -3.4515  -17.7677  -43.5835 H         1 UNK         0.0600 
    193 H193       -1.7946  -17.8251  -44.1488 H         1 UNK         0.0600 
    194 H194       -2.4164  -19.1097  -43.1157 H         1 UNK         0.0600 
    195 H195       -3.3324  -21.4208  -43.9474 H         1 UNK         0.3000 
    196 H196       -6.1140  -21.6150  -43.4605 H         1 UNK         0.0600 
    197 H197       -5.5805  -23.9936  -42.9299 H         1 UNK         0.0600 
    198 H198       -4.3816  -22.9145  -42.2310 H         1 UNK         0.0600 
    199 H199       -4.0024  -23.8276  -43.6898 H         1 UNK         0.0600 
    200 H200       -4.1740  -22.6320  -46.2463 H         1 UNK         0.3000 
    201 H201       -6.4580  -23.8471  -47.6518 H         1 UNK         0.0600 
    202 H202       -4.2260  -24.9406  -47.6785 H         1 UNK         0.0600 
    203 H203       -3.5169  -23.5113  -48.4198 H         1 UNK         0.0600 
    204 H204       -4.7126  -24.4716  -49.2963 H         1 UNK         0.0600 
    205 H205       -5.9081  -20.7370  -47.0961 H         1 UNK         0.3000 
    206 H206       -6.4152  -18.7939  -48.0102 H         1 UNK         0.0600 
    207 H207       -8.6108  -19.8922  -48.3569 H         1 UNK         0.0600 
    208 H208       -8.2965  -18.7197  -49.6262 H         1 UNK         0.0600 
    209 H209       -8.1161  -20.4371  -49.9580 H         1 UNK         0.0600 
    210 H210       -3.9882  -19.3299  -48.6236 H         1 UNK         0.3000 
    211 H211       -2.2242  -18.7456  -49.8010 H         1 UNK         0.0600 
    212 H212       -4.0212  -17.4944  -51.9459 H         1 UNK         0.0600 
    213 H213       -2.2857  -17.2842  -51.7711 H         1 UNK         0.0600 
    214 H214       -3.3613  -16.6529  -50.5435 H         1 UNK         0.0600 
    215 H215       -3.2374  -21.2480  -49.8069 H         1 UNK         0.3000 
    216 H216       -3.1641  -23.2970  -50.7218 H         1 UNK         0.0600 
    217 H217       -0.9163  -22.1178  -52.4358 H         1 UNK         0.0600 
    218 H218       -1.1873  -23.8254  -52.1176 H         1 UNK         0.0600 
    219 H219       -0.7322  -22.7519  -50.8023 H         1 UNK         0.0600 
    220 H220       -5.3442  -22.2698  -51.5596 H         1 UNK         0.3000 
    221 H221       -5.7407  -21.2912  -54.0553 H         1 UNK         0.0600 
    222 H222       -7.6905  -22.8860  -52.3175 H         1 UNK         0.0600 
    223 H223       -7.3724  -21.1547  -52.2270 H         1 UNK         0.0600 
    224 H224       -8.1635  -21.8263  -53.6427 H         1 UNK         0.0600 
    225 H225       -5.3359  -24.7025  -53.4384 H         1 UNK         0.3000 
    226 H226       -6.5215  -25.7256  -55.8526 H         1 UNK         0.0600 
    227 H227       -6.0747  -27.1586  -53.8759 H         1 UNK         0.0600 
    228 H228       -5.2072  -27.7707  -55.2750 H         1 UNK         0.0600 
    229 H229       -4.3396  -26.8783  -54.0312 H         1 UNK         0.0600 
    230 H230       -3.4022  -24.2538  -55.1020 H         1 UNK         0.3000 
    231 H231       -2.3649  -24.7695  -57.8645 H         1 UNK         0.0600 
    232 H232       -0.9070  -23.9395  -55.2955 H         1 UNK         0.0600 
    233 H233       -0.8764  -25.5458  -56.0217 H         1 UNK         0.0600 
    234 H234       -0.1604  -24.1839  -56.8705 H         1 UNK         0.0600 
    235 H235       -3.1926  -22.3405  -55.4452 H         1 UNK         0.3000 
    236 H236       -3.7636  -20.2478  -55.4438 H         1 UNK         0.0600 
    237 H237       -5.0337  -20.5897  -57.5545 H         1 UNK         0.0600 
    238 H238       -4.3550  -18.9710  -57.4693 H         1 UNK         0.0600 
    239 H239       -3.6041  -20.1768  -58.5022 H         1 UNK         0.0600 
    240 H240       -0.9899  -20.9346  -57.4581 H         1 UNK         0.3000 
    241 H241        1.0079  -20.1005  -57.7170 H         1 UNK         0.0600 
    242 H242        0.1742  -16.3880  -57.8284 H         1 UNK         0.3800 
    243 H243       -0.9520  -17.7212  -57.8674 H         1 UNK         0.3800 
    244 H244        2.4038  -20.0281  -55.6987 H         1 UNK         0.0800 
    245 H245        1.3056  -21.3596  -55.7360 H         1 UNK         0.0800 
    246 H246        2.9618  -19.0828  -53.5878 H         1 UNK         0.0800 
    247 H247        1.8582  -17.7698  -53.9258 H         1 UNK         0.0800 
@<TRIPOS>BOND
     1    1    2 1    
     2    1  127 1    
     3    1  128 1    
     4    1  129 1    
     5    2    3 2    
     6    2    4 am   BACKBONE|DICT|INTERRES
     7    4    5 1    
     8    4  130 1    
     9    5    6 1    
    10    5   65 1    
    11    5  131 1    
    12    6    7 1    
    13    6  132 1    
    14    6  133 1    
    15    7    8 1    
    16    8    9 1    
    17    8  134 1    
    18    8  135 1    
    19    9   10 ar   
    20    9   14 ar   
    21   10   11 ar   
    22   10  136 1    
    23   11   12 ar   
    24   11  126 1    
    25   12   13 ar   
    26   12  137 1    
    27   13   14 ar   
    28   13   15 1    
    29   14  138 1    
    30   15   16 1    
    31   15  139 1    
    32   15  140 1    
    33   16   17 1    
    34   17   18 1    
    35   17  141 1    
    36   17  142 1    
    37   18   19 1    
    38   18   67 1    
    39   18  143 1    
    40   19   20 am   BACKBONE|DICT|INTERRES
    41   19  144 1    
    42   20   21 2    
    43   20   22 1    
    44   22   23 1    
    45   22   24 1    
    46   22  145 1    
    47   23  146 1    
    48   23  147 1    
    49   23  148 1    
    50   24   25 am   BACKBONE|DICT|INTERRES
    51   24  149 1    
    52   25   26 2    
    53   25   27 1    
    54   27   28 1    
    55   27   29 1    
    56   27  150 1    
    57   28  151 1    
    58   28  152 1    
    59   28  153 1    
    60   29   30 am   BACKBONE|DICT|INTERRES
    61   29  154 1    
    62   30   31 2    
    63   30   32 1    
    64   32   33 1    
    65   32   34 1    
    66   32  155 1    
    67   33  156 1    
    68   33  157 1    
    69   33  158 1    
    70   34   35 am   BACKBONE|DICT|INTERRES
    71   34  159 1    
    72   35   36 2    
    73   35   37 1    
    74   37   38 1    
    75   37   39 1    
    76   37  160 1    
    77   38  161 1    
    78   38  162 1    
    79   38  163 1    
    80   39   40 am   BACKBONE|DICT|INTERRES
    81   39  164 1    
    82   40   41 2    
    83   40   42 1    
    84   42   43 1    
    85   42   44 1    
    86   42  165 1    
    87   43  166 1    
    88   43  167 1    
    89   43  168 1    
    90   44   45 am   BACKBONE|DICT|INTERRES
    91   44  169 1    
    92   45   46 2    
    93   45   47 1    
    94   47   48 1    
    95   47   49 1    
    96   47  170 1    
    97   48  171 1    
    98   48  172 1    
    99   48  173 1    
   100   49   50 am   BACKBONE|DICT|INTERRES
   101   49  174 1    
   102   50   51 2    
   103   50   52 1    
   104   52   53 1    
   105   52   54 1    
   106   52  175 1    
   107   53  176 1    
   108   53  177 1    
   109   53  178 1    
   110   54   55 am   BACKBONE|DICT|INTERRES
   111   54  179 1    
   112   55   56 2    
   113   55   57 1    
   114   57   58 1    
   115   57   59 1    
   116   57  180 1    
   117   58  181 1    
   118   58  182 1    
   119   58  183 1    
   120   59   60 am   BACKBONE|DICT|INTERRES
   121   59  184 1    
   122   60   61 2    
   123   60   62 1    
   124   62   63 1    
   125   62   64 1    
   126   62  185 1    
   127   63  186 1    
   128   63  187 1    
   129   63  188 1    
   130   64   65 am   BACKBONE|DICT|INTERRES
   131   64  189 1    
   132   65   66 2    
   133   67   68 2    
   134   67   69 am   BACKBONE|DICT|INTERRES
   135   69   70 1    
   136   69  190 1    
   137   70   71 1    
   138   70   72 1    
   139   70  191 1    
   140   71  192 1    
   141   71  193 1    
   142   71  194 1    
   143   72   73 2    
   144   72   74 am   BACKBONE|DICT|INTERRES
   145   74   75 1    
   146   74  195 1    
   147   75   76 1    
   148   75   77 1    
   149   75  196 1    
   150   76  197 1    
   151   76  198 1    
   152   76  199 1    
   153   77   78 2    
   154   77   79 am   BACKBONE|DICT|INTERRES
   155   79   80 1    
   156   79  200 1    
   157   80   81 1    
   158   80   82 1    
   159   80  201 1    
   160   81  202 1    
   161   81  203 1    
   162   81  204 1    
   163   82   83 2    
   164   82   84 am   BACKBONE|DICT|INTERRES
   165   84   85 1    
   166   84  205 1    
   167   85   86 1    
   168   85   87 1    
   169   85  206 1    
   170   86  207 1    
   171   86  208 1    
   172   86  209 1    
   173   87   88 2    
   174   87   89 am   BACKBONE|DICT|INTERRES
   175   89   90 1    
   176   89  210 1    
   177   90   91 1    
   178   90   92 1    
   179   90  211 1    
   180   91  212 1    
   181   91  213 1    
   182   91  214 1    
   183   92   93 2    
   184   92   94 am   BACKBONE|DICT|INTERRES
   185   94   95 1    
   186   94  215 1    
   187   95   96 1    
   188   95   97 1    
   189   95  216 1    
   190   96  217 1    
   191   96  218 1    
   192   96  219 1    
   193   97   98 2    
   194   97   99 am   BACKBONE|DICT|INTERRES
   195   99  100 1    
   196   99  220 1    
   197  100  101 1    
   198  100  102 1    
   199  100  221 1    
   200  101  222 1    
   201  101  223 1    
   202  101  224 1    
   203  102  103 2    
   204  102  104 am   BACKBONE|DICT|INTERRES
   205  104  105 1    
   206  104  225 1    
   207  105  106 1    
   208  105  107 1    
   209  105  226 1    
   210  106  227 1    
   211  106  228 1    
   212  106  229 1    
   213  107  108 2    
   214  107  109 am   BACKBONE|DICT|INTERRES
   215  109  110 1    
   216  109  230 1    
   217  110  111 1    
   218  110  112 1    
   219  110  231 1    
   220  111  232 1    
   221  111  233 1    
   222  111  234 1    
   223  112  113 2    
   224  112  114 am   BACKBONE|DICT|INTERRES
   225  114  115 1    
   226  114  235 1    
   227  115  116 1    
   228  115  117 1    
   229  115  236 1    
   230  116  237 1    
   231  116  238 1    
   232  116  239 1    
   233  117  118 2    
   234  117  119 am   BACKBONE|DICT|INTERRES
   235  119  120 1    
   236  119  240 1    
   237  120  121 1    
   238  120  124 1    
   239  120  241 1    
   240  121  122 am   BACKBONE|DICT|INTERRES
   241  121  123 2    
   242  122  242 1    
   243  122  243 1    
   244  124  125 1    
   245  124  244 1    
   246  124  245 1    
   247  125  126 1    
   248  126  246 1    
   249  126  247 1    
@<TRIPOS>SUBSTRUCTURE
     1 UNK         1 GROUP             0       ****    0 ROOT    
