@<TRIPOS>MOLECULE
3R540
247   249    1
SMALL
USER_CHARGES


@<TRIPOS>ATOM
      1 CA          7.1883  -14.6601  -50.0969 C.3       0 UNK        -0.1800 
      2 C           5.9660  -15.0785  -49.2936 C.2       0 UNK         0.5000 
      3 O           6.0866  -15.8693  -48.3578 O.2       0 UNK        -0.5000 
      4 N           4.7889  -14.5366  -49.6357 N.am      1 UNK        -0.5000 
      5 CA          3.4934  -14.8644  -49.0203 C.3       1 UNK         0.1400 
      6 C6          2.2956  -14.3092  -49.8260 C.3       23 UNK        -0.0398 
      7 S7          2.2026  -15.0419  -51.4937 S.3       23 UNK        -0.2404 
      8 C8          1.2902  -16.5841  -51.1610 C.3       23 UNK        -0.0205 
      9 C9         -0.2022  -16.3465  -50.9908 C.ar      23 UNK        -0.0193 
     10 C10        -1.0195  -16.2303  -52.1178 C.ar      23 UNK        -0.1150 
     11 C11        -2.3969  -16.0447  -51.9802 C.ar      23 UNK        -0.0193 
     12 C12        -2.9550  -15.9725  -50.7006 C.ar      23 UNK        -0.1150 
     13 C13        -2.1520  -16.0848  -49.5612 C.ar      23 UNK        -0.0193 
     14 C14        -0.7723  -16.2674  -49.7161 C.ar      23 UNK        -0.1150 
     15 C15        -2.7944  -15.9611  -48.1804 C.3       23 UNK        -0.0205 
     16 S16        -2.1004  -17.0744  -46.9135 S.3       23 UNK        -0.2404 
     17 C17        -2.5284  -18.7107  -47.5858 C.3       23 UNK        -0.0398 
     18 CA         -2.1776  -19.8469  -46.5975 C.3       11 UNK         0.1400 
     19 N          -2.9343  -19.7452  -45.3419 N.am      11 UNK        -0.5000 
     20 C          -2.7061  -20.4920  -44.2549 C.2       10 UNK         0.5000 
     21 O          -1.8920  -21.4171  -44.2206 O.2       10 UNK        -0.5000 
     22 CA         -3.5577  -20.1866  -43.0184 C.3       10 UNK         0.1400 
     23 CB         -4.8424  -21.0312  -43.0143 C.3       10 UNK        -0.1800 
     24 N          -2.7635  -20.4908  -41.8367 N.am      10 UNK        -0.5000 
     25 C          -2.8296  -19.8618  -40.6608 C.2       9 UNK         0.5000 
     26 O          -3.6514  -18.9809  -40.4053 O.2       9 UNK        -0.5000 
     27 CA         -1.7754  -20.2382  -39.6021 C.3       9 UNK         0.1400 
     28 CB         -2.1664  -21.5150  -38.8329 C.3       9 UNK        -0.1800 
     29 N          -0.4103  -20.3007  -40.1435 N.am      9 UNK        -0.5000 
     30 C           0.1359  -21.2118  -40.9642 C.2       8 UNK         0.5000 
     31 O          -0.4486  -22.2354  -41.3150 O.2       8 UNK        -0.5000 
     32 CA          1.5457  -20.9181  -41.5195 C.3       8 UNK         0.1400 
     33 CB          1.6473  -21.2739  -43.0143 C.3       8 UNK        -0.1800 
     34 N           1.9151  -19.5110  -41.3325 N.am      8 UNK        -0.5000 
     35 C           2.7398  -19.0629  -40.3751 C.2       7 UNK         0.5000 
     36 O           3.3459  -19.8001  -39.5967 O.2       7 UNK        -0.5000 
     37 CA          2.8818  -17.5358  -40.2166 C.3       7 UNK         0.1400 
     38 CB          4.0617  -17.0003  -41.0376 C.3       7 UNK        -0.1800 
     39 N           1.6789  -16.7829  -40.5720 N.am      7 UNK        -0.5000 
     40 C           0.4949  -16.8544  -39.9538 C.2       6 UNK         0.5000 
     41 O           0.2752  -17.6094  -39.0072 O.2       6 UNK        -0.5000 
     42 CA         -0.6498  -15.9699  -40.4899 C.3       6 UNK         0.1400 
     43 CB         -0.6461  -14.5868  -39.8123 C.3       6 UNK        -0.1800 
     44 N          -0.7008  -15.8543  -41.9546 N.am      6 UNK        -0.5000 
     45 C           0.1728  -15.2719  -42.7875 C.2       5 UNK         0.5000 
     46 O           1.1959  -14.6890  -42.4252 O.2       5 UNK        -0.5000 
     47 CA         -0.1246  -15.4220  -44.2872 C.3       5 UNK         0.1400 
     48 CB         -0.1730  -14.0566  -44.9906 C.3       5 UNK        -0.1800 
     49 N           0.8678  -16.2634  -44.9512 N.am      5 UNK        -0.5000 
     50 C           1.1061  -17.5555  -44.6882 C.2       4 UNK         0.5000 
     51 O           0.5423  -18.1921  -43.7971 O.2       4 UNK        -0.5000 
     52 CA          2.1709  -18.2401  -45.5590 C.3       4 UNK         0.1400 
     53 CB          1.7243  -18.3307  -47.0294 C.3       4 UNK        -0.1800 
     54 N           3.4280  -17.5012  -45.4893 N.am      4 UNK        -0.5000 
     55 C           4.4837  -17.8463  -44.7406 C.2       3 UNK         0.5000 
     56 O           4.5217  -18.8617  -44.0458 O.2       3 UNK        -0.5000 
     57 CA          5.7127  -16.9128  -44.7650 C.3       3 UNK         0.1400 
     58 CB          6.8779  -17.5787  -45.5132 C.3       3 UNK        -0.1800 
     59 N           5.4309  -15.6156  -45.3839 N.am      3 UNK        -0.5000 
     60 C           4.8508  -14.5832  -44.7519 C.2       2 UNK         0.5000 
     61 O           4.5886  -14.5861  -43.5502 O.2       2 UNK        -0.5000 
     62 CA          4.4770  -13.3472  -45.6011 C.3       2 UNK         0.1400 
     63 CB          5.5368  -12.2464  -45.4446 C.3       2 UNK        -0.1800 
     64 N           4.3074  -13.6432  -47.0265 N.am      2 UNK        -0.5000 
     65 C           3.3843  -14.4729  -47.5318 C.2       1 UNK         0.5000 
     66 O           2.5016  -14.9878  -46.8475 O.2       1 UNK        -0.5000 
     67 C          -2.3011  -21.2274  -47.2763 C.2       11 UNK         0.5000 
     68 O          -1.3607  -21.6603  -47.9434 O.2       11 UNK        -0.5000 
     69 N          -3.4226  -21.9257  -47.0458 N.am      12 UNK        -0.5000 
     70 CA         -3.6753  -23.2886  -47.5159 C.3       12 UNK         0.1400 
     71 CB         -5.1136  -23.6874  -47.1567 C.3       12 UNK        -0.1800 
     72 C          -2.6720  -24.3302  -46.9817 C.2       12 UNK         0.5000 
     73 O          -2.3887  -25.3002  -47.6843 O.2       12 UNK        -0.5000 
     74 N          -2.1072  -24.0965  -45.7867 N.am      13 UNK        -0.5000 
     75 CA         -1.0606  -24.9366  -45.1953 C.3       13 UNK         0.1400 
     76 CB         -0.9308  -24.6105  -43.7023 C.3       13 UNK        -0.1800 
     77 C           0.3012  -24.7826  -45.9025 C.2       13 UNK         0.5000 
     78 O           1.1217  -25.6982  -45.8417 O.2       13 UNK        -0.5000 
     79 N           0.5000  -23.6497  -46.5896 N.am      14 UNK        -0.5000 
     80 CA          1.6450  -23.3674  -47.4561 C.3       14 UNK         0.1400 
     81 CB          2.0304  -21.8880  -47.2858 C.3       14 UNK        -0.1800 
     82 C           1.3434  -23.7057  -48.9339 C.2       14 UNK         0.5000 
     83 O           2.1232  -23.3289  -49.8087 O.2       14 UNK        -0.5000 
     84 N           0.2161  -24.3917  -49.1863 N.am      15 UNK        -0.5000 
     85 CA         -0.3333  -24.8070  -50.4827 C.3       15 UNK         0.1400 
     86 CB          0.6586  -25.6943  -51.2631 C.3       15 UNK        -0.1800 
     87 C          -0.8923  -23.6512  -51.3394 C.2       15 UNK         0.5000 
     88 O          -1.2572  -23.8783  -52.4936 O.2       15 UNK        -0.5000 
     89 N          -1.0133  -22.4494  -50.7625 N.am      16 UNK        -0.5000 
     90 CA         -1.6218  -21.2729  -51.3779 C.3       16 UNK         0.1400 
     91 CB         -0.7853  -20.0308  -51.0232 C.3       16 UNK        -0.1800 
     92 C          -3.0909  -21.1713  -50.9308 C.2       16 UNK         0.5000 
     93 O          -3.4948  -20.1896  -50.3061 O.2       16 UNK        -0.5000 
     94 N          -3.8643  -22.2247  -51.2274 N.am      17 UNK        -0.5000 
     95 CA         -5.2978  -22.3293  -50.9617 C.3       17 UNK         0.1400 
     96 CB         -5.7197  -23.8025  -51.0911 C.3       17 UNK        -0.1800 
     97 C          -6.0768  -21.4128  -51.9208 C.2       17 UNK         0.5000 
     98 O          -6.5169  -21.8593  -52.9822 O.2       17 UNK        -0.5000 
     99 N          -6.1666  -20.1294  -51.5520 N.am      18 UNK        -0.5000 
    100 CA        -6.5732  -18.9955  -52.3875 C.3       18 UNK         0.1400 
    101 CB        -6.4732  -17.7100  -51.5543 C.3       18 UNK        -0.1800 
    102 C         -7.9445  -19.0936  -53.0804 C.2       18 UNK         0.5000 
    103 O         -8.1704  -18.3816  -54.0589 O.2       18 UNK        -0.5000 
    104 N         -8.8134  -19.9917  -52.6007 N.am      19 UNK        -0.5000 
    105 CA       -10.0790  -20.3582  -53.2362 C.3       19 UNK         0.1400 
    106 CB       -10.8631  -21.2724  -52.2821 C.3       19 UNK        -0.1800 
    107 C         -9.9111  -21.0365  -54.6141 C.2       19 UNK         0.5000 
    108 O        -10.8516  -21.0015  -55.4092 O.2       19 UNK        -0.5000 
    109 N         -8.7393  -21.6353  -54.8748 N.am      20 UNK        -0.5000 
    110 CA        -8.4139  -22.3047  -56.1339 C.3       20 UNK         0.1400 
    111 CB        -8.5827  -23.8236  -55.9658 C.3       20 UNK        -0.1800 
    112 C         -6.9983  -21.9628  -56.6248 C.2       20 UNK         0.5000 
    113 O         -6.8270  -21.6677  -57.8084 O.2       20 UNK        -0.5000 
    114 N         -6.0061  -22.0013  -55.7235 N.am      21 UNK        -0.5000 
    115 CA        -4.5798  -21.8674  -56.0427 C.3       21 UNK         0.1400 
    116 CB        -3.7489  -22.2260  -54.8010 C.3       21 UNK        -0.1800 
    117 C         -4.1794  -20.4730  -56.5566 C.2       21 UNK         0.5000 
    118 O         -3.2297  -20.3642  -57.3331 O.2       21 UNK        -0.5000 
    119 N         -4.9128  -19.4448  -56.1181 N.am      22 UNK        -0.5000 
    120 CA        -4.7204  -18.0397  -56.5114 C.3       22 UNK         0.1400 
    121 C         -5.6902  -17.5872  -57.6437 C.2       22 UNK         0.5000 
    122 N         -6.4749  -18.4726  -58.2495 N.am      22 UNK        -0.7600 
    123 O         -5.7223  -16.4114  -57.9963 O.2       22 UNK        -0.5000 
    124 C124       -4.7723  -17.0891  -55.2857 C.3       23 UNK        -0.0398 
    125 S125       -3.5397  -17.5257  -54.0082 S.3       23 UNK        -0.2404 
    126 C126       -3.2759  -15.9127  -53.2143 C.3       23 UNK        -0.0205 
    127 H127        7.9257  -14.1950  -49.4427 H         1 UNK         0.0600 
    128 H128        6.9329  -13.9491  -50.8830 H         1 UNK         0.0600 
    129 H129        7.6462  -15.5327  -50.5627 H         1 UNK         0.0600 
    130 H130        4.7493  -13.8946  -50.4150 H         1 UNK         0.3000 
    131 H131        3.4163  -15.9536  -49.0288 H         1 UNK         0.0600 
    132 H132        1.3517  -14.4893  -49.3103 H         1 UNK         0.0800 
    133 H133        2.3764  -13.2259  -49.9286 H         1 UNK         0.0800 
    134 H134        1.7016  -17.0832  -50.2826 H         1 UNK         0.0800 
    135 H135        1.4501  -17.2695  -51.9947 H         1 UNK         0.0800 
    136 H136       -0.5841  -16.2917  -53.1054 H         1 UNK         0.1150 
    137 H137       -4.0187  -15.8167  -50.5912 H         1 UNK         0.1150 
    138 H138       -0.1413  -16.3486  -48.8432 H         1 UNK         0.1150 
    139 H139       -2.6727  -14.9327  -47.8385 H         1 UNK         0.0800 
    140 H140       -3.8690  -16.1402  -48.2422 H         1 UNK         0.0800 
    141 H141       -1.9826  -18.8283  -48.5214 H         1 UNK         0.0800 
    142 H142       -3.5888  -18.7316  -47.8431 H         1 UNK         0.0800 
    143 H143       -1.1258  -19.7444  -46.3272 H         1 UNK         0.0600 
    144 H144       -3.6193  -19.0045  -45.2986 H         1 UNK         0.3000 
    145 H145       -3.8148  -19.1252  -43.0262 H         1 UNK         0.0600 
    146 H146       -5.4533  -20.8147  -42.1378 H         1 UNK         0.0600 
    147 H147       -5.4519  -20.8235  -43.8944 H         1 UNK         0.0600 
    148 H148       -4.6199  -22.0992  -43.0111 H         1 UNK         0.0600 
    149 H149       -2.0345  -21.1865  -41.9784 H         1 UNK         0.3000 
    150 H150       -1.7603  -19.4237  -38.8765 H         1 UNK         0.0600 
    151 H151       -3.1153  -21.3753  -38.3140 H         1 UNK         0.0600 
    152 H152       -1.4185  -21.7676  -38.0814 H         1 UNK         0.0600 
    153 H153       -2.2856  -22.3747  -39.4924 H         1 UNK         0.0600 
    154 H154        0.1560  -19.4935  -39.9096 H         1 UNK         0.3000 
    155 H155        2.2386  -21.5670  -40.9809 H         1 UNK         0.0600 
    156 H156        0.8704  -20.7847  -43.6021 H         1 UNK         0.0600 
    157 H157        1.5386  -22.3479  -43.1683 H         1 UNK         0.0600 
    158 H158        2.6155  -20.9871  -43.4247 H         1 UNK         0.0600 
    159 H159        1.4564  -18.8471  -41.9470 H         1 UNK         0.3000 
    160 H160        3.0909  -17.3428  -39.1624 H         1 UNK         0.0600 
    161 H161        3.8392  -17.0211  -42.1028 H         1 UNK         0.0600 
    162 H162        4.9648  -17.5895  -40.8726 H         1 UNK         0.0600 
    163 H163        4.2907  -15.9685  -40.7705 H         1 UNK         0.0600 
    164 H164        1.7650  -16.1053  -41.3251 H         1 UNK         0.3000 
    165 H165       -1.5791  -16.4672  -40.2063 H         1 UNK         0.0600 
    166 H166        0.2691  -14.0315  -40.0191 H         1 UNK         0.0600 
    167 H167       -1.4889  -13.9818  -40.1463 H         1 UNK         0.0600 
    168 H168       -0.7263  -14.6861  -38.7291 H         1 UNK         0.0600 
    169 H169       -1.4721  -16.3497  -42.3793 H         1 UNK         0.3000 
    170 H170       -1.0999  -15.8968  -44.4049 H         1 UNK         0.0600 
    171 H171        0.7911  -13.5479  -44.9480 H         1 UNK         0.0600 
    172 H172       -0.4459  -14.1662  -46.0406 H         1 UNK         0.0600 
    173 H173       -0.9128  -13.4033  -44.5269 H         1 UNK         0.0600 
    174 H174        1.4156  -15.8053  -45.6760 H         1 UNK         0.3000 
    175 H175        2.3055  -19.2581  -45.1895 H         1 UNK         0.0600 
    176 H176        1.5640  -17.3498  -47.4744 H         1 UNK         0.0600 
    177 H177        2.4696  -18.8484  -47.6332 H         1 UNK         0.0600 
    178 H178        0.7912  -18.8823  -47.1254 H         1 UNK         0.0600 
    179 H179        3.4530  -16.6181  -45.9826 H         1 UNK         0.3000 
    180 H180        6.0244  -16.7539  -43.7305 H         1 UNK         0.0600 
    181 H181        7.7571  -16.9344  -45.5304 H         1 UNK         0.0600 
    182 H182        6.6126  -17.8131  -46.5446 H         1 UNK         0.0600 
    183 H183        7.1688  -18.5125  -45.0305 H         1 UNK         0.0600 
    184 H184        5.6315  -15.5422  -46.3764 H         1 UNK         0.3000 
    185 H185        3.5259  -12.9673  -45.2219 H         1 UNK         0.0600 
    186 H186        5.2458  -11.3396  -45.9751 H         1 UNK         0.0600 
    187 H187        5.6703  -11.9789  -44.3955 H         1 UNK         0.0600 
    188 H188        6.5068  -12.5651  -45.8284 H         1 UNK         0.0600 
    189 H189        5.0067  -13.2724  -47.6532 H         1 UNK         0.3000 
    190 H190       -4.1379  -21.5039  -46.4726 H         1 UNK         0.3000 
    191 H191       -3.5821  -23.2846  -48.6029 H         1 UNK         0.0600 
    192 H192       -5.3448  -24.6880  -47.5246 H         1 UNK         0.0600 
    193 H193       -5.8372  -23.0046  -47.6019 H         1 UNK         0.0600 
    194 H194       -5.2724  -23.6890  -46.0775 H         1 UNK         0.0600 
    195 H195       -2.3390  -23.2484  -45.2820 H         1 UNK         0.3000 
    196 H196       -1.3664  -25.9809  -45.2881 H         1 UNK         0.0600 
    197 H197       -0.5706  -23.5939  -43.5512 H         1 UNK         0.0600 
    198 H198       -1.8858  -24.7089  -43.1862 H         1 UNK         0.0600 
    199 H199       -0.2237  -25.2822  -43.2143 H         1 UNK         0.0600 
    200 H200       -0.2449  -22.9644  -46.6173 H         1 UNK         0.3000 
    201 H201        2.4993  -23.9754  -47.1521 H         1 UNK         0.0600 
    202 H202        1.2474  -21.2264  -47.6552 H         1 UNK         0.0600 
    203 H203        2.9427  -21.6530  -47.8350 H         1 UNK         0.0600 
    204 H204        2.2114  -21.6440  -46.2388 H         1 UNK         0.0600 
    205 H205       -0.3602  -24.6403  -48.3925 H         1 UNK         0.3000 
    206 H206       -1.1959  -25.4298  -50.2419 H         1 UNK         0.0600 
    207 H207        1.0365  -26.5060  -50.6414 H         1 UNK         0.0600 
    208 H208        0.1767  -26.1491  -52.1293 H         1 UNK         0.0600 
    209 H209        1.5125  -25.1256  -51.6314 H         1 UNK         0.0600 
    210 H210       -0.7811  -22.3536  -49.7796 H         1 UNK         0.3000 
    211 H211       -1.6241  -21.3643  -52.4659 H         1 UNK         0.0600 
    212 H212       -1.2693  -19.1175  -51.3715 H         1 UNK         0.0600 
    213 H213        0.1969  -20.0761  -51.4933 H         1 UNK         0.0600 
    214 H214       -0.6290  -19.9381  -49.9496 H         1 UNK         0.0600 
    215 H215       -3.4496  -22.9819  -51.7528 H         1 UNK         0.3000 
    216 H216       -5.4959  -22.0072  -49.9374 H         1 UNK         0.0600 
    217 H217       -5.5085  -24.1996  -52.0849 H         1 UNK         0.0600 
    218 H218       -6.7892  -23.9186  -50.9114 H         1 UNK         0.0600 
    219 H219       -5.1988  -24.4268  -50.3649 H         1 UNK         0.0600 
    220 H220       -5.6917  -19.8766  -50.6946 H         1 UNK         0.3000 
    221 H221       -5.8390  -18.9419  -53.1892 H         1 UNK         0.0600 
    222 H222       -5.4686  -17.5865  -51.1509 H         1 UNK         0.0600 
    223 H223       -7.1734  -17.7183  -50.7183 H         1 UNK         0.0600 
    224 H224       -6.6894  -16.8290  -52.1602 H         1 UNK         0.0600 
    225 H225       -8.5329  -20.5388  -51.8005 H         1 UNK         0.3000 
    226 H226      -10.6562  -19.4439  -53.3889 H         1 UNK         0.0600 
    227 H227      -10.3224  -22.1975  -52.0778 H         1 UNK         0.0600 
    228 H228      -11.0563  -20.7776  -51.3301 H         1 UNK         0.0600 
    229 H229      -11.8301  -21.5444  -52.7073 H         1 UNK         0.0600 
    230 H230       -8.0166  -21.6252  -54.1611 H         1 UNK         0.3000 
    231 H231       -9.0979  -21.9745  -56.9186 H         1 UNK         0.0600 
    232 H232       -7.9431  -24.2141  -55.1732 H         1 UNK         0.0600 
    233 H233       -8.3280  -24.3509  -56.8861 H         1 UNK         0.0600 
    234 H234       -9.6134  -24.0788  -55.7195 H         1 UNK         0.0600 
    235 H235       -6.2246  -22.1901  -54.7485 H         1 UNK         0.3000 
    236 H236       -4.3476  -22.5890  -56.8286 H         1 UNK         0.0600 
    237 H237       -4.0208  -23.2048  -54.4056 H         1 UNK         0.0600 
    238 H238       -2.6846  -22.2552  -55.0379 H         1 UNK         0.0600 
    239 H239       -3.8844  -21.4902  -54.0086 H         1 UNK         0.0600 
    240 H240       -5.6943  -19.6376  -55.5108 H         1 UNK         0.3000 
    241 H241       -3.7242  -17.9294  -56.9432 H         1 UNK         0.0600 
    242 H242       -7.0904  -18.1626  -58.9849 H         1 UNK         0.3800 
    243 H243       -6.4416  -19.4536  -58.0075 H         1 UNK         0.3800 
    244 H244       -5.7656  -17.0948  -54.8351 H         1 UNK         0.0800 
    245 H245       -4.5869  -16.0609  -55.6015 H         1 UNK         0.0800 
    246 H246       -4.2414  -15.4787  -52.9495 H         1 UNK         0.0800 
    247 H247       -2.8101  -15.2283  -53.9248 H         1 UNK         0.0800 
@<TRIPOS>BOND
     1    1    2 1    
     2    1  127 1    
     3    1  128 1    
     4    1  129 1    
     5    2    3 2    
     6    2    4 am   BACKBONE|DICT|INTERRES
     7    4    5 1    
     8    4  130 1    
     9    5    6 1    
    10    5   65 1    
    11    5  131 1    
    12    6    7 1    
    13    6  132 1    
    14    6  133 1    
    15    7    8 1    
    16    8    9 1    
    17    8  134 1    
    18    8  135 1    
    19    9   10 ar   
    20    9   14 ar   
    21   10   11 ar   
    22   10  136 1    
    23   11   12 ar   
    24   11  126 1    
    25   12   13 ar   
    26   12  137 1    
    27   13   14 ar   
    28   13   15 1    
    29   14  138 1    
    30   15   16 1    
    31   15  139 1    
    32   15  140 1    
    33   16   17 1    
    34   17   18 1    
    35   17  141 1    
    36   17  142 1    
    37   18   19 1    
    38   18   67 1    
    39   18  143 1    
    40   19   20 am   BACKBONE|DICT|INTERRES
    41   19  144 1    
    42   20   21 2    
    43   20   22 1    
    44   22   23 1    
    45   22   24 1    
    46   22  145 1    
    47   23  146 1    
    48   23  147 1    
    49   23  148 1    
    50   24   25 am   BACKBONE|DICT|INTERRES
    51   24  149 1    
    52   25   26 2    
    53   25   27 1    
    54   27   28 1    
    55   27   29 1    
    56   27  150 1    
    57   28  151 1    
    58   28  152 1    
    59   28  153 1    
    60   29   30 am   BACKBONE|DICT|INTERRES
    61   29  154 1    
    62   30   31 2    
    63   30   32 1    
    64   32   33 1    
    65   32   34 1    
    66   32  155 1    
    67   33  156 1    
    68   33  157 1    
    69   33  158 1    
    70   34   35 am   BACKBONE|DICT|INTERRES
    71   34  159 1    
    72   35   36 2    
    73   35   37 1    
    74   37   38 1    
    75   37   39 1    
    76   37  160 1    
    77   38  161 1    
    78   38  162 1    
    79   38  163 1    
    80   39   40 am   BACKBONE|DICT|INTERRES
    81   39  164 1    
    82   40   41 2    
    83   40   42 1    
    84   42   43 1    
    85   42   44 1    
    86   42  165 1    
    87   43  166 1    
    88   43  167 1    
    89   43  168 1    
    90   44   45 am   BACKBONE|DICT|INTERRES
    91   44  169 1    
    92   45   46 2    
    93   45   47 1    
    94   47   48 1    
    95   47   49 1    
    96   47  170 1    
    97   48  171 1    
    98   48  172 1    
    99   48  173 1    
   100   49   50 am   BACKBONE|DICT|INTERRES
   101   49  174 1    
   102   50   51 2    
   103   50   52 1    
   104   52   53 1    
   105   52   54 1    
   106   52  175 1    
   107   53  176 1    
   108   53  177 1    
   109   53  178 1    
   110   54   55 am   BACKBONE|DICT|INTERRES
   111   54  179 1    
   112   55   56 2    
   113   55   57 1    
   114   57   58 1    
   115   57   59 1    
   116   57  180 1    
   117   58  181 1    
   118   58  182 1    
   119   58  183 1    
   120   59   60 am   BACKBONE|DICT|INTERRES
   121   59  184 1    
   122   60   61 2    
   123   60   62 1    
   124   62   63 1    
   125   62   64 1    
   126   62  185 1    
   127   63  186 1    
   128   63  187 1    
   129   63  188 1    
   130   64   65 am   BACKBONE|DICT|INTERRES
   131   64  189 1    
   132   65   66 2    
   133   67   68 2    
   134   67   69 am   BACKBONE|DICT|INTERRES
   135   69   70 1    
   136   69  190 1    
   137   70   71 1    
   138   70   72 1    
   139   70  191 1    
   140   71  192 1    
   141   71  193 1    
   142   71  194 1    
   143   72   73 2    
   144   72   74 am   BACKBONE|DICT|INTERRES
   145   74   75 1    
   146   74  195 1    
   147   75   76 1    
   148   75   77 1    
   149   75  196 1    
   150   76  197 1    
   151   76  198 1    
   152   76  199 1    
   153   77   78 2    
   154   77   79 am   BACKBONE|DICT|INTERRES
   155   79   80 1    
   156   79  200 1    
   157   80   81 1    
   158   80   82 1    
   159   80  201 1    
   160   81  202 1    
   161   81  203 1    
   162   81  204 1    
   163   82   83 2    
   164   82   84 am   BACKBONE|DICT|INTERRES
   165   84   85 1    
   166   84  205 1    
   167   85   86 1    
   168   85   87 1    
   169   85  206 1    
   170   86  207 1    
   171   86  208 1    
   172   86  209 1    
   173   87   88 2    
   174   87   89 am   BACKBONE|DICT|INTERRES
   175   89   90 1    
   176   89  210 1    
   177   90   91 1    
   178   90   92 1    
   179   90  211 1    
   180   91  212 1    
   181   91  213 1    
   182   91  214 1    
   183   92   93 2    
   184   92   94 am   BACKBONE|DICT|INTERRES
   185   94   95 1    
   186   94  215 1    
   187   95   96 1    
   188   95   97 1    
   189   95  216 1    
   190   96  217 1    
   191   96  218 1    
   192   96  219 1    
   193   97   98 2    
   194   97   99 am   BACKBONE|DICT|INTERRES
   195   99  100 1    
   196   99  220 1    
   197  100  101 1    
   198  100  102 1    
   199  100  221 1    
   200  101  222 1    
   201  101  223 1    
   202  101  224 1    
   203  102  103 2    
   204  102  104 am   BACKBONE|DICT|INTERRES
   205  104  105 1    
   206  104  225 1    
   207  105  106 1    
   208  105  107 1    
   209  105  226 1    
   210  106  227 1    
   211  106  228 1    
   212  106  229 1    
   213  107  108 2    
   214  107  109 am   BACKBONE|DICT|INTERRES
   215  109  110 1    
   216  109  230 1    
   217  110  111 1    
   218  110  112 1    
   219  110  231 1    
   220  111  232 1    
   221  111  233 1    
   222  111  234 1    
   223  112  113 2    
   224  112  114 am   BACKBONE|DICT|INTERRES
   225  114  115 1    
   226  114  235 1    
   227  115  116 1    
   228  115  117 1    
   229  115  236 1    
   230  116  237 1    
   231  116  238 1    
   232  116  239 1    
   233  117  118 2    
   234  117  119 am   BACKBONE|DICT|INTERRES
   235  119  120 1    
   236  119  240 1    
   237  120  121 1    
   238  120  124 1    
   239  120  241 1    
   240  121  122 am   BACKBONE|DICT|INTERRES
   241  121  123 2    
   242  122  242 1    
   243  122  243 1    
   244  124  125 1    
   245  124  244 1    
   246  124  245 1    
   247  125  126 1    
   248  126  246 1    
   249  126  247 1    
@<TRIPOS>SUBSTRUCTURE
     1 UNK         1 GROUP             0       ****    0 ROOT    
