@<TRIPOS>MOLECULE
3R540
247   249    1
SMALL
USER_CHARGES


@<TRIPOS>ATOM
      1 CA          1.5019  -10.0660  -48.4741 C.3       0 UNK        -0.1800 
      2 C           1.6888  -11.3877  -47.7438 C.2       0 UNK         0.5000 
      3 O           1.5083  -11.4471  -46.5290 O.2       0 UNK        -0.5000 
      4 N           2.0384  -12.4524  -48.4769 N.am      1 UNK        -0.5000 
      5 CA          2.2554  -13.8042  -47.9450 C.3       1 UNK         0.1400 
      6 C6          2.8999  -14.7180  -49.0164 C.3       23 UNK        -0.0398 
      7 S7          3.5501  -16.2837  -48.3367 S.3       23 UNK        -0.2404 
      8 C8          3.3113  -17.4411  -49.7260 C.3       23 UNK        -0.0205 
      9 C9          1.8601  -17.5522  -50.1773 C.ar      23 UNK        -0.0193 
     10 C10         1.5159  -17.2793  -51.5049 C.ar      23 UNK        -0.1150 
     11 C11         0.1892  -17.3840  -51.9320 C.ar      23 UNK        -0.0193 
     12 C12        -0.7993  -17.7604  -51.0184 C.ar      23 UNK        -0.1150 
     13 C13        -0.4683  -18.0319  -49.6877 C.ar      23 UNK        -0.0193 
     14 C14         0.8627  -17.9318  -49.2749 C.ar      23 UNK        -0.1150 
     15 C15        -1.5517  -18.4261  -48.6982 C.3       23 UNK        -0.0205 
     16 S16        -1.8376  -20.2193  -48.7143 S.3       23 UNK        -0.2404 
     17 C17        -0.4095  -20.8436  -47.7625 C.3       23 UNK        -0.0398 
     18 CA         -0.7204  -22.0495  -46.8374 C.3       11 UNK         0.1400 
     19 N           0.5127  -22.5915  -46.2563 N.am      11 UNK        -0.5000 
     20 C           0.6383  -23.8169  -45.7260 C.2       10 UNK         0.5000 
     21 O          -0.2858  -24.6271  -45.6669 O.2       10 UNK        -0.5000 
     22 CA          1.9987  -24.1787  -45.0980 C.3       10 UNK         0.1400 
     23 CB          2.9127  -24.8359  -46.1419 C.3       10 UNK        -0.1800 
     24 N           2.6901  -23.0328  -44.5019 N.am      10 UNK        -0.5000 
     25 C           2.2052  -22.2819  -43.5034 C.2       9 UNK         0.5000 
     26 O           1.1281  -22.5068  -42.9531 O.2       9 UNK        -0.5000 
     27 CA          3.0141  -21.0395  -43.0833 C.3       9 UNK         0.1400 
     28 CB          4.4885  -21.0602  -43.5432 C.3       9 UNK        -0.1800 
     29 N           2.3595  -19.8073  -43.5283 N.am      9 UNK        -0.5000 
     30 C           2.0265  -19.4727  -44.7847 C.2       8 UNK         0.5000 
     31 O           2.2055  -20.1979  -45.7649 O.2       8 UNK        -0.5000 
     32 CA          1.3845  -18.0900  -44.9840 C.3       8 UNK         0.1400 
     33 CB         -0.1364  -18.1609  -44.7744 C.3       8 UNK        -0.1800 
     34 N           1.9321  -17.0604  -44.1041 N.am      8 UNK        -0.5000 
     35 C           3.1922  -16.6035  -44.1253 C.2       7 UNK         0.5000 
     36 O           4.0809  -17.0474  -44.8524 O.2       7 UNK        -0.5000 
     37 CA          3.5171  -15.4674  -43.1406 C.3       7 UNK         0.1400 
     38 CB          3.0291  -14.1108  -43.6754 C.3       7 UNK        -0.1800 
     39 N           2.9183  -15.7222  -41.8318 N.am      7 UNK        -0.5000 
     40 C           3.4458  -16.5403  -40.9106 C.2       6 UNK         0.5000 
     41 O           4.5426  -17.0877  -41.0273 O.2       6 UNK        -0.5000 
     42 CA          2.6013  -16.8042  -39.6492 C.3       6 UNK         0.1400 
     43 CB          2.9397  -15.7842  -38.5514 C.3       6 UNK        -0.1800 
     44 N           1.1600  -16.7725  -39.9032 N.am      6 UNK        -0.5000 
     45 C           0.4949  -17.6681  -40.6463 C.2       5 UNK         0.5000 
     46 O           1.0241  -18.6370  -41.1909 O.2       5 UNK        -0.5000 
     47 CA         -1.0099  -17.4053  -40.8484 C.3       5 UNK         0.1400 
     48 CB         -1.8232  -18.0282  -39.7043 C.3       5 UNK        -0.1800 
     49 N          -1.3458  -15.9821  -40.9686 N.am      5 UNK        -0.5000 
     50 C          -0.8883  -15.1671  -41.9286 C.2       4 UNK         0.5000 
     51 O          -0.0903  -15.5142  -42.8007 O.2       4 UNK        -0.5000 
     52 CA         -1.3526  -13.7098  -41.8731 C.3       4 UNK         0.1400 
     53 CB         -0.4017  -12.8748  -40.9974 C.3       4 UNK        -0.1800 
     54 N          -1.3844  -13.1630  -43.2266 N.am      4 UNK        -0.5000 
     55 C          -2.1856  -12.1687  -43.6261 C.2       3 UNK         0.5000 
     56 O          -2.9856  -11.6031  -42.8788 O.2       3 UNK        -0.5000 
     57 CA         -2.0862  -11.7047  -45.0927 C.3       3 UNK         0.1400 
     58 CB         -1.2816  -10.3990  -45.1813 C.3       3 UNK        -0.1800 
     59 N          -1.5119  -12.6904  -46.0143 N.am      3 UNK        -0.5000 
     60 C          -2.1474  -13.7965  -46.4309 C.2       2 UNK         0.5000 
     61 O          -3.2417  -14.1477  -45.9883 O.2       2 UNK        -0.5000 
     62 CA         -1.4944  -14.6361  -47.5516 C.3       2 UNK         0.1400 
     63 CB         -2.4078  -14.7041  -48.7870 C.3       2 UNK        -0.1800 
     64 N          -0.1846  -14.1406  -47.9786 N.am      2 UNK        -0.5000 
     65 C           0.9645  -14.4129  -47.3481 C.2       1 UNK         0.5000 
     66 O           1.0199  -15.0713  -46.3132 O.2       1 UNK        -0.5000 
     67 C          -1.8083  -21.7629  -45.7684 C.2       11 UNK         0.5000 
     68 O          -2.9823  -21.6428  -46.1173 O.2       11 UNK        -0.5000 
     69 N          -1.4412  -21.7159  -44.4762 N.am      12 UNK        -0.5000 
     70 CA         -2.4102  -21.6526  -43.3772 C.3       12 UNK         0.1400 
     71 CB         -1.7021  -21.2468  -42.0757 C.3       12 UNK        -0.1800 
     72 C          -3.1787  -22.9800  -43.1956 C.2       12 UNK         0.5000 
     73 O          -4.3075  -22.9569  -42.7043 O.2       12 UNK        -0.5000 
     74 N          -2.5674  -24.1014  -43.6063 N.am      13 UNK        -0.5000 
     75 CA         -3.1872  -25.4244  -43.6438 C.3       13 UNK         0.1400 
     76 CB         -2.1534  -26.4868  -43.2354 C.3       13 UNK        -0.1800 
     77 C          -3.7532  -25.7080  -45.0450 C.2       13 UNK         0.5000 
     78 O          -4.9387  -26.0160  -45.1762 O.2       13 UNK        -0.5000 
     79 N          -2.9053  -25.5728  -46.0734 N.am      14 UNK        -0.5000 
     80 CA         -3.2513  -25.7257  -47.4850 C.3       14 UNK         0.1400 
     81 CB         -1.9918  -26.1491  -48.2632 C.3       14 UNK        -0.1800 
     82 C          -3.8590  -24.4176  -48.0194 C.2       14 UNK         0.5000 
     83 O          -3.1918  -23.6836  -48.7496 O.2       14 UNK        -0.5000 
     84 N          -5.0994  -24.1366  -47.5972 N.am      15 UNK        -0.5000 
     85 CA         -5.8579  -22.9167  -47.8832 C.3       15 UNK         0.1400 
     86 CB         -7.2704  -23.0591  -47.2973 C.3       15 UNK        -0.1800 
     87 C          -5.9270  -22.5726  -49.3831 C.2       15 UNK         0.5000 
     88 O          -6.1155  -23.4675  -50.2122 O.2       15 UNK        -0.5000 
     89 N          -5.7444  -21.2806  -49.6955 N.am      16 UNK        -0.5000 
     90 CA         -5.6447  -20.7105  -51.0464 C.3       16 UNK         0.1400 
     91 CB         -7.0051  -20.7922  -51.7701 C.3       16 UNK        -0.1800 
     92 C          -4.4903  -21.3289  -51.8670 C.2       16 UNK         0.5000 
     93 O          -4.6143  -21.5029  -53.0816 O.2       16 UNK        -0.5000 
     94 N          -3.4082  -21.7033  -51.1693 N.am      17 UNK        -0.5000 
     95 CA         -2.2005  -22.3908  -51.6423 C.3       17 UNK         0.1400 
     96 CB         -1.4212  -21.4811  -52.6149 C.3       17 UNK        -0.1800 
     97 C          -2.4622  -23.7901  -52.2420 C.2       17 UNK         0.5000 
     98 O          -1.5587  -24.3599  -52.8554 O.2       17 UNK        -0.5000 
     99 N          -3.7010  -24.2933  -52.1027 N.am      18 UNK        -0.5000 
    100 CA        -4.2990  -25.4082  -52.8435 C.3       18 UNK         0.1400 
    101 CB        -3.6867  -26.7497  -52.3918 C.3       18 UNK        -0.1800 
    102 C         -4.2475  -25.2008  -54.3779 C.2       18 UNK         0.5000 
    103 O         -4.1843  -26.1773  -55.1272 O.2       18 UNK        -0.5000 
    104 N         -4.2447  -23.9333  -54.8189 N.am      19 UNK        -0.5000 
    105 CA        -3.9405  -23.5259  -56.1897 C.3       19 UNK         0.1400 
    106 CB        -2.4120  -23.5169  -56.3999 C.3       19 UNK        -0.1800 
    107 C         -4.5937  -22.1741  -56.5264 C.2       19 UNK         0.5000 
    108 O         -3.9803  -21.3501  -57.2062 O.2       19 UNK        -0.5000 
    109 N         -5.8267  -21.9680  -56.0382 N.am      20 UNK        -0.5000 
    110 CA        -6.6991  -20.8143  -56.2997 C.3       20 UNK         0.1400 
    111 CB        -7.2247  -20.8664  -57.7494 C.3       20 UNK        -0.1800 
    112 C         -6.0553  -19.4551  -55.9468 C.2       20 UNK         0.5000 
    113 O         -6.1249  -18.5084  -56.7335 O.2       20 UNK        -0.5000 
    114 N         -5.4078  -19.4030  -54.7742 N.am      21 UNK        -0.5000 
    115 CA        -4.6960  -18.2551  -54.1998 C.3       21 UNK         0.1400 
    116 CB        -5.6804  -17.1293  -53.8233 C.3       21 UNK        -0.1800 
    117 C         -3.5283  -17.7785  -55.0857 C.2       21 UNK         0.5000 
    118 O         -3.2795  -16.5771  -55.1963 O.2       21 UNK        -0.5000 
    119 N         -2.8456  -18.7494  -55.7049 N.am      22 UNK        -0.5000 
    120 CA        -1.7331  -18.5809  -56.6530 C.3       22 UNK         0.1400 
    121 C         -2.1571  -18.0189  -58.0458 C.2       22 UNK         0.5000 
    122 N         -3.4421  -17.9271  -58.3711 N.am      22 UNK        -0.7600 
    123 O         -1.3048  -17.6829  -58.8639 O.2       22 UNK        -0.5000 
    124 C124       -0.5066  -17.8257  -56.0597 C.3       23 UNK        -0.0398 
    125 S125        0.0784  -18.5041  -54.4647 S.3       23 UNK        -0.2404 
    126 C126       -0.1768  -17.0693  -53.3736 C.3       23 UNK        -0.0205 
    127 H127        0.4816   -9.7061  -48.3415 H         1 UNK         0.0600 
    128 H128        2.1835   -9.3165  -48.0721 H         1 UNK         0.0600 
    129 H129        1.6932  -10.1621  -49.5431 H         1 UNK         0.0600 
    130 H130        2.1746  -12.3403  -49.4717 H         1 UNK         0.3000 
    131 H131        2.9679  -13.7059  -47.1229 H         1 UNK         0.0600 
    132 H132        2.1896  -14.9140  -49.8203 H         1 UNK         0.0800 
    133 H133        3.7418  -14.2039  -49.4820 H         1 UNK         0.0800 
    134 H134        3.6596  -18.4290  -49.4221 H         1 UNK         0.0800 
    135 H135        3.9522  -17.1305  -50.5526 H         1 UNK         0.0800 
    136 H136        2.2801  -16.9870  -52.2115 H         1 UNK         0.1150 
    137 H137       -1.8271  -17.8431  -51.3426 H         1 UNK         0.1150 
    138 H138        1.1264  -18.1425  -48.2494 H         1 UNK         0.1150 
    139 H139       -1.2968  -18.0937  -47.6914 H         1 UNK         0.0800 
    140 H140       -2.4841  -17.9217  -48.9555 H         1 UNK         0.0800 
    141 H141        0.0291  -20.0305  -47.1914 H         1 UNK         0.0800 
    142 H142        0.3523  -21.1312  -48.4884 H         1 UNK         0.0800 
    143 H143       -1.1276  -22.8343  -47.4755 H         1 UNK         0.0600 
    144 H144        1.3016  -21.9536  -46.2052 H         1 UNK         0.3000 
    145 H145        1.8095  -24.9030  -44.3031 H         1 UNK         0.0600 
    146 H146        3.8449  -25.1773  -45.6915 H         1 UNK         0.0600 
    147 H147        2.4312  -25.7066  -46.5893 H         1 UNK         0.0600 
    148 H148        3.1616  -24.1467  -46.9500 H         1 UNK         0.0600 
    149 H149        3.5634  -22.7575  -44.9273 H         1 UNK         0.3000 
    150 H150        3.0053  -21.0197  -41.9926 H         1 UNK         0.0600 
    151 H151        4.9967  -21.9605  -43.1956 H         1 UNK         0.0600 
    152 H152        5.0305  -20.2075  -43.1336 H         1 UNK         0.0600 
    153 H153        4.5876  -21.0171  -44.6283 H         1 UNK         0.0600 
    154 H154        2.0728  -19.1802  -42.7821 H         1 UNK         0.3000 
    155 H155        1.5791  -17.7787  -46.0113 H         1 UNK         0.0600 
    156 H156       -0.3801  -18.4441  -43.7525 H         1 UNK         0.0600 
    157 H157       -0.6055  -18.8942  -45.4256 H         1 UNK         0.0600 
    158 H158       -0.6068  -17.1989  -44.9796 H         1 UNK         0.0600 
    159 H159        1.2566  -16.5723  -43.5225 H         1 UNK         0.3000 
    160 H160        4.6027  -15.4126  -43.0331 H         1 UNK         0.0600 
    161 H161        3.2963  -13.2997  -42.9981 H         1 UNK         0.0600 
    162 H162        1.9476  -14.0903  -43.8116 H         1 UNK         0.0600 
    163 H163        3.4811  -13.8902  -44.6429 H         1 UNK         0.0600 
    164 H164        1.9893  -15.3563  -41.6815 H         1 UNK         0.3000 
    165 H165        2.8580  -17.8003  -39.2823 H         1 UNK         0.0600 
    166 H166        2.4063  -16.0073  -37.6272 H         1 UNK         0.0600 
    167 H167        4.0059  -15.7979  -38.3211 H         1 UNK         0.0600 
    168 H168        2.6819  -14.7679  -38.8522 H         1 UNK         0.0600 
    169 H169        0.6422  -16.0084  -39.4953 H         1 UNK         0.3000 
    170 H170       -1.3127  -17.8933  -41.7750 H         1 UNK         0.0600 
    171 H171       -1.6014  -19.0914  -39.6016 H         1 UNK         0.0600 
    172 H172       -1.6034  -17.5533  -38.7474 H         1 UNK         0.0600 
    173 H173       -2.8941  -17.9382  -39.8870 H         1 UNK         0.0600 
    174 H174       -1.9858  -15.6145  -40.2792 H         1 UNK         0.3000 
    175 H175       -2.3573  -13.6883  -41.4455 H         1 UNK         0.0600 
    176 H176        0.6114  -12.8657  -41.4021 H         1 UNK         0.0600 
    177 H177       -0.7395  -11.8412  -40.9216 H         1 UNK         0.0600 
    178 H178       -0.3485  -13.2724  -39.9832 H         1 UNK         0.0600 
    179 H179       -0.7802  -13.6267  -43.8937 H         1 UNK         0.3000 
    180 H180       -3.1025  -11.4899  -45.4301 H         1 UNK         0.0600 
    181 H181       -0.2693  -10.5257  -44.7965 H         1 UNK         0.0600 
    182 H182       -1.7545   -9.6096  -44.5958 H         1 UNK         0.0600 
    183 H183       -1.2112  -10.0426  -46.2091 H         1 UNK         0.0600 
    184 H184       -0.5948  -12.4819  -46.3868 H         1 UNK         0.3000 
    185 H185       -1.3791  -15.6503  -47.1641 H         1 UNK         0.0600 
    186 H186       -3.3740  -15.1448  -48.5384 H         1 UNK         0.0600 
    187 H187       -2.5952  -13.7135  -49.2030 H         1 UNK         0.0600 
    188 H188       -1.9662  -15.3186  -49.5716 H         1 UNK         0.0600 
    189 H189       -0.1635  -13.5601  -48.8042 H         1 UNK         0.3000 
    190 H190       -0.4727  -21.8633  -44.2172 H         1 UNK         0.3000 
    191 H191       -3.1393  -20.8743  -43.6130 H         1 UNK         0.0600 
    192 H192       -1.0790  -22.0515  -41.6857 H         1 UNK         0.0600 
    193 H193       -2.4300  -21.0001  -41.3021 H         1 UNK         0.0600 
    194 H194       -1.0686  -20.3720  -42.2202 H         1 UNK         0.0600 
    195 H195       -1.6526  -24.0244  -44.0309 H         1 UNK         0.3000 
    196 H196       -4.0128  -25.4734  -42.9306 H         1 UNK         0.0600 
    197 H197       -1.2839  -26.4884  -43.8936 H         1 UNK         0.0600 
    198 H198       -2.5896  -27.4861  -43.2651 H         1 UNK         0.0600 
    199 H199       -1.7995  -26.3171  -42.2185 H         1 UNK         0.0600 
    200 H200       -1.9477  -25.2823  -45.8856 H         1 UNK         0.3000 
    201 H201       -3.9954  -26.5170  -47.5979 H         1 UNK         0.0600 
    202 H202       -2.2117  -26.2711  -49.3245 H         1 UNK         0.0600 
    203 H203       -1.6052  -27.1006  -47.8982 H         1 UNK         0.0600 
    204 H204       -1.1941  -25.4103  -48.1772 H         1 UNK         0.0600 
    205 H205       -5.5342  -24.7949  -46.9638 H         1 UNK         0.3000 
    206 H206       -5.3519  -22.1010  -47.3637 H         1 UNK         0.0600 
    207 H207       -7.2365  -23.2258  -46.2204 H         1 UNK         0.0600 
    208 H208       -7.8579  -22.1559  -47.4674 H         1 UNK         0.0600 
    209 H209       -7.8096  -23.8921  -47.7503 H         1 UNK         0.0600 
    210 H210       -5.5902  -20.6270  -48.9400 H         1 UNK         0.3000 
    211 H211       -5.3979  -19.6555  -50.9201 H         1 UNK         0.0600 
    212 H212       -7.2646  -21.8182  -52.0330 H         1 UNK         0.0600 
    213 H213       -6.9991  -20.2109  -52.6911 H         1 UNK         0.0600 
    214 H214       -7.8063  -20.3941  -51.1477 H         1 UNK         0.0600 
    215 H215       -3.4290  -21.5641  -50.1668 H         1 UNK         0.3000 
    216 H216       -1.5761  -22.5521  -50.7626 H         1 UNK         0.0600 
    217 H217       -1.9652  -21.3170  -53.5454 H         1 UNK         0.0600 
    218 H218       -0.4559  -21.9164  -52.8747 H         1 UNK         0.0600 
    219 H219       -1.2226  -20.5072  -52.1675 H         1 UNK         0.0600 
    220 H220       -4.3508  -23.7666  -51.5304 H         1 UNK         0.3000 
    221 H221       -5.3559  -25.4181  -52.5740 H         1 UNK         0.0600 
    222 H222       -2.6381  -26.8335  -52.6781 H         1 UNK         0.0600 
    223 H223       -3.7498  -26.8655  -51.3099 H         1 UNK         0.0600 
    224 H224       -4.2161  -27.5921  -52.8380 H         1 UNK         0.0600 
    225 H225       -4.3242  -23.1774  -54.1438 H         1 UNK         0.3000 
    226 H226       -4.3773  -24.2489  -56.8814 H         1 UNK         0.0600 
    227 H227       -1.9772  -24.4964  -56.2009 H         1 UNK         0.0600 
    228 H228       -2.1547  -23.2550  -57.4269 H         1 UNK         0.0600 
    229 H229       -1.9243  -22.7969  -55.7416 H         1 UNK         0.0600 
    230 H230       -6.2256  -22.6949  -55.4609 H         1 UNK         0.3000 
    231 H231       -7.5575  -20.9210  -55.6349 H         1 UNK         0.0600 
    232 H232       -7.7114  -21.8190  -57.9583 H         1 UNK         0.0600 
    233 H233       -6.4214  -20.7341  -58.4750 H         1 UNK         0.0600 
    234 H234       -7.9608  -20.0817  -57.9285 H         1 UNK         0.0600 
    235 H235       -5.3216  -20.2675  -54.2440 H         1 UNK         0.3000 
    236 H236       -4.2383  -18.6089  -53.2754 H         1 UNK         0.0600 
    237 H237       -5.1727  -16.3321  -53.2792 H         1 UNK         0.0600 
    238 H238       -6.1404  -16.6816  -54.7047 H         1 UNK         0.0600 
    239 H239       -6.4779  -17.5024  -53.1808 H         1 UNK         0.0600 
    240 H240       -3.1748  -19.6989  -55.6008 H         1 UNK         0.3000 
    241 H241       -1.4015  -19.5977  -56.8658 H         1 UNK         0.0600 
    242 H242       -4.1655  -18.2050  -57.7202 H         1 UNK         0.3800 
    243 H243       -3.6982  -17.5730  -59.2789 H         1 UNK         0.3800 
    244 H244        0.3331  -17.8766  -56.7544 H         1 UNK         0.0800 
    245 H245       -0.7319  -16.7642  -55.9498 H         1 UNK         0.0800 
    246 H246        0.4244  -16.2321  -53.7314 H         1 UNK         0.0800 
    247 H247       -1.2165  -16.7460  -53.4300 H         1 UNK         0.0800 
@<TRIPOS>BOND
     1    1    2 1    
     2    1  127 1    
     3    1  128 1    
     4    1  129 1    
     5    2    3 2    
     6    2    4 am   BACKBONE|DICT|INTERRES
     7    4    5 1    
     8    4  130 1    
     9    5    6 1    
    10    5   65 1    
    11    5  131 1    
    12    6    7 1    
    13    6  132 1    
    14    6  133 1    
    15    7    8 1    
    16    8    9 1    
    17    8  134 1    
    18    8  135 1    
    19    9   10 ar   
    20    9   14 ar   
    21   10   11 ar   
    22   10  136 1    
    23   11   12 ar   
    24   11  126 1    
    25   12   13 ar   
    26   12  137 1    
    27   13   14 ar   
    28   13   15 1    
    29   14  138 1    
    30   15   16 1    
    31   15  139 1    
    32   15  140 1    
    33   16   17 1    
    34   17   18 1    
    35   17  141 1    
    36   17  142 1    
    37   18   19 1    
    38   18   67 1    
    39   18  143 1    
    40   19   20 am   BACKBONE|DICT|INTERRES
    41   19  144 1    
    42   20   21 2    
    43   20   22 1    
    44   22   23 1    
    45   22   24 1    
    46   22  145 1    
    47   23  146 1    
    48   23  147 1    
    49   23  148 1    
    50   24   25 am   BACKBONE|DICT|INTERRES
    51   24  149 1    
    52   25   26 2    
    53   25   27 1    
    54   27   28 1    
    55   27   29 1    
    56   27  150 1    
    57   28  151 1    
    58   28  152 1    
    59   28  153 1    
    60   29   30 am   BACKBONE|DICT|INTERRES
    61   29  154 1    
    62   30   31 2    
    63   30   32 1    
    64   32   33 1    
    65   32   34 1    
    66   32  155 1    
    67   33  156 1    
    68   33  157 1    
    69   33  158 1    
    70   34   35 am   BACKBONE|DICT|INTERRES
    71   34  159 1    
    72   35   36 2    
    73   35   37 1    
    74   37   38 1    
    75   37   39 1    
    76   37  160 1    
    77   38  161 1    
    78   38  162 1    
    79   38  163 1    
    80   39   40 am   BACKBONE|DICT|INTERRES
    81   39  164 1    
    82   40   41 2    
    83   40   42 1    
    84   42   43 1    
    85   42   44 1    
    86   42  165 1    
    87   43  166 1    
    88   43  167 1    
    89   43  168 1    
    90   44   45 am   BACKBONE|DICT|INTERRES
    91   44  169 1    
    92   45   46 2    
    93   45   47 1    
    94   47   48 1    
    95   47   49 1    
    96   47  170 1    
    97   48  171 1    
    98   48  172 1    
    99   48  173 1    
   100   49   50 am   BACKBONE|DICT|INTERRES
   101   49  174 1    
   102   50   51 2    
   103   50   52 1    
   104   52   53 1    
   105   52   54 1    
   106   52  175 1    
   107   53  176 1    
   108   53  177 1    
   109   53  178 1    
   110   54   55 am   BACKBONE|DICT|INTERRES
   111   54  179 1    
   112   55   56 2    
   113   55   57 1    
   114   57   58 1    
   115   57   59 1    
   116   57  180 1    
   117   58  181 1    
   118   58  182 1    
   119   58  183 1    
   120   59   60 am   BACKBONE|DICT|INTERRES
   121   59  184 1    
   122   60   61 2    
   123   60   62 1    
   124   62   63 1    
   125   62   64 1    
   126   62  185 1    
   127   63  186 1    
   128   63  187 1    
   129   63  188 1    
   130   64   65 am   BACKBONE|DICT|INTERRES
   131   64  189 1    
   132   65   66 2    
   133   67   68 2    
   134   67   69 am   BACKBONE|DICT|INTERRES
   135   69   70 1    
   136   69  190 1    
   137   70   71 1    
   138   70   72 1    
   139   70  191 1    
   140   71  192 1    
   141   71  193 1    
   142   71  194 1    
   143   72   73 2    
   144   72   74 am   BACKBONE|DICT|INTERRES
   145   74   75 1    
   146   74  195 1    
   147   75   76 1    
   148   75   77 1    
   149   75  196 1    
   150   76  197 1    
   151   76  198 1    
   152   76  199 1    
   153   77   78 2    
   154   77   79 am   BACKBONE|DICT|INTERRES
   155   79   80 1    
   156   79  200 1    
   157   80   81 1    
   158   80   82 1    
   159   80  201 1    
   160   81  202 1    
   161   81  203 1    
   162   81  204 1    
   163   82   83 2    
   164   82   84 am   BACKBONE|DICT|INTERRES
   165   84   85 1    
   166   84  205 1    
   167   85   86 1    
   168   85   87 1    
   169   85  206 1    
   170   86  207 1    
   171   86  208 1    
   172   86  209 1    
   173   87   88 2    
   174   87   89 am   BACKBONE|DICT|INTERRES
   175   89   90 1    
   176   89  210 1    
   177   90   91 1    
   178   90   92 1    
   179   90  211 1    
   180   91  212 1    
   181   91  213 1    
   182   91  214 1    
   183   92   93 2    
   184   92   94 am   BACKBONE|DICT|INTERRES
   185   94   95 1    
   186   94  215 1    
   187   95   96 1    
   188   95   97 1    
   189   95  216 1    
   190   96  217 1    
   191   96  218 1    
   192   96  219 1    
   193   97   98 2    
   194   97   99 am   BACKBONE|DICT|INTERRES
   195   99  100 1    
   196   99  220 1    
   197  100  101 1    
   198  100  102 1    
   199  100  221 1    
   200  101  222 1    
   201  101  223 1    
   202  101  224 1    
   203  102  103 2    
   204  102  104 am   BACKBONE|DICT|INTERRES
   205  104  105 1    
   206  104  225 1    
   207  105  106 1    
   208  105  107 1    
   209  105  226 1    
   210  106  227 1    
   211  106  228 1    
   212  106  229 1    
   213  107  108 2    
   214  107  109 am   BACKBONE|DICT|INTERRES
   215  109  110 1    
   216  109  230 1    
   217  110  111 1    
   218  110  112 1    
   219  110  231 1    
   220  111  232 1    
   221  111  233 1    
   222  111  234 1    
   223  112  113 2    
   224  112  114 am   BACKBONE|DICT|INTERRES
   225  114  115 1    
   226  114  235 1    
   227  115  116 1    
   228  115  117 1    
   229  115  236 1    
   230  116  237 1    
   231  116  238 1    
   232  116  239 1    
   233  117  118 2    
   234  117  119 am   BACKBONE|DICT|INTERRES
   235  119  120 1    
   236  119  240 1    
   237  120  121 1    
   238  120  124 1    
   239  120  241 1    
   240  121  122 am   BACKBONE|DICT|INTERRES
   241  121  123 2    
   242  122  242 1    
   243  122  243 1    
   244  124  125 1    
   245  124  244 1    
   246  124  245 1    
   247  125  126 1    
   248  126  246 1    
   249  126  247 1    
@<TRIPOS>SUBSTRUCTURE
     1 UNK         1 GROUP             0       ****    0 ROOT    
