@<TRIPOS>MOLECULE
3R540
247   249    1
SMALL
USER_CHARGES


@<TRIPOS>ATOM
      1 CA         -4.8125  -16.5456  -45.1286 C.3       0 UNK        -0.1800 
      2 C          -3.8283  -15.4058  -45.3573 C.2       0 UNK         0.5000 
      3 O          -4.2337  -14.3143  -45.7573 O.2       0 UNK        -0.5000 
      4 N          -2.5382  -15.6620  -45.1133 N.am      1 UNK        -0.5000 
      5 CA         -1.4435  -14.6907  -45.2173 C.3       1 UNK         0.1400 
      6 C6         -0.0584  -15.3825  -45.2073 C.3       23 UNK        -0.0398 
      7 S7          0.1152  -16.6651  -46.4907 S.3       23 UNK        -0.2404 
      8 C8          1.1498  -15.8450  -47.7368 C.3       23 UNK        -0.0205 
      9 C9          1.3384  -16.7447  -48.9492 C.ar      23 UNK        -0.0193 
     10 C10         0.6799  -16.4698  -50.1526 C.ar      23 UNK        -0.1150 
     11 C11         0.8526  -17.2999  -51.2667 C.ar      23 UNK        -0.0193 
     12 C12         1.6875  -18.4168  -51.1599 C.ar      23 UNK        -0.1150 
     13 C13         2.3264  -18.7193  -49.9560 C.ar      23 UNK        -0.0193 
     14 C14         2.1662  -17.8668  -48.8604 C.ar      23 UNK        -0.1150 
     15 C15         3.1732  -19.9781  -49.8415 C.3       23 UNK        -0.0205 
     16 S16         2.1437  -21.4765  -49.6924 S.3       23 UNK        -0.2404 
     17 C17         1.4440  -21.2576  -48.0220 C.3       23 UNK        -0.0398 
     18 CA          0.0653  -21.9282  -47.8187 C.3       11 UNK         0.1400 
     19 N          -0.2515  -22.0323  -46.3935 N.am      11 UNK        -0.5000 
     20 C          -1.2246  -22.7892  -45.8684 C.2       10 UNK         0.5000 
     21 O          -1.9433  -23.5289  -46.5381 O.2       10 UNK        -0.5000 
     22 CA         -1.4638  -22.6768  -44.3471 C.3       10 UNK         0.1400 
     23 CB         -0.6615  -23.7512  -43.5990 C.3       10 UNK        -0.1800 
     24 N          -1.1287  -21.3610  -43.7985 N.am      10 UNK        -0.5000 
     25 C          -1.7082  -20.2091  -44.1624 C.2       9 UNK         0.5000 
     26 O          -2.6657  -20.1450  -44.9344 O.2       9 UNK        -0.5000 
     27 CA         -1.0787  -18.9026  -43.6381 C.3       9 UNK         0.1400 
     28 CB         -1.8885  -18.3408  -42.4617 C.3       9 UNK        -0.1800 
     29 N           0.3451  -18.9735  -43.2739 N.am      9 UNK        -0.5000 
     30 C           1.3388  -19.3873  -44.0793 C.2       8 UNK         0.5000 
     31 O           1.1401  -19.8463  -45.2033 O.2       8 UNK        -0.5000 
     32 CA          2.7885  -19.2989  -43.5644 C.3       8 UNK         0.1400 
     33 CB          3.7292  -18.7645  -44.6600 C.3       8 UNK        -0.1800 
     34 N           2.9097  -18.4451  -42.3838 N.am      8 UNK        -0.5000 
     35 C           3.0283  -18.8716  -41.1184 C.2       7 UNK         0.5000 
     36 O           3.0357  -20.0610  -40.8000 O.2       7 UNK        -0.5000 
     37 CA          3.1522  -17.7966  -40.0149 C.3       7 UNK         0.1400 
     38 CB          4.6195  -17.6315  -39.5910 C.3       7 UNK        -0.1800 
     39 N           2.6274  -16.4871  -40.4081 N.am      7 UNK        -0.5000 
     40 C           1.3395  -16.2279  -40.6701 C.2       6 UNK         0.5000 
     41 O           0.4389  -17.0490  -40.5005 O.2       6 UNK        -0.5000 
     42 CA          1.0033  -14.8502  -41.2769 C.3       6 UNK         0.1400 
     43 CB          0.4095  -13.9210  -40.2098 C.3       6 UNK        -0.1800 
     44 N           2.1221  -14.1759  -41.9525 N.am      6 UNK        -0.5000 
     45 C           2.8137  -14.6763  -42.9905 C.2       5 UNK         0.5000 
     46 O           2.6022  -15.7951  -43.4542 O.2       5 UNK        -0.5000 
     47 CA          3.9313  -13.8237  -43.6205 C.3       5 UNK         0.1400 
     48 CB          3.6046  -13.4887  -45.0843 C.3       5 UNK        -0.1800 
     49 N           4.1974  -12.5859  -42.8912 N.am      5 UNK        -0.5000 
     50 C           4.9597  -12.4988  -41.7922 C.2       4 UNK         0.5000 
     51 O           5.5389  -13.4619  -41.2887 O.2       4 UNK        -0.5000 
     52 CA          5.0825  -11.1106  -41.1305 C.3       4 UNK         0.1400 
     53 CB          6.4034  -10.4383  -41.5349 C.3       4 UNK        -0.1800 
     54 N           3.9731  -10.2044  -41.4433 N.am      4 UNK        -0.5000 
     55 C           2.6986  -10.4010  -41.0809 C.2       3 UNK         0.5000 
     56 O           2.3299  -11.3765  -40.4252 O.2       3 UNK        -0.5000 
     57 CA          1.6551   -9.3556  -41.5299 C.3       3 UNK         0.1400 
     58 CB          2.1919   -8.3180  -42.5426 C.3       3 UNK        -0.1800 
     59 N           0.4332   -9.9839  -42.0442 N.am      3 UNK        -0.5000 
     60 C           0.3340  -10.8301  -43.0795 C.2       2 UNK         0.5000 
     61 O           1.2922  -11.2139  -43.7552 O.2       2 UNK        -0.5000 
     62 CA         -1.0907  -11.2923  -43.4256 C.3       2 UNK         0.1400 
     63 CB         -1.8796  -10.1497  -44.0880 C.3       2 UNK        -0.1800 
     64 N          -1.0617  -12.4250  -44.3516 N.am      2 UNK        -0.5000 
     65 C          -1.5352  -13.6459  -44.0825 C.2       1 UNK         0.5000 
     66 O          -2.0151  -13.9680  -42.9922 O.2       1 UNK        -0.5000 
     67 C          -1.0643  -21.2053  -48.5842 C.2       11 UNK         0.5000 
     68 O          -1.4807  -21.6784  -49.6412 O.2       11 UNK        -0.5000 
     69 N          -1.5942  -20.1165  -48.0060 N.am      12 UNK        -0.5000 
     70 CA         -2.7519  -19.3964  -48.5400 C.3       12 UNK         0.1400 
     71 CB         -2.8845  -18.0268  -47.8655 C.3       12 UNK        -0.1800 
     72 C          -4.0582  -20.1996  -48.4144 C.2       12 UNK         0.5000 
     73 O          -4.8846  -20.1479  -49.3242 O.2       12 UNK        -0.5000 
     74 N          -4.2117  -20.9637  -47.3232 N.am      13 UNK        -0.5000 
     75 CA         -5.3248  -21.8971  -47.1307 C.3       13 UNK         0.1400 
     76 CB         -5.2980  -22.4580  -45.7020 C.3       13 UNK        -0.1800 
     77 C          -5.3166  -23.0317  -48.1735 C.2       13 UNK         0.5000 
     78 O          -6.3612  -23.3411  -48.7466 O.2       13 UNK        -0.5000 
     79 N          -4.1284  -23.5872  -48.4512 N.am      14 UNK        -0.5000 
     80 CA         -3.9014  -24.5635  -49.5164 C.3       14 UNK         0.1400 
     81 CB         -2.4906  -25.1534  -49.3863 C.3       14 UNK        -0.1800 
     82 C          -4.1170  -23.9769  -50.9231 C.2       14 UNK         0.5000 
     83 O          -4.5413  -24.7041  -51.8205 O.2       14 UNK        -0.5000 
     84 N          -3.8332  -22.6818  -51.1092 N.am      15 UNK        -0.5000 
     85 CA         -4.0995  -21.9585  -52.3508 C.3       15 UNK         0.1400 
     86 CB         -3.3065  -20.6503  -52.3867 C.3       15 UNK        -0.1800 
     87 C          -5.5984  -21.7115  -52.5723 C.2       15 UNK         0.5000 
     88 O          -6.0755  -21.9057  -53.6892 O.2       15 UNK        -0.5000 
     89 N          -6.3244  -21.3576  -51.5028 N.am      16 UNK        -0.5000 
     90 CA         -7.7842  -21.2240  -51.4914 C.3       16 UNK         0.1400 
     91 CB         -8.2335  -20.6214  -50.1519 C.3       16 UNK        -0.1800 
     92 C          -8.5059  -22.5589  -51.7661 C.2       16 UNK         0.5000 
     93 O          -9.5435  -22.5667  -52.4287 O.2       16 UNK        -0.5000 
     94 N          -7.9126  -23.6659  -51.2986 N.am      17 UNK        -0.5000 
     95 CA         -8.3286  -25.0396  -51.5914 C.3       17 UNK         0.1400 
     96 CB         -7.7299  -25.9700  -50.5241 C.3       17 UNK        -0.1800 
     97 C          -7.9352  -25.5205  -53.0070 C.2       17 UNK         0.5000 
     98 O          -8.3418  -26.6158  -53.3965 O.2       17 UNK        -0.5000 
     99 N          -7.1463  -24.7170  -53.7387 N.am      18 UNK        -0.5000 
    100 CA        -6.5976  -24.9618  -55.0782 C.3       18 UNK         0.1400 
    101 CB        -7.7225  -25.0883  -56.1263 C.3       18 UNK        -0.1800 
    102 C         -5.5855  -26.1266  -55.1359 C.2       18 UNK         0.5000 
    103 O         -5.3688  -26.6962  -56.2067 O.2       18 UNK        -0.5000 
    104 N         -4.9653  -26.4465  -53.9933 N.am      19 UNK        -0.5000 
    105 CA        -3.9169  -27.4542  -53.8662 C.3       19 UNK         0.1400 
    106 CB        -3.9612  -28.0646  -52.4557 C.3       19 UNK        -0.1800 
    107 C         -2.5389  -26.8423  -54.1635 C.2       19 UNK         0.5000 
    108 O         -1.7814  -27.4099  -54.9511 O.2       19 UNK        -0.5000 
    109 N         -2.2467  -25.6887  -53.5435 N.am      20 UNK        -0.5000 
    110 CA        -1.0042  -24.9412  -53.7640 C.3       20 UNK         0.1400 
    111 CB        -0.6701  -24.0917  -52.5275 C.3       20 UNK        -0.1800 
    112 C         -1.0824  -24.0607  -55.0229 C.2       20 UNK         0.5000 
    113 O         -0.0991  -23.9711  -55.7579 O.2       20 UNK        -0.5000 
    114 N         -2.2583  -23.4479  -55.2408 N.am      21 UNK        -0.5000 
    115 CA        -2.6360  -22.5962  -56.3761 C.3       21 UNK         0.1400 
    116 CB        -2.9139  -23.4771  -57.6110 C.3       21 UNK        -0.1800 
    117 C         -1.6294  -21.4565  -56.6599 C.2       21 UNK         0.5000 
    118 O         -1.1682  -21.3059  -57.7930 O.2       21 UNK        -0.5000 
    119 N         -1.2826  -20.6931  -55.6132 N.am      22 UNK        -0.5000 
    120 CA        -0.2573  -19.6333  -55.6554 C.3       22 UNK         0.1400 
    121 C         -0.6128  -18.3598  -56.4832 C.2       22 UNK         0.5000 
    122 N         -1.8548  -18.1658  -56.9100 N.am      22 UNK        -0.7600 
    123 O          0.2604  -17.5390  -56.7518 O.2       22 UNK        -0.5000 
    124 C124        0.2742  -19.2920  -54.2374 C.3       23 UNK        -0.0398 
    125 S125       -0.8926  -18.3474  -53.1869 S.3       23 UNK        -0.2404 
    126 C126        0.1478  -16.9756  -52.5809 C.3       23 UNK        -0.0205 
    127 H127       -5.5458  -16.2619  -44.3738 H         1 UNK         0.0600 
    128 H128       -5.3435  -16.7745  -46.0526 H         1 UNK         0.0600 
    129 H129       -4.3127  -17.4544  -44.7916 H         1 UNK         0.0600 
    130 H130       -2.2739  -16.5734  -44.7772 H         1 UNK         0.3000 
    131 H131       -1.5549  -14.1677  -46.1698 H         1 UNK         0.0600 
    132 H132        0.1089  -15.8714  -44.2471 H         1 UNK         0.0800 
    133 H133        0.7418  -14.6503  -45.3232 H         1 UNK         0.0800 
    134 H134        0.6912  -14.8980  -48.0251 H         1 UNK         0.0800 
    135 H135        2.1222  -15.6076  -47.3040 H         1 UNK         0.0800 
    136 H136        0.0343  -15.6056  -50.2214 H         1 UNK         0.1150 
    137 H137        1.8275  -19.0721  -52.0056 H         1 UNK         0.1150 
    138 H138        2.6604  -18.0902  -47.9249 H         1 UNK         0.1150 
    139 H139        3.8052  -20.0699  -50.7260 H         1 UNK         0.0800 
    140 H140        3.8496  -19.9147  -48.9876 H         1 UNK         0.0800 
    141 H141        1.3804  -20.1987  -47.7767 H         1 UNK         0.0800 
    142 H142        2.1662  -21.6787  -47.3210 H         1 UNK         0.0800 
    143 H143        0.1259  -22.9464  -48.2094 H         1 UNK         0.0600 
    144 H144        0.2613  -21.3988  -45.7853 H         1 UNK         0.3000 
    145 H145       -2.5246  -22.8528  -44.1625 H         1 UNK         0.0600 
    146 H146       -0.8821  -23.7373  -42.5315 H         1 UNK         0.0600 
    147 H147       -0.9067  -24.7484  -43.9673 H         1 UNK         0.0600 
    148 H148        0.4130  -23.6102  -43.7229 H         1 UNK         0.0600 
    149 H149       -0.3438  -21.3187  -43.1655 H         1 UNK         0.3000 
    150 H150       -1.1581  -18.1915  -44.4581 H         1 UNK         0.0600 
    151 H151       -2.9565  -18.3294  -42.6838 H         1 UNK         0.0600 
    152 H152       -1.5983  -17.3135  -42.2406 H         1 UNK         0.0600 
    153 H153       -1.7467  -18.9337  -41.5575 H         1 UNK         0.0600 
    154 H154        0.5916  -18.6153  -42.3610 H         1 UNK         0.3000 
    155 H155        3.1021  -20.3165  -43.3243 H         1 UNK         0.0600 
    156 H156        3.4082  -17.7889  -45.0267 H         1 UNK         0.0600 
    157 H157        3.7587  -19.4393  -45.5165 H         1 UNK         0.0600 
    158 H158        4.7503  -18.6659  -44.2916 H         1 UNK         0.0600 
    159 H159        2.8710  -17.4462  -42.5718 H         1 UNK         0.3000 
    160 H160        2.5817  -18.1452  -39.1516 H         1 UNK         0.0600 
    161 H161        4.7143  -16.9324  -38.7599 H         1 UNK         0.0600 
    162 H162        5.2358  -17.2631  -40.4123 H         1 UNK         0.0600 
    163 H163        5.0421  -18.5825  -39.2638 H         1 UNK         0.0600 
    164 H164        3.3049  -15.7579  -40.5781 H         1 UNK         0.3000 
    165 H165        0.2345  -15.0273  -42.0283 H         1 UNK         0.0600 
    166 H166        0.0568  -12.9892  -40.6520 H         1 UNK         0.0600 
    167 H167       -0.4450  -14.3861  -39.7166 H         1 UNK         0.0600 
    168 H168        1.1414  -13.6750  -39.4397 H         1 UNK         0.0600 
    169 H169        2.3542  -13.2492  -41.6154 H         1 UNK         0.3000 
    170 H170        4.8366  -14.4344  -43.6169 H         1 UNK         0.0600 
    171 H171        3.4857  -14.3985  -45.6735 H         1 UNK         0.0600 
    172 H172        2.6813  -12.9173  -45.1753 H         1 UNK         0.0600 
    173 H173        4.4048  -12.9093  -45.5449 H         1 UNK         0.0600 
    174 H174        3.7150  -11.7594  -43.2182 H         1 UNK         0.3000 
    175 H175        5.0942  -11.2658  -40.0497 H         1 UNK         0.0600 
    176 H176        6.4409  -10.2375  -42.6063 H         1 UNK         0.0600 
    177 H177        6.5427   -9.4931  -41.0098 H         1 UNK         0.0600 
    178 H178        7.2563  -11.0728  -41.2898 H         1 UNK         0.0600 
    179 H179        4.1990   -9.3854  -41.9889 H         1 UNK         0.3000 
    180 H180        1.3654   -8.8157  -40.6274 H         1 UNK         0.0600 
    181 H181        2.5559   -8.7871  -43.4576 H         1 UNK         0.0600 
    182 H182        3.0076   -7.7320  -42.1177 H         1 UNK         0.0600 
    183 H183        1.4109   -7.6118  -42.8249 H         1 UNK         0.0600 
    184 H184       -0.4092   -9.7536  -41.5365 H         1 UNK         0.3000 
    185 H185       -1.5884  -11.5644  -42.4925 H         1 UNK         0.0600 
    186 H186       -1.9633   -9.2877  -43.4252 H         1 UNK         0.0600 
    187 H187       -1.4017   -9.8110  -45.0083 H         1 UNK         0.0600 
    188 H188       -2.8936  -10.4652  -44.3350 H         1 UNK         0.0600 
    189 H189       -0.6037  -12.2476  -45.2346 H         1 UNK         0.3000 
    190 H190       -1.2246  -19.8000  -47.1214 H         1 UNK         0.3000 
    191 H191       -2.5786  -19.2217  -49.6038 H         1 UNK         0.0600 
    192 H192       -2.8577  -18.1092  -46.7797 H         1 UNK         0.0600 
    193 H193       -3.8208  -17.5387  -48.1392 H         1 UNK         0.0600 
    194 H194       -2.0795  -17.3640  -48.1795 H         1 UNK         0.0600 
    195 H195       -3.5264  -20.8957  -46.5778 H         1 UNK         0.3000 
    196 H196       -6.2530  -21.3357  -47.2553 H         1 UNK         0.0600 
    197 H197       -4.4285  -23.0916  -45.5331 H         1 UNK         0.0600 
    198 H198       -6.1837  -23.0641  -45.5084 H         1 UNK         0.0600 
    199 H199       -5.2812  -21.6578  -44.9617 H         1 UNK         0.0600 
    200 H200       -3.3194  -23.3276  -47.8941 H         1 UNK         0.3000 
    201 H201       -4.6189  -25.3754  -49.3859 H         1 UNK         0.0600 
    202 H202       -2.3622  -25.6552  -48.4271 H         1 UNK         0.0600 
    203 H203       -1.7234  -24.3829  -49.4630 H         1 UNK         0.0600 
    204 H204       -2.2983  -25.8908  -50.1665 H         1 UNK         0.0600 
    205 H205       -3.3902  -22.1648  -50.3583 H         1 UNK         0.3000 
    206 H206       -3.7495  -22.5764  -53.1765 H         1 UNK         0.0600 
    207 H207       -2.2430  -20.8337  -52.2333 H         1 UNK         0.0600 
    208 H208       -3.4221  -20.1537  -53.3505 H         1 UNK         0.0600 
    209 H209       -3.6385  -19.9495  -51.6226 H         1 UNK         0.0600 
    210 H210       -5.8399  -21.1543  -50.6321 H         1 UNK         0.3000 
    211 H211       -8.0607  -20.5290  -52.2868 H         1 UNK         0.0600 
    212 H212       -7.9789  -21.2679  -49.3121 H         1 UNK         0.0600 
    213 H213       -9.3135  -20.4706  -50.1345 H         1 UNK         0.0600 
    214 H214       -7.7658  -19.6517  -49.9797 H         1 UNK         0.0600 
    215 H215       -7.1094  -23.5565  -50.6891 H         1 UNK         0.3000 
    216 H216       -9.4166  -25.0940  -51.5191 H         1 UNK         0.0600 
    217 H217       -8.0873  -26.9926  -50.6502 H         1 UNK         0.0600 
    218 H218       -8.0076  -25.6510  -49.5193 H         1 UNK         0.0600 
    219 H219       -6.6419  -25.9959  -50.5796 H         1 UNK         0.0600 
    220 H220       -6.8751  -23.8307  -53.3312 H         1 UNK         0.3000 
    221 H221       -6.0245  -24.0691  -55.3307 H         1 UNK         0.0600 
    222 H222       -8.2951  -26.0073  -55.9996 H         1 UNK         0.0600 
    223 H223       -8.4149  -24.2488  -56.0636 H         1 UNK         0.0600 
    224 H224       -7.3156  -25.0957  -57.1381 H         1 UNK         0.0600 
    225 H225       -5.1494  -25.8836  -53.1676 H         1 UNK         0.3000 
    226 H226       -4.0950  -28.2582  -54.5837 H         1 UNK         0.0600 
    227 H227       -4.9251  -28.5362  -52.2639 H         1 UNK         0.0600 
    228 H228       -3.1945  -28.8315  -52.3393 H         1 UNK         0.0600 
    229 H229       -3.7976  -27.3170  -51.6794 H         1 UNK         0.0600 
    230 H230       -2.9311  -25.2964  -52.9080 H         1 UNK         0.3000 
    231 H231       -0.1845  -25.6495  -53.9046 H         1 UNK         0.0600 
    232 H232       -0.5551  -24.7147  -51.6413 H         1 UNK         0.0600 
    233 H233       -1.4360  -23.3464  -52.3203 H         1 UNK         0.0600 
    234 H234        0.2699  -23.5560  -52.6664 H         1 UNK         0.0600 
    235 H235       -2.9924  -23.6286  -54.5749 H         1 UNK         0.3000 
    236 H236       -3.5744  -22.1114  -56.1020 H         1 UNK         0.0600 
    237 H237       -3.2844  -22.8798  -58.4449 H         1 UNK         0.0600 
    238 H238       -2.0138  -23.9921  -57.9485 H         1 UNK         0.0600 
    239 H239       -3.6690  -24.2330  -57.3938 H         1 UNK         0.0600 
    240 H240       -1.7007  -20.8691  -54.7129 H         1 UNK         0.3000 
    241 H241        0.5891  -20.0720  -56.1880 H         1 UNK         0.0600 
    242 H242       -2.0718  -17.3420  -57.4486 H         1 UNK         0.3800 
    243 H243       -2.5794  -18.8313  -56.6968 H         1 UNK         0.3800 
    244 H244        0.5343  -20.2119  -53.7118 H         1 UNK         0.0800 
    245 H245        1.2096  -18.7389  -54.3309 H         1 UNK         0.0800 
    246 H246        0.8847  -16.6915  -53.3330 H         1 UNK         0.0800 
    247 H247       -0.4975  -16.1054  -52.4529 H         1 UNK         0.0800 
@<TRIPOS>BOND
     1    1    2 1    
     2    1  127 1    
     3    1  128 1    
     4    1  129 1    
     5    2    3 2    
     6    2    4 am   BACKBONE|DICT|INTERRES
     7    4    5 1    
     8    4  130 1    
     9    5    6 1    
    10    5   65 1    
    11    5  131 1    
    12    6    7 1    
    13    6  132 1    
    14    6  133 1    
    15    7    8 1    
    16    8    9 1    
    17    8  134 1    
    18    8  135 1    
    19    9   10 ar   
    20    9   14 ar   
    21   10   11 ar   
    22   10  136 1    
    23   11   12 ar   
    24   11  126 1    
    25   12   13 ar   
    26   12  137 1    
    27   13   14 ar   
    28   13   15 1    
    29   14  138 1    
    30   15   16 1    
    31   15  139 1    
    32   15  140 1    
    33   16   17 1    
    34   17   18 1    
    35   17  141 1    
    36   17  142 1    
    37   18   19 1    
    38   18   67 1    
    39   18  143 1    
    40   19   20 am   BACKBONE|DICT|INTERRES
    41   19  144 1    
    42   20   21 2    
    43   20   22 1    
    44   22   23 1    
    45   22   24 1    
    46   22  145 1    
    47   23  146 1    
    48   23  147 1    
    49   23  148 1    
    50   24   25 am   BACKBONE|DICT|INTERRES
    51   24  149 1    
    52   25   26 2    
    53   25   27 1    
    54   27   28 1    
    55   27   29 1    
    56   27  150 1    
    57   28  151 1    
    58   28  152 1    
    59   28  153 1    
    60   29   30 am   BACKBONE|DICT|INTERRES
    61   29  154 1    
    62   30   31 2    
    63   30   32 1    
    64   32   33 1    
    65   32   34 1    
    66   32  155 1    
    67   33  156 1    
    68   33  157 1    
    69   33  158 1    
    70   34   35 am   BACKBONE|DICT|INTERRES
    71   34  159 1    
    72   35   36 2    
    73   35   37 1    
    74   37   38 1    
    75   37   39 1    
    76   37  160 1    
    77   38  161 1    
    78   38  162 1    
    79   38  163 1    
    80   39   40 am   BACKBONE|DICT|INTERRES
    81   39  164 1    
    82   40   41 2    
    83   40   42 1    
    84   42   43 1    
    85   42   44 1    
    86   42  165 1    
    87   43  166 1    
    88   43  167 1    
    89   43  168 1    
    90   44   45 am   BACKBONE|DICT|INTERRES
    91   44  169 1    
    92   45   46 2    
    93   45   47 1    
    94   47   48 1    
    95   47   49 1    
    96   47  170 1    
    97   48  171 1    
    98   48  172 1    
    99   48  173 1    
   100   49   50 am   BACKBONE|DICT|INTERRES
   101   49  174 1    
   102   50   51 2    
   103   50   52 1    
   104   52   53 1    
   105   52   54 1    
   106   52  175 1    
   107   53  176 1    
   108   53  177 1    
   109   53  178 1    
   110   54   55 am   BACKBONE|DICT|INTERRES
   111   54  179 1    
   112   55   56 2    
   113   55   57 1    
   114   57   58 1    
   115   57   59 1    
   116   57  180 1    
   117   58  181 1    
   118   58  182 1    
   119   58  183 1    
   120   59   60 am   BACKBONE|DICT|INTERRES
   121   59  184 1    
   122   60   61 2    
   123   60   62 1    
   124   62   63 1    
   125   62   64 1    
   126   62  185 1    
   127   63  186 1    
   128   63  187 1    
   129   63  188 1    
   130   64   65 am   BACKBONE|DICT|INTERRES
   131   64  189 1    
   132   65   66 2    
   133   67   68 2    
   134   67   69 am   BACKBONE|DICT|INTERRES
   135   69   70 1    
   136   69  190 1    
   137   70   71 1    
   138   70   72 1    
   139   70  191 1    
   140   71  192 1    
   141   71  193 1    
   142   71  194 1    
   143   72   73 2    
   144   72   74 am   BACKBONE|DICT|INTERRES
   145   74   75 1    
   146   74  195 1    
   147   75   76 1    
   148   75   77 1    
   149   75  196 1    
   150   76  197 1    
   151   76  198 1    
   152   76  199 1    
   153   77   78 2    
   154   77   79 am   BACKBONE|DICT|INTERRES
   155   79   80 1    
   156   79  200 1    
   157   80   81 1    
   158   80   82 1    
   159   80  201 1    
   160   81  202 1    
   161   81  203 1    
   162   81  204 1    
   163   82   83 2    
   164   82   84 am   BACKBONE|DICT|INTERRES
   165   84   85 1    
   166   84  205 1    
   167   85   86 1    
   168   85   87 1    
   169   85  206 1    
   170   86  207 1    
   171   86  208 1    
   172   86  209 1    
   173   87   88 2    
   174   87   89 am   BACKBONE|DICT|INTERRES
   175   89   90 1    
   176   89  210 1    
   177   90   91 1    
   178   90   92 1    
   179   90  211 1    
   180   91  212 1    
   181   91  213 1    
   182   91  214 1    
   183   92   93 2    
   184   92   94 am   BACKBONE|DICT|INTERRES
   185   94   95 1    
   186   94  215 1    
   187   95   96 1    
   188   95   97 1    
   189   95  216 1    
   190   96  217 1    
   191   96  218 1    
   192   96  219 1    
   193   97   98 2    
   194   97   99 am   BACKBONE|DICT|INTERRES
   195   99  100 1    
   196   99  220 1    
   197  100  101 1    
   198  100  102 1    
   199  100  221 1    
   200  101  222 1    
   201  101  223 1    
   202  101  224 1    
   203  102  103 2    
   204  102  104 am   BACKBONE|DICT|INTERRES
   205  104  105 1    
   206  104  225 1    
   207  105  106 1    
   208  105  107 1    
   209  105  226 1    
   210  106  227 1    
   211  106  228 1    
   212  106  229 1    
   213  107  108 2    
   214  107  109 am   BACKBONE|DICT|INTERRES
   215  109  110 1    
   216  109  230 1    
   217  110  111 1    
   218  110  112 1    
   219  110  231 1    
   220  111  232 1    
   221  111  233 1    
   222  111  234 1    
   223  112  113 2    
   224  112  114 am   BACKBONE|DICT|INTERRES
   225  114  115 1    
   226  114  235 1    
   227  115  116 1    
   228  115  117 1    
   229  115  236 1    
   230  116  237 1    
   231  116  238 1    
   232  116  239 1    
   233  117  118 2    
   234  117  119 am   BACKBONE|DICT|INTERRES
   235  119  120 1    
   236  119  240 1    
   237  120  121 1    
   238  120  124 1    
   239  120  241 1    
   240  121  122 am   BACKBONE|DICT|INTERRES
   241  121  123 2    
   242  122  242 1    
   243  122  243 1    
   244  124  125 1    
   245  124  244 1    
   246  124  245 1    
   247  125  126 1    
   248  126  246 1    
   249  126  247 1    
@<TRIPOS>SUBSTRUCTURE
     1 UNK         1 GROUP             0       ****    0 ROOT    
