@<TRIPOS>MOLECULE
3R540
247   249    1
SMALL
USER_CHARGES


@<TRIPOS>ATOM
      1 CA         -0.5763  -12.6091  -48.3404 C.3       0 UNK        -0.1800 
      2 C           0.9158  -12.6855  -48.6289 C.2       0 UNK         0.5000 
      3 O           1.3301  -12.5104  -49.7742 O.2       0 UNK        -0.5000 
      4 N           1.7261  -12.9053  -47.5867 N.am      1 UNK        -0.5000 
      5 CA          3.1944  -12.9460  -47.6454 C.3       1 UNK         0.1400 
      6 C6          3.7828  -14.1001  -46.7923 C.3       23 UNK        -0.0398 
      7 S7          3.1458  -15.7352  -47.2790 S.3       23 UNK        -0.2404 
      8 C8          4.3500  -16.2224  -48.5468 C.3       23 UNK        -0.0205 
      9 C9          4.0072  -17.5878  -49.1180 C.ar      23 UNK        -0.0193 
     10 C10         3.2823  -17.6983  -50.3097 C.ar      23 UNK        -0.1150 
     11 C11         2.9688  -18.9573  -50.8321 C.ar      23 UNK        -0.0193 
     12 C12         3.3975  -20.1043  -50.1619 C.ar      23 UNK        -0.1150 
     13 C13         4.1022  -20.0065  -48.9595 C.ar      23 UNK        -0.0193 
     14 C14         4.4105  -18.7449  -48.4454 C.ar      23 UNK        -0.1150 
     15 C15         4.5085  -21.2653  -48.2083 C.3       23 UNK        -0.0205 
     16 S16         3.2703  -21.7275  -46.9544 S.3       23 UNK        -0.2404 
     17 C17         1.7943  -21.9811  -47.9968 C.3       23 UNK        -0.0398 
     18 CA          0.7527  -22.9123  -47.3447 C.3       11 UNK         0.1400 
     19 N           0.1235  -22.3235  -46.1608 N.am      11 UNK        -0.5000 
     20 C          -0.6670  -23.0011  -45.3173 C.2       10 UNK         0.5000 
     21 O          -0.9248  -24.1989  -45.4348 O.2       10 UNK        -0.5000 
     22 CA         -1.3216  -22.2004  -44.1799 C.3       10 UNK         0.1400 
     23 CB         -0.3214  -21.9478  -43.0421 C.3       10 UNK        -0.1800 
     24 N          -1.8938  -20.9330  -44.6357 N.am      10 UNK        -0.5000 
     25 C          -2.8807  -20.8267  -45.5376 C.2       9 UNK         0.5000 
     26 O          -3.4208  -21.7925  -46.0760 O.2       9 UNK        -0.5000 
     27 CA         -3.3144  -19.4055  -45.9310 C.3       9 UNK         0.1400 
     28 CB         -4.2028  -18.7772  -44.8473 C.3       9 UNK        -0.1800 
     29 N          -2.1773  -18.5294  -46.2015 N.am      9 UNK        -0.5000 
     30 C          -1.3140  -18.6827  -47.2148 C.2       8 UNK         0.5000 
     31 O          -1.4209  -19.5419  -48.0900 O.2       8 UNK        -0.5000 
     32 CA         -0.1141  -17.7214  -47.2399 C.3       8 UNK         0.1400 
     33 CB         -0.5175  -16.3626  -47.8332 C.3       8 UNK        -0.1800 
     34 N           0.4626  -17.5150  -45.9125 N.am      8 UNK        -0.5000 
     35 C           1.0164  -18.4751  -45.1596 C.2       7 UNK         0.5000 
     36 O           1.1000  -19.6541  -45.4995 O.2       7 UNK        -0.5000 
     37 CA          1.4950  -18.0495  -43.7607 C.3       7 UNK         0.1400 
     38 CB          2.8369  -17.3056  -43.8372 C.3       7 UNK        -0.1800 
     39 N           0.5115  -17.2097  -43.0756 N.am      7 UNK        -0.5000 
     40 C          -0.7031  -17.6267  -42.6905 C.2       6 UNK         0.5000 
     41 O          -1.1102  -18.7787  -42.8317 O.2       6 UNK        -0.5000 
     42 CA         -1.6383  -16.5617  -42.0918 C.3       6 UNK         0.1400 
     43 CB         -1.3442  -16.3595  -40.5979 C.3       6 UNK        -0.1800 
     44 N          -1.5551  -15.2725  -42.7819 N.am      6 UNK        -0.5000 
     45 C          -1.8695  -15.0700  -44.0706 C.2       5 UNK         0.5000 
     46 O          -2.2493  -15.9671  -44.8218 O.2       5 UNK        -0.5000 
     47 CA         -1.7263  -13.6391  -44.6220 C.3       5 UNK         0.1400 
     48 CB         -3.1083  -13.0028  -44.8313 C.3       5 UNK        -0.1800 
     49 N          -0.9308  -12.7813  -43.7388 N.am      5 UNK        -0.5000 
     50 C           0.3884  -12.5936  -43.8550 C.2       4 UNK         0.5000 
     51 O           1.0681  -13.0257  -44.7906 O.2       4 UNK        -0.5000 
     52 CA          1.0648  -11.8349  -42.7059 C.3       4 UNK         0.1400 
     53 CB          1.3643  -12.7987  -41.5404 C.3       4 UNK        -0.1800 
     54 N           2.2995  -11.2310  -43.1938 N.am      4 UNK        -0.5000 
     55 C           3.0070  -10.2805  -42.5702 C.2       3 UNK         0.5000 
     56 O           2.6950   -9.7964  -41.4814 O.2       3 UNK        -0.5000 
     57 CA          4.2727   -9.7741  -43.2877 C.3       3 UNK         0.1400 
     58 CB          5.4841  -10.6452  -42.9219 C.3       3 UNK        -0.1800 
     59 N           4.1239   -9.7508  -44.7422 N.am      3 UNK        -0.5000 
     60 C           3.3587   -8.8927  -45.4266 C.2       2 UNK         0.5000 
     61 O           2.7298   -7.9730  -44.9022 O.2       2 UNK        -0.5000 
     62 CA          3.2496   -9.1114  -46.9480 C.3       2 UNK         0.1400 
     63 CB          4.4637   -8.5228  -47.6919 C.3       2 UNK        -0.1800 
     64 N           2.9959  -10.5080  -47.3298 N.am      2 UNK        -0.5000 
     65 C           3.7965  -11.5816  -47.2362 C.2       1 UNK         0.5000 
     66 O           4.9500  -11.5273  -46.8064 O.2       1 UNK        -0.5000 
     67 C          -0.2889  -23.3667  -48.3857 C.2       11 UNK         0.5000 
     68 O          -0.1567  -24.4702  -48.9135 O.2       11 UNK        -0.5000 
     69 N          -1.3169  -22.5429  -48.6419 N.am      12 UNK        -0.5000 
     70 CA         -2.4186  -22.8736  -49.5499 C.3       12 UNK         0.1400 
     71 CB         -3.3161  -21.6456  -49.7475 C.3       12 UNK        -0.1800 
     72 C          -3.2403  -24.0852  -49.0737 C.2       12 UNK         0.5000 
     73 O          -3.5736  -24.9476  -49.8875 O.2       12 UNK        -0.5000 
     74 N          -3.5087  -24.1536  -47.7622 N.am      13 UNK        -0.5000 
     75 CA         -4.1721  -25.2804  -47.1086 C.3       13 UNK         0.1400 
     76 CB         -4.5142  -24.9102  -45.6576 C.3       13 UNK        -0.1800 
     77 C          -3.3363  -26.5718  -47.1651 C.2       13 UNK         0.5000 
     78 O          -3.8828  -27.6270  -47.4863 O.2       13 UNK        -0.5000 
     79 N          -2.0276  -26.4641  -46.8911 N.am      14 UNK        -0.5000 
     80 CA         -1.0687  -27.5709  -46.9514 C.3       14 UNK         0.1400 
     81 CB          0.2759  -27.1212  -46.3602 C.3       14 UNK        -0.1800 
     82 C          -0.8770  -28.1266  -48.3750 C.2       14 UNK         0.5000 
     83 O          -0.7824  -29.3425  -48.5459 O.2       14 UNK        -0.5000 
     84 N          -0.8539  -27.2310  -49.3711 N.am      15 UNK        -0.5000 
     85 CA         -0.7916  -27.5638  -50.7957 C.3       15 UNK         0.1400 
     86 CB         -0.3771  -26.3077  -51.5787 C.3       15 UNK        -0.1800 
     87 C          -2.1162  -28.1205  -51.3557 C.2       15 UNK         0.5000 
     88 O          -2.1062  -28.7026  -52.4410 O.2       15 UNK        -0.5000 
     89 N          -3.2219  -27.9116  -50.6244 N.am      16 UNK        -0.5000 
     90 CA         -4.6100  -28.2028  -50.9944 C.3       16 UNK         0.1400 
     91 CB         -4.8477  -29.7232  -51.1060 C.3       16 UNK        -0.1800 
     92 C          -5.0443  -27.4163  -52.2491 C.2       16 UNK         0.5000 
     93 O          -5.6522  -27.9775  -53.1635 O.2       16 UNK        -0.5000 
     94 N          -4.6881  -26.1256  -52.2746 N.am      17 UNK        -0.5000 
     95 CA         -4.9864  -25.1894  -53.3550 C.3       17 UNK         0.1400 
     96 CB         -4.1424  -23.9212  -53.1482 C.3       17 UNK        -0.1800 
     97 C          -6.4833  -24.8323  -53.4243 C.2       17 UNK         0.5000 
     98 O          -7.1943  -24.9239  -52.4201 O.2       17 UNK        -0.5000 
     99 N          -6.9251  -24.3968  -54.6115 N.am      18 UNK        -0.5000 
    100 CA        -8.2801  -23.8912  -54.8496 C.3       18 UNK         0.1400 
    101 CB        -8.5523  -23.8695  -56.3617 C.3       18 UNK        -0.1800 
    102 C         -8.5045  -22.4937  -54.2384 C.2       18 UNK         0.5000 
    103 O         -9.6290  -22.1713  -53.8526 O.2       18 UNK        -0.5000 
    104 N         -7.4311  -21.6960  -54.1559 N.am      19 UNK        -0.5000 
    105 CA        -7.4020  -20.4061  -53.4718 C.3       19 UNK         0.1400 
    106 CB        -6.1925  -19.6036  -53.9764 C.3       19 UNK        -0.1800 
    107 C         -7.3145  -20.6024  -51.9486 C.2       19 UNK         0.5000 
    108 O         -6.6683  -21.5464  -51.4895 O.2       19 UNK        -0.5000 
    109 N         -7.9346  -19.6881  -51.1926 N.am      20 UNK        -0.5000 
    110 CA        -7.9260  -19.6907  -49.7263 C.3       20 UNK         0.1400 
    111 CB        -9.0160  -18.7345  -49.2177 C.3       20 UNK        -0.1800 
    112 C         -6.5582  -19.3170  -49.1215 C.2       20 UNK         0.5000 
    113 O         -6.2604  -19.7300  -48.0012 O.2       20 UNK        -0.5000 
    114 N         -5.7603  -18.5475  -49.8692 N.am      21 UNK        -0.5000 
    115 CA        -4.4166  -18.1047  -49.5247 C.3       21 UNK         0.1400 
    116 CB        -4.4850  -16.9435  -48.5144 C.3       21 UNK        -0.1800 
    117 C         -3.7086  -17.6657  -50.8121 C.2       21 UNK         0.5000 
    118 O         -4.3811  -17.2768  -51.7714 O.2       21 UNK        -0.5000 
    119 N         -2.3718  -17.7075  -50.8016 N.am      22 UNK        -0.5000 
    120 CA        -1.5114  -17.0950  -51.8281 C.3       22 UNK         0.1400 
    121 C         -1.7116  -15.5551  -51.9400 C.2       22 UNK         0.5000 
    122 N         -1.6284  -14.9989  -53.1409 N.am      22 UNK        -0.7600 
    123 O         -1.8985  -14.8584  -50.9456 O.2       22 UNK        -0.5000 
    124 C124       -0.0141  -17.4084  -51.5819 C.3       23 UNK        -0.0398 
    125 S125        0.3744  -19.1786  -51.7676 S.3       23 UNK        -0.2404 
    126 C126        2.1615  -19.0959  -52.1134 C.3       23 UNK        -0.0205 
    127 H127       -0.7650  -12.2626  -47.3249 H         1 UNK         0.0600 
    128 H128       -1.0405  -13.5858  -48.4716 H         1 UNK         0.0600 
    129 H129       -1.0592  -11.9114  -49.0246 H         1 UNK         0.0600 
    130 H130        1.3385  -13.0247  -46.6530 H         1 UNK         0.3000 
    131 H131        3.5138  -13.1146  -48.6755 H         1 UNK         0.0600 
    132 H132        3.5459  -13.9511  -45.7375 H         1 UNK         0.0800 
    133 H133        4.8720  -14.1223  -46.8579 H         1 UNK         0.0800 
    134 H134        4.3682  -15.4735  -49.3398 H         1 UNK         0.0800 
    135 H135        5.3510  -16.2435  -48.1132 H         1 UNK         0.0800 
    136 H136        2.9560  -16.8059  -50.8249 H         1 UNK         0.1150 
    137 H137        3.1579  -21.0768  -50.5676 H         1 UNK         0.1150 
    138 H138        4.9515  -18.6629  -47.5130 H         1 UNK         0.1150 
    139 H139        4.6529  -22.0948  -48.9023 H         1 UNK         0.0800 
    140 H140        5.4696  -21.1087  -47.7166 H         1 UNK         0.0800 
    141 H141        2.1278  -22.4086  -48.9438 H         1 UNK         0.0800 
    142 H142        1.3524  -21.0095  -48.2281 H         1 UNK         0.0800 
    143 H143        1.2763  -23.8126  -47.0152 H         1 UNK         0.0600 
    144 H144        0.3319  -21.3455  -45.9723 H         1 UNK         0.3000 
    145 H145       -2.1390  -22.8047  -43.7812 H         1 UNK         0.0600 
    146 H146       -0.8073  -21.4742  -42.1891 H         1 UNK         0.0600 
    147 H147        0.1140  -22.8836  -42.6894 H         1 UNK         0.0600 
    148 H148        0.4980  -21.3032  -43.3608 H         1 UNK         0.0600 
    149 H149       -1.5216  -20.0898  -44.2083 H         1 UNK         0.3000 
    150 H150       -3.9024  -19.4856  -46.8444 H         1 UNK         0.0600 
    151 H151       -5.0805  -19.3963  -44.6578 H         1 UNK         0.0600 
    152 H152       -4.5584  -17.7928  -45.1515 H         1 UNK         0.0600 
    153 H153       -3.6696  -18.6615  -43.9035 H         1 UNK         0.0600 
    154 H154       -2.0448  -17.7482  -45.5655 H         1 UNK         0.3000 
    155 H155        0.6549  -18.1631  -47.8781 H         1 UNK         0.0600 
    156 H156       -1.1979  -15.8173  -47.1814 H         1 UNK         0.0600 
    157 H157       -1.0229  -16.4788  -48.7887 H         1 UNK         0.0600 
    158 H158        0.3521  -15.7319  -48.0085 H         1 UNK         0.0600 
    159 H159        0.4175  -16.5789  -45.5413 H         1 UNK         0.3000 
    160 H160        1.6409  -18.9562  -43.1697 H         1 UNK         0.0600 
    161 H161        2.7362  -16.3402  -44.3340 H         1 UNK         0.0600 
    162 H162        3.5752  -17.8857  -44.3928 H         1 UNK         0.0600 
    163 H163        3.2446  -17.1274  -42.8421 H         1 UNK         0.0600 
    164 H164        0.7587  -16.2430  -42.9280 H         1 UNK         0.3000 
    165 H165       -2.6622  -16.9281  -42.1922 H         1 UNK         0.0600 
    166 H166       -2.0594  -15.6729  -40.1445 H         1 UNK         0.0600 
    167 H167       -1.4139  -17.3035  -40.0556 H         1 UNK         0.0600 
    168 H168       -0.3430  -15.9593  -40.4330 H         1 UNK         0.0600 
    169 H169       -1.2558  -14.4843  -42.2302 H         1 UNK         0.3000 
    170 H170       -1.2427  -13.7248  -45.5959 H         1 UNK         0.0600 
    171 H171       -3.7191  -13.6071  -45.5037 H         1 UNK         0.0600 
    172 H172       -3.6537  -12.9026  -43.8921 H         1 UNK         0.0600 
    173 H173       -3.0208  -12.0118  -45.2771 H         1 UNK         0.0600 
    174 H174       -1.4211  -12.3602  -42.9621 H         1 UNK         0.3000 
    175 H175        0.3940  -11.0423  -42.3681 H         1 UNK         0.0600 
    176 H176        2.0465  -13.5939  -41.8443 H         1 UNK         0.0600 
    177 H177        1.8157  -12.2787  -40.6957 H         1 UNK         0.0600 
    178 H178        0.4527  -13.2697  -41.1716 H         1 UNK         0.0600 
    179 H179        2.5986  -11.5669  -44.0995 H         1 UNK         0.3000 
    180 H180        4.4671   -8.7556  -42.9451 H         1 UNK         0.0600 
    181 H181        5.3581  -11.6739  -43.2624 H         1 UNK         0.0600 
    182 H182        5.6345  -10.6719  -41.8418 H         1 UNK         0.0600 
    183 H183        6.3990  -10.2544  -43.3676 H         1 UNK         0.0600 
    184 H184        4.6127  -10.4654  -45.2745 H         1 UNK         0.3000 
    185 H185        2.3701   -8.5565  -47.2788 H         1 UNK         0.0600 
    186 H186        4.5607   -7.4556  -47.4890 H         1 UNK         0.0600 
    187 H187        5.3995   -8.9944  -47.3914 H         1 UNK         0.0600 
    188 H188        4.3596   -8.6403  -48.7705 H         1 UNK         0.0600 
    189 H189        2.0616  -10.6866  -47.6699 H         1 UNK         0.3000 
    190 H190       -1.3567  -21.6348  -48.1915 H         1 UNK         0.3000 
    191 H191       -1.9855  -23.1320  -50.5184 H         1 UNK         0.0600 
    192 H192       -2.7588  -20.8241  -50.1972 H         1 UNK         0.0600 
    193 H193       -4.1536  -21.8694  -50.4081 H         1 UNK         0.0600 
    194 H194       -3.7323  -21.2986  -48.8014 H         1 UNK         0.0600 
    195 H195       -3.2460  -23.3727  -47.1664 H         1 UNK         0.3000 
    196 H196       -5.1082  -25.4675  -47.6388 H         1 UNK         0.0600 
    197 H197       -5.0235  -25.7324  -45.1537 H         1 UNK         0.0600 
    198 H198       -5.1756  -24.0445  -45.6188 H         1 UNK         0.0600 
    199 H199       -3.6207  -24.6723  -45.0799 H         1 UNK         0.0600 
    200 H200       -1.6623  -25.5654  -46.5870 H         1 UNK         0.3000 
    201 H201       -1.4571  -28.3808  -46.3306 H         1 UNK         0.0600 
    202 H202        0.1645  -26.8077  -45.3221 H         1 UNK         0.0600 
    203 H203        0.7012  -26.2865  -46.9179 H         1 UNK         0.0600 
    204 H204        1.0030  -27.9340  -46.3782 H         1 UNK         0.0600 
    205 H205       -0.8600  -26.2408  -49.1394 H         1 UNK         0.3000 
    206 H206       -0.0247  -28.3274  -50.9402 H         1 UNK         0.0600 
    207 H207        0.5892  -25.9330  -51.2409 H         1 UNK         0.0600 
    208 H208       -0.2885  -26.5197  -52.6449 H         1 UNK         0.0600 
    209 H209       -1.1070  -25.5052  -51.4626 H         1 UNK         0.0600 
    210 H210       -3.1095  -27.4034  -49.7571 H         1 UNK         0.3000 
    211 H211       -5.2267  -27.8329  -50.1740 H         1 UNK         0.0600 
    212 H212       -4.3028  -30.1615  -51.9423 H         1 UNK         0.0600 
    213 H213       -5.9056  -29.9411  -51.2561 H         1 UNK         0.0600 
    214 H214       -4.5366  -30.2367  -50.1962 H         1 UNK         0.0600 
    215 H215       -4.2334  -25.7348  -51.4523 H         1 UNK         0.3000 
    216 H216       -4.6937  -25.6561  -54.2979 H         1 UNK         0.0600 
    217 H217       -4.2698  -23.2219  -53.9751 H         1 UNK         0.0600 
    218 H218       -3.0801  -24.1577  -53.0828 H         1 UNK         0.0600 
    219 H219       -4.4267  -23.4008  -52.2332 H         1 UNK         0.0600 
    220 H220       -6.2876  -24.3646  -55.3942 H         1 UNK         0.3000 
    221 H221       -8.9935  -24.5757  -54.3854 H         1 UNK         0.0600 
    222 H222       -7.8616  -23.2087  -56.8870 H         1 UNK         0.0600 
    223 H223       -8.4592  -24.8660  -56.7937 H         1 UNK         0.0600 
    224 H224       -9.5641  -23.5193  -56.5705 H         1 UNK         0.0600 
    225 H225       -6.5419  -22.0630  -54.4576 H         1 UNK         0.3000 
    226 H226       -8.3138  -19.8553  -53.7130 H         1 UNK         0.0600 
    227 H227       -6.2346  -19.4621  -55.0565 H         1 UNK         0.0600 
    228 H228       -6.1640  -18.6128  -53.5215 H         1 UNK         0.0600 
    229 H229       -5.2504  -20.0998  -53.7384 H         1 UNK         0.0600 
    230 H230       -8.4430  -18.9386  -51.6396 H         1 UNK         0.3000 
    231 H231       -8.1711  -20.6987  -49.3843 H         1 UNK         0.0600 
    232 H232      -10.0015  -19.0320  -49.5765 H         1 UNK         0.0600 
    233 H233       -8.8347  -17.7086  -49.5410 H         1 UNK         0.0600 
    234 H234       -9.0555  -18.7325  -48.1276 H         1 UNK         0.0600 
    235 H235       -6.0612  -18.2659  -50.7936 H         1 UNK         0.3000 
    236 H236       -3.8656  -18.9380  -49.0920 H         1 UNK         0.0600 
    237 H237       -4.9704  -17.2474  -47.5875 H         1 UNK         0.0600 
    238 H238       -3.4883  -16.5882  -48.2533 H         1 UNK         0.0600 
    239 H239       -5.0387  -16.0951  -48.9181 H         1 UNK         0.0600 
    240 H240       -1.8967  -18.0964  -49.9998 H         1 UNK         0.3000 
    241 H241       -1.7983  -17.5341  -52.7858 H         1 UNK         0.0600 
    242 H242       -1.7416  -14.0005  -53.2229 H         1 UNK         0.3800 
    243 H243       -1.4722  -15.5474  -53.9724 H         1 UNK         0.3800 
    244 H244        0.3019  -17.0808  -50.5913 H         1 UNK         0.0800 
    245 H245        0.6019  -16.8544  -52.2925 H         1 UNK         0.0800 
    246 H246        2.3837  -18.2762  -52.7980 H         1 UNK         0.0800 
    247 H247        2.4559  -20.0076  -52.6356 H         1 UNK         0.0800 
@<TRIPOS>BOND
     1    1    2 1    
     2    1  127 1    
     3    1  128 1    
     4    1  129 1    
     5    2    3 2    
     6    2    4 am   BACKBONE|DICT|INTERRES
     7    4    5 1    
     8    4  130 1    
     9    5    6 1    
    10    5   65 1    
    11    5  131 1    
    12    6    7 1    
    13    6  132 1    
    14    6  133 1    
    15    7    8 1    
    16    8    9 1    
    17    8  134 1    
    18    8  135 1    
    19    9   10 ar   
    20    9   14 ar   
    21   10   11 ar   
    22   10  136 1    
    23   11   12 ar   
    24   11  126 1    
    25   12   13 ar   
    26   12  137 1    
    27   13   14 ar   
    28   13   15 1    
    29   14  138 1    
    30   15   16 1    
    31   15  139 1    
    32   15  140 1    
    33   16   17 1    
    34   17   18 1    
    35   17  141 1    
    36   17  142 1    
    37   18   19 1    
    38   18   67 1    
    39   18  143 1    
    40   19   20 am   BACKBONE|DICT|INTERRES
    41   19  144 1    
    42   20   21 2    
    43   20   22 1    
    44   22   23 1    
    45   22   24 1    
    46   22  145 1    
    47   23  146 1    
    48   23  147 1    
    49   23  148 1    
    50   24   25 am   BACKBONE|DICT|INTERRES
    51   24  149 1    
    52   25   26 2    
    53   25   27 1    
    54   27   28 1    
    55   27   29 1    
    56   27  150 1    
    57   28  151 1    
    58   28  152 1    
    59   28  153 1    
    60   29   30 am   BACKBONE|DICT|INTERRES
    61   29  154 1    
    62   30   31 2    
    63   30   32 1    
    64   32   33 1    
    65   32   34 1    
    66   32  155 1    
    67   33  156 1    
    68   33  157 1    
    69   33  158 1    
    70   34   35 am   BACKBONE|DICT|INTERRES
    71   34  159 1    
    72   35   36 2    
    73   35   37 1    
    74   37   38 1    
    75   37   39 1    
    76   37  160 1    
    77   38  161 1    
    78   38  162 1    
    79   38  163 1    
    80   39   40 am   BACKBONE|DICT|INTERRES
    81   39  164 1    
    82   40   41 2    
    83   40   42 1    
    84   42   43 1    
    85   42   44 1    
    86   42  165 1    
    87   43  166 1    
    88   43  167 1    
    89   43  168 1    
    90   44   45 am   BACKBONE|DICT|INTERRES
    91   44  169 1    
    92   45   46 2    
    93   45   47 1    
    94   47   48 1    
    95   47   49 1    
    96   47  170 1    
    97   48  171 1    
    98   48  172 1    
    99   48  173 1    
   100   49   50 am   BACKBONE|DICT|INTERRES
   101   49  174 1    
   102   50   51 2    
   103   50   52 1    
   104   52   53 1    
   105   52   54 1    
   106   52  175 1    
   107   53  176 1    
   108   53  177 1    
   109   53  178 1    
   110   54   55 am   BACKBONE|DICT|INTERRES
   111   54  179 1    
   112   55   56 2    
   113   55   57 1    
   114   57   58 1    
   115   57   59 1    
   116   57  180 1    
   117   58  181 1    
   118   58  182 1    
   119   58  183 1    
   120   59   60 am   BACKBONE|DICT|INTERRES
   121   59  184 1    
   122   60   61 2    
   123   60   62 1    
   124   62   63 1    
   125   62   64 1    
   126   62  185 1    
   127   63  186 1    
   128   63  187 1    
   129   63  188 1    
   130   64   65 am   BACKBONE|DICT|INTERRES
   131   64  189 1    
   132   65   66 2    
   133   67   68 2    
   134   67   69 am   BACKBONE|DICT|INTERRES
   135   69   70 1    
   136   69  190 1    
   137   70   71 1    
   138   70   72 1    
   139   70  191 1    
   140   71  192 1    
   141   71  193 1    
   142   71  194 1    
   143   72   73 2    
   144   72   74 am   BACKBONE|DICT|INTERRES
   145   74   75 1    
   146   74  195 1    
   147   75   76 1    
   148   75   77 1    
   149   75  196 1    
   150   76  197 1    
   151   76  198 1    
   152   76  199 1    
   153   77   78 2    
   154   77   79 am   BACKBONE|DICT|INTERRES
   155   79   80 1    
   156   79  200 1    
   157   80   81 1    
   158   80   82 1    
   159   80  201 1    
   160   81  202 1    
   161   81  203 1    
   162   81  204 1    
   163   82   83 2    
   164   82   84 am   BACKBONE|DICT|INTERRES
   165   84   85 1    
   166   84  205 1    
   167   85   86 1    
   168   85   87 1    
   169   85  206 1    
   170   86  207 1    
   171   86  208 1    
   172   86  209 1    
   173   87   88 2    
   174   87   89 am   BACKBONE|DICT|INTERRES
   175   89   90 1    
   176   89  210 1    
   177   90   91 1    
   178   90   92 1    
   179   90  211 1    
   180   91  212 1    
   181   91  213 1    
   182   91  214 1    
   183   92   93 2    
   184   92   94 am   BACKBONE|DICT|INTERRES
   185   94   95 1    
   186   94  215 1    
   187   95   96 1    
   188   95   97 1    
   189   95  216 1    
   190   96  217 1    
   191   96  218 1    
   192   96  219 1    
   193   97   98 2    
   194   97   99 am   BACKBONE|DICT|INTERRES
   195   99  100 1    
   196   99  220 1    
   197  100  101 1    
   198  100  102 1    
   199  100  221 1    
   200  101  222 1    
   201  101  223 1    
   202  101  224 1    
   203  102  103 2    
   204  102  104 am   BACKBONE|DICT|INTERRES
   205  104  105 1    
   206  104  225 1    
   207  105  106 1    
   208  105  107 1    
   209  105  226 1    
   210  106  227 1    
   211  106  228 1    
   212  106  229 1    
   213  107  108 2    
   214  107  109 am   BACKBONE|DICT|INTERRES
   215  109  110 1    
   216  109  230 1    
   217  110  111 1    
   218  110  112 1    
   219  110  231 1    
   220  111  232 1    
   221  111  233 1    
   222  111  234 1    
   223  112  113 2    
   224  112  114 am   BACKBONE|DICT|INTERRES
   225  114  115 1    
   226  114  235 1    
   227  115  116 1    
   228  115  117 1    
   229  115  236 1    
   230  116  237 1    
   231  116  238 1    
   232  116  239 1    
   233  117  118 2    
   234  117  119 am   BACKBONE|DICT|INTERRES
   235  119  120 1    
   236  119  240 1    
   237  120  121 1    
   238  120  124 1    
   239  120  241 1    
   240  121  122 am   BACKBONE|DICT|INTERRES
   241  121  123 2    
   242  122  242 1    
   243  122  243 1    
   244  124  125 1    
   245  124  244 1    
   246  124  245 1    
   247  125  126 1    
   248  126  246 1    
   249  126  247 1    
@<TRIPOS>SUBSTRUCTURE
     1 UNK         1 GROUP             0       ****    0 ROOT    
