@<TRIPOS>MOLECULE
3R540
247   249    1
SMALL
USER_CHARGES


@<TRIPOS>ATOM
      1 CA         -4.7589  -10.4399  -49.6310 C.3       0 UNK        -0.1800 
      2 C          -4.2138  -11.3029  -48.5019 C.2       0 UNK         0.5000 
      3 O          -4.0461  -10.8133  -47.3852 O.2       0 UNK        -0.5000 
      4 N          -3.9347  -12.5823  -48.7916 N.am      1 UNK        -0.5000 
      5 CA         -3.3953  -13.5849  -47.8591 C.3       1 UNK         0.1400 
      6 C6         -4.3419  -13.8596  -46.6536 C.3       23 UNK        -0.0398 
      7 S7         -4.3725  -15.6154  -46.1505 S.3       23 UNK        -0.2404 
      8 C8         -6.0398  -16.1037  -46.6953 C.3       23 UNK        -0.0205 
      9 C9         -6.3770  -17.5339  -46.2981 C.ar      23 UNK        -0.0193 
     10 C10        -6.5077  -18.5306  -47.2705 C.ar      23 UNK        -0.1150 
     11 C11        -6.8678  -19.8341  -46.9094 C.ar      23 UNK        -0.0193 
     12 C12        -7.0797  -20.1377  -45.5597 C.ar      23 UNK        -0.1150 
     13 C13        -6.9614  -19.1493  -44.5779 C.ar      23 UNK        -0.0193 
     14 C14        -6.6154  -17.8486  -44.9568 C.ar      23 UNK        -0.1150 
     15 C15        -7.2849  -19.4645  -43.1220 C.3       23 UNK        -0.0205 
     16 S16        -5.8930  -19.1524  -41.9866 S.3       23 UNK        -0.2404 
     17 C17        -4.8722  -20.6528  -42.1766 C.3       23 UNK        -0.0398 
     18 CA         -3.4844  -20.3498  -42.8030 C.3       11 UNK         0.1400 
     19 N          -2.3983  -21.1784  -42.2711 N.am      11 UNK        -0.5000 
     20 C          -2.2958  -22.5136  -42.2422 C.2       10 UNK         0.5000 
     21 O          -3.1999  -23.2655  -42.6089 O.2       10 UNK        -0.5000 
     22 CA         -0.9528  -23.1164  -41.7743 C.3       10 UNK         0.1400 
     23 CB         -0.3146  -23.9488  -42.8991 C.3       10 UNK        -0.1800 
     24 N           0.0126  -22.1020  -41.3445 N.am      10 UNK        -0.5000 
     25 C           0.0422  -21.5281  -40.1347 C.2       9 UNK         0.5000 
     26 O          -0.6982  -21.8526  -39.2061 O.2       9 UNK        -0.5000 
     27 CA          1.0383  -20.3668  -39.9454 C.3       9 UNK         0.1400 
     28 CB          2.4006  -20.8968  -39.4742 C.3       9 UNK        -0.1800 
     29 N           1.2175  -19.5597  -41.1570 N.am      9 UNK        -0.5000 
     30 C           0.2560  -18.8181  -41.7281 C.2       8 UNK         0.5000 
     31 O          -0.8753  -18.6975  -41.2595 O.2       8 UNK        -0.5000 
     32 CA          0.5868  -18.1499  -43.0756 C.3       8 UNK         0.1400 
     33 CB          1.3438  -16.8303  -42.8658 C.3       8 UNK        -0.1800 
     34 N           1.3608  -19.0210  -43.9578 N.am      8 UNK        -0.5000 
     35 C           0.9280  -20.1815  -44.4680 C.2       7 UNK         0.5000 
     36 O          -0.1993  -20.6303  -44.2825 O.2       7 UNK        -0.5000 
     37 CA          1.9444  -21.0049  -45.2738 C.3       7 UNK         0.1400 
     38 CB          2.0361  -20.5072  -46.7205 C.3       7 UNK        -0.1800 
     39 N           3.2734  -20.9654  -44.6668 N.am      7 UNK        -0.5000 
     40 C           3.6143  -21.6166  -43.5477 C.2       6 UNK         0.5000 
     41 O           2.8493  -22.3534  -42.9250 O.2       6 UNK        -0.5000 
     42 CA          5.0439  -21.3797  -43.0252 C.3       6 UNK         0.1400 
     43 CB          6.0413  -22.3021  -43.7421 C.3       6 UNK        -0.1800 
     44 N           5.4817  -19.9884  -43.1681 N.am      6 UNK        -0.5000 
     45 C           4.9650  -18.9657  -42.4734 C.2       5 UNK         0.5000 
     46 O           4.0643  -19.0914  -41.6447 O.2       5 UNK        -0.5000 
     47 CA          5.5154  -17.5590  -42.7811 C.3       5 UNK         0.1400 
     48 CB          6.8244  -17.3157  -42.0149 C.3       5 UNK        -0.1800 
     49 N           5.7239  -17.2627  -44.2043 N.am      5 UNK        -0.5000 
     50 C           4.8060  -17.4042  -45.1695 C.2       4 UNK         0.5000 
     51 O           3.7189  -17.9587  -45.0020 O.2       4 UNK        -0.5000 
     52 CA          5.1696  -16.8618  -46.5650 C.3       4 UNK         0.1400 
     53 CB          6.0325  -17.8821  -47.3233 C.3       4 UNK        -0.1800 
     54 N           3.9648  -16.5820  -47.3511 N.am      4 UNK        -0.5000 
     55 C           3.0833  -15.6122  -47.0720 C.2       3 UNK         0.5000 
     56 O           3.2713  -14.7384  -46.2206 O.2       3 UNK        -0.5000 
     57 CA          1.7545  -15.6729  -47.8486 C.3       3 UNK         0.1400 
     58 CB          0.8747  -16.8174  -47.3243 C.3       3 UNK        -0.1800 
     59 N           0.9864  -14.4397  -47.7208 N.am      3 UNK        -0.5000 
     60 C           1.1853  -13.3159  -48.4132 C.2       2 UNK         0.5000 
     61 O           2.0579  -13.1914  -49.2750 O.2       2 UNK        -0.5000 
     62 CA          0.2055  -12.1613  -48.1093 C.3       2 UNK         0.1400 
     63 CB          0.4744  -10.9101  -48.9651 C.3       2 UNK        -0.1800 
     64 N          -1.1919  -12.5645  -48.2980 N.am      2 UNK        -0.5000 
     65 C          -1.9325  -13.2839  -47.4405 C.2       1 UNK         0.5000 
     66 O          -1.4880  -13.7111  -46.3734 O.2       1 UNK        -0.5000 
     67 C          -3.5287  -20.3499  -44.3447 C.2       11 UNK         0.5000 
     68 O          -3.5784  -19.2768  -44.9430 O.2       11 UNK        -0.5000 
     69 N          -3.5111  -21.5470  -44.9469 N.am      12 UNK        -0.5000 
     70 CA         -3.6075  -21.8115  -46.3784 C.3       12 UNK         0.1400 
     71 CB         -3.6659  -23.3317  -46.6004 C.3       12 UNK        -0.1800 
     72 C          -2.4819  -21.1592  -47.2033 C.2       12 UNK         0.5000 
     73 O          -1.4203  -21.7585  -47.3885 O.2       12 UNK        -0.5000 
     74 N          -2.7576  -19.9537  -47.7193 N.am      13 UNK        -0.5000 
     75 CA         -1.8577  -19.1454  -48.5445 C.3       13 UNK         0.1400 
     76 CB         -2.5456  -17.8147  -48.8816 C.3       13 UNK        -0.1800 
     77 C          -1.3897  -19.8412  -49.8336 C.2       13 UNK         0.5000 
     78 O          -0.2849  -19.5690  -50.3053 O.2       13 UNK        -0.5000 
     79 N          -2.2112  -20.7668  -50.3464 N.am      14 UNK        -0.5000 
     80 CA         -1.9373  -21.6188  -51.5032 C.3       14 UNK         0.1400 
     81 CB         -3.1728  -22.4886  -51.7763 C.3       14 UNK        -0.1800 
     82 C          -0.6734  -22.4936  -51.3841 C.2       14 UNK         0.5000 
     83 O          -0.1429  -22.9138  -52.4122 O.2       14 UNK        -0.5000 
     84 N          -0.1957  -22.7331  -50.1534 N.am      15 UNK        -0.5000 
     85 CA          1.0709  -23.4140  -49.8833 C.3       15 UNK         0.1400 
     86 CB          1.1199  -23.8209  -48.4028 C.3       15 UNK        -0.1800 
     87 C           2.3092  -22.5764  -50.2702 C.2       15 UNK         0.5000 
     88 O           3.3539  -23.1611  -50.5592 O.2       15 UNK        -0.5000 
     89 N           2.1768  -21.2414  -50.2822 N.am      16 UNK        -0.5000 
     90 CA          3.2120  -20.3088  -50.7349 C.3       16 UNK         0.1400 
     91 CB          3.3207  -19.1377  -49.7466 C.3       16 UNK        -0.1800 
     92 C           2.9102  -19.7797  -52.1455 C.2       16 UNK         0.5000 
     93 O           3.8334  -19.6444  -52.9493 O.2       16 UNK        -0.5000 
     94 N           1.6332  -19.4742  -52.4089 N.am      17 UNK        -0.5000 
     95 CA          1.1257  -18.9752  -53.6827 C.3       17 UNK         0.1400 
     96 CB         -0.0983  -18.0784  -53.3981 C.3       17 UNK        -0.1800 
     97 C           0.8401  -20.1467  -54.6468 C.2       17 UNK         0.5000 
     98 O           1.7698  -20.8401  -55.0626 O.2       17 UNK        -0.5000 
     99 N          -0.4328  -20.3430  -54.9971 N.am      18 UNK        -0.5000 
    100 CA        -0.9426  -21.4166  -55.8394 C.3       18 UNK         0.1400 
    101 CB        -0.8820  -20.9872  -57.3160 C.3       18 UNK        -0.1800 
    102 C         -2.3829  -21.7110  -55.4027 C.2       18 UNK         0.5000 
    103 O         -2.9630  -20.9212  -54.6519 O.2       18 UNK        -0.5000 
    104 N         -2.9465  -22.8219  -55.8972 N.am      19 UNK        -0.5000 
    105 CA        -4.2768  -23.3445  -55.5539 C.3       19 UNK         0.1400 
    106 CB        -4.5740  -24.5742  -56.4245 C.3       19 UNK        -0.1800 
    107 C         -5.4289  -22.3261  -55.6572 C.2       19 UNK         0.5000 
    108 O         -6.3603  -22.3832  -54.8550 O.2       19 UNK        -0.5000 
    109 N         -5.3163  -21.3746  -56.5933 N.am      20 UNK        -0.5000 
    110 CA        -6.2439  -20.2586  -56.7932 C.3       20 UNK         0.1400 
    111 CB        -5.7933  -19.4624  -58.0277 C.3       20 UNK        -0.1800 
    112 C         -6.3999  -19.3194  -55.5761 C.2       20 UNK         0.5000 
    113 O         -7.4107  -18.6209  -55.4904 O.2       20 UNK        -0.5000 
    114 N         -5.4217  -19.3157  -54.6575 N.am      21 UNK        -0.5000 
    115 CA        -5.4569  -18.5348  -53.4200 C.3       21 UNK         0.1400 
    116 CB        -4.0363  -18.4326  -52.8426 C.3       21 UNK        -0.1800 
    117 C         -6.4248  -19.1007  -52.3613 C.2       21 UNK         0.5000 
    118 O         -6.8590  -18.3376  -51.4971 O.2       21 UNK        -0.5000 
    119 N         -6.7395  -20.4028  -52.4346 N.am      22 UNK        -0.5000 
    120 CA        -7.6136  -21.1054  -51.4773 C.3       22 UNK         0.1400 
    121 C         -8.7651  -21.9141  -52.1373 C.2       22 UNK         0.5000 
    122 N         -8.7118  -22.2637  -53.4150 N.am      22 UNK        -0.7600 
    123 O         -9.7525  -22.2163  -51.4725 O.2       22 UNK        -0.5000 
    124 C124       -6.8044  -21.9914  -50.4920 C.3       23 UNK        -0.0398 
    125 S125       -5.8677  -21.0012  -49.2774 S.3       23 UNK        -0.2404 
    126 C126       -7.1361  -20.8968  -47.9695 C.3       23 UNK        -0.0205 
    127 H127       -5.7401  -10.0480  -49.3631 H         1 UNK         0.0600 
    128 H128       -4.8594  -11.0018  -50.5598 H         1 UNK         0.0600 
    129 H129       -4.0923   -9.5970  -49.8139 H         1 UNK         0.0600 
    130 H130       -4.1021  -12.9159  -49.7312 H         1 UNK         0.3000 
    131 H131       -3.3377  -14.4984  -48.4533 H         1 UNK         0.0600 
    132 H132       -5.3614  -13.5644  -46.9045 H         1 UNK         0.0800 
    133 H133       -4.0771  -13.2462  -45.7905 H         1 UNK         0.0800 
    134 H134       -6.1128  -15.9770  -47.7767 H         1 UNK         0.0800 
    135 H135       -6.7775  -15.4325  -46.2530 H         1 UNK         0.0800 
    136 H136       -6.3619  -18.2855  -48.3136 H         1 UNK         0.1150 
    137 H137       -7.3776  -21.1374  -45.2761 H         1 UNK         0.1150 
    138 H138       -6.5354  -17.0760  -44.2050 H         1 UNK         0.1150 
    139 H139       -8.1220  -18.8354  -42.8167 H         1 UNK         0.0800 
    140 H140       -7.6270  -20.4941  -43.0064 H         1 UNK         0.0800 
    141 H141       -5.4103  -21.4220  -42.7334 H         1 UNK         0.0800 
    142 H142       -4.7432  -21.0589  -41.1724 H         1 UNK         0.0800 
    143 H143       -3.1993  -19.3381  -42.5099 H         1 UNK         0.0600 
    144 H144       -1.5834  -20.6504  -41.9873 H         1 UNK         0.3000 
    145 H145       -1.1675  -23.7834  -40.9370 H         1 UNK         0.0600 
    146 H146        0.6264  -24.3941  -42.5755 H         1 UNK         0.0600 
    147 H147       -0.9706  -24.7641  -43.2064 H         1 UNK         0.0600 
    148 H148       -0.1105  -23.3423  -43.7821 H         1 UNK         0.0600 
    149 H149        0.6736  -21.7891  -42.0439 H         1 UNK         0.3000 
    150 H150        0.6394  -19.7148  -39.1656 H         1 UNK         0.0600 
    151 H151        2.2956  -21.5022  -38.5730 H         1 UNK         0.0600 
    152 H152        3.0806  -20.0784  -39.2372 H         1 UNK         0.0600 
    153 H153        2.8758  -21.5174  -40.2347 H         1 UNK         0.0600 
    154 H154        2.1482  -19.5552  -41.5641 H         1 UNK         0.3000 
    155 H155       -0.3570  -17.9257  -43.5776 H         1 UNK         0.0600 
    156 H156        1.5399  -16.3313  -43.8153 H         1 UNK         0.0600 
    157 H157        0.7649  -16.1423  -42.2487 H         1 UNK         0.0600 
    158 H158        2.3011  -16.9912  -42.3703 H         1 UNK         0.0600 
    159 H159        2.2945  -18.7007  -44.2096 H         1 UNK         0.3000 
    160 H160        1.5965  -22.0401  -45.2926 H         1 UNK         0.0600 
    161 H161        2.4629  -19.5072  -46.7654 H         1 UNK         0.0600 
    162 H162        1.0534  -20.4731  -47.1924 H         1 UNK         0.0600 
    163 H163        2.6658  -21.1653  -47.3187 H         1 UNK         0.0600 
    164 H164        3.9333  -20.3134  -45.0658 H         1 UNK         0.3000 
    165 H165        5.0526  -21.6310  -41.9623 H         1 UNK         0.0600 
    166 H166        7.0425  -22.2018  -43.3226 H         1 UNK         0.0600 
    167 H167        5.7496  -23.3480  -43.6376 H         1 UNK         0.0600 
    168 H168        6.1001  -22.0824  -44.8088 H         1 UNK         0.0600 
    169 H169        6.2112  -19.7992  -43.8395 H         1 UNK         0.3000 
    170 H170        4.7776  -16.8423  -42.4155 H         1 UNK         0.0600 
    171 H171        6.6963  -17.5111  -40.9492 H         1 UNK         0.0600 
    172 H172        7.6268  -17.9617  -42.3731 H         1 UNK         0.0600 
    173 H173        7.1548  -16.2817  -42.1154 H         1 UNK         0.0600 
    174 H174        6.6027  -16.8235  -44.4377 H         1 UNK         0.3000 
    175 H175        5.7319  -15.9331  -46.4487 H         1 UNK         0.0600 
    176 H176        6.9818  -18.0472  -46.8123 H         1 UNK         0.0600 
    177 H177        5.5363  -18.8495  -47.4066 H         1 UNK         0.0600 
    178 H178        6.2647  -17.5347  -48.3303 H         1 UNK         0.0600 
    179 H179        3.7202  -17.2734  -48.0421 H         1 UNK         0.3000 
    180 H180        1.9688  -15.8458  -48.9055 H         1 UNK         0.0600 
    181 H181        0.7820  -16.7963  -46.2374 H         1 UNK         0.0600 
    182 H182        1.2844  -17.7853  -47.6037 H         1 UNK         0.0600 
    183 H183       -0.1286  -16.7592  -47.7429 H         1 UNK         0.0600 
    184 H184        0.2509  -14.4312  -47.0217 H         1 UNK         0.3000 
    185 H185        0.3521  -11.8833  -47.0635 H         1 UNK         0.0600 
    186 H186        0.3432  -11.1129  -50.0287 H         1 UNK         0.0600 
    187 H187       -0.1976  -10.0956  -48.6936 H         1 UNK         0.0600 
    188 H188        1.4936  -10.5490  -48.8214 H         1 UNK         0.0600 
    189 H189       -1.6242  -12.2737  -49.1625 H         1 UNK         0.3000 
    190 H190       -3.4318  -22.3593  -44.3447 H         1 UNK         0.3000 
    191 H191       -4.5557  -21.3955  -46.7135 H         1 UNK         0.0600 
    192 H192       -2.7750  -23.8295  -46.2147 H         1 UNK         0.0600 
    193 H193       -3.7423  -23.5677  -47.6627 H         1 UNK         0.0600 
    194 H194       -4.5344  -23.7690  -46.1076 H         1 UNK         0.0600 
    195 H195       -3.6309  -19.5184  -47.4536 H         1 UNK         0.3000 
    196 H196       -0.9685  -18.9448  -47.9464 H         1 UNK         0.0600 
    197 H197       -1.9174  -17.1957  -49.5238 H         1 UNK         0.0600 
    198 H198       -2.7463  -17.2421  -47.9772 H         1 UNK         0.0600 
    199 H199       -3.4937  -17.9706  -49.3982 H         1 UNK         0.0600 
    200 H200       -3.0935  -20.9174  -49.8783 H         1 UNK         0.3000 
    201 H201       -1.7760  -20.9602  -52.3563 H         1 UNK         0.0600 
    202 H202       -4.0248  -21.8758  -52.0703 H         1 UNK         0.0600 
    203 H203       -3.4578  -23.0711  -50.8994 H         1 UNK         0.0600 
    204 H204       -2.9847  -23.1904  -52.5886 H         1 UNK         0.0600 
    205 H205       -0.6911  -22.3636  -49.3494 H         1 UNK         0.3000 
    206 H206        1.0991  -24.3273  -50.4815 H         1 UNK         0.0600 
    207 H207        0.3102  -24.5084  -48.1577 H         1 UNK         0.0600 
    208 H208        2.0578  -24.3235  -48.1631 H         1 UNK         0.0600 
    209 H209        1.0305  -22.9584  -47.7440 H         1 UNK         0.0600 
    210 H210        1.2710  -20.8395  -50.0703 H         1 UNK         0.3000 
    211 H211        4.1848  -20.8036  -50.7701 H         1 UNK         0.0600 
    212 H212        2.3589  -18.6468  -49.5961 H         1 UNK         0.0600 
    213 H213        4.0248  -18.3861  -50.1063 H         1 UNK         0.0600 
    214 H214        3.6861  -19.4833  -48.7821 H         1 UNK         0.0600 
    215 H215        0.9438  -19.5838  -51.6700 H         1 UNK         0.3000 
    216 H216        1.8878  -18.3521  -54.1551 H         1 UNK         0.0600 
    217 H217       -0.8977  -18.6215  -52.8930 H         1 UNK         0.0600 
    218 H218       -0.5049  -17.6568  -54.3184 H         1 UNK         0.0600 
    219 H219        0.1772  -17.2393  -52.7590 H         1 UNK         0.0600 
    220 H220       -1.1615  -19.7777  -54.5800 H         1 UNK         0.3000 
    221 H221       -0.3485  -22.3200  -55.6858 H         1 UNK         0.0600 
    222 H222        0.1407  -20.7627  -57.6193 H         1 UNK         0.0600 
    223 H223       -1.4872  -20.0985  -57.5002 H         1 UNK         0.0600 
    224 H224       -1.2465  -21.7769  -57.9738 H         1 UNK         0.0600 
    225 H225       -2.3998  -23.3970  -56.5218 H         1 UNK         0.3000 
    226 H226       -4.2370  -23.6718  -54.5142 H         1 UNK         0.0600 
    227 H227       -3.8317  -25.3573  -56.2692 H         1 UNK         0.0600 
    228 H228       -5.5483  -25.0005  -56.1807 H         1 UNK         0.0600 
    229 H229       -4.5816  -24.3229  -57.4858 H         1 UNK         0.0600 
    230 H230       -4.5026  -21.3946  -57.1897 H         1 UNK         0.3000 
    231 H231       -7.2283  -20.6835  -56.9993 H         1 UNK         0.0600 
    232 H232       -4.7979  -19.0382  -57.8894 H         1 UNK         0.0600 
    233 H233       -6.4765  -18.6371  -58.2330 H         1 UNK         0.0600 
    234 H234       -5.7708  -20.0917  -58.9176 H         1 UNK         0.0600 
    235 H235       -4.6136  -19.9186  -54.7870 H         1 UNK         0.3000 
    236 H236       -5.7918  -17.5245  -53.6643 H         1 UNK         0.0600 
    237 H237       -3.3407  -18.0183  -53.5722 H         1 UNK         0.0600 
    238 H238       -4.0158  -17.7834  -51.9666 H         1 UNK         0.0600 
    239 H239       -3.6605  -19.4069  -52.5335 H         1 UNK         0.0600 
    240 H240       -6.3756  -20.9535  -53.2011 H         1 UNK         0.3000 
    241 H241       -8.1435  -20.3611  -50.8802 H         1 UNK         0.0600 
    242 H242       -9.4861  -22.7736  -53.8087 H         1 UNK         0.3800 
    243 H243       -7.8677  -22.1457  -53.9716 H         1 UNK         0.3800 
    244 H244       -6.1111  -22.6305  -51.0395 H         1 UNK         0.0800 
    245 H245       -7.4574  -22.6720  -49.9421 H         1 UNK         0.0800 
    246 H246       -8.1023  -20.6715  -48.4226 H         1 UNK         0.0800 
    247 H247       -7.2334  -21.8812  -47.5089 H         1 UNK         0.0800 
@<TRIPOS>BOND
     1    1    2 1    
     2    1  127 1    
     3    1  128 1    
     4    1  129 1    
     5    2    3 2    
     6    2    4 am   BACKBONE|DICT|INTERRES
     7    4    5 1    
     8    4  130 1    
     9    5    6 1    
    10    5   65 1    
    11    5  131 1    
    12    6    7 1    
    13    6  132 1    
    14    6  133 1    
    15    7    8 1    
    16    8    9 1    
    17    8  134 1    
    18    8  135 1    
    19    9   10 ar   
    20    9   14 ar   
    21   10   11 ar   
    22   10  136 1    
    23   11   12 ar   
    24   11  126 1    
    25   12   13 ar   
    26   12  137 1    
    27   13   14 ar   
    28   13   15 1    
    29   14  138 1    
    30   15   16 1    
    31   15  139 1    
    32   15  140 1    
    33   16   17 1    
    34   17   18 1    
    35   17  141 1    
    36   17  142 1    
    37   18   19 1    
    38   18   67 1    
    39   18  143 1    
    40   19   20 am   BACKBONE|DICT|INTERRES
    41   19  144 1    
    42   20   21 2    
    43   20   22 1    
    44   22   23 1    
    45   22   24 1    
    46   22  145 1    
    47   23  146 1    
    48   23  147 1    
    49   23  148 1    
    50   24   25 am   BACKBONE|DICT|INTERRES
    51   24  149 1    
    52   25   26 2    
    53   25   27 1    
    54   27   28 1    
    55   27   29 1    
    56   27  150 1    
    57   28  151 1    
    58   28  152 1    
    59   28  153 1    
    60   29   30 am   BACKBONE|DICT|INTERRES
    61   29  154 1    
    62   30   31 2    
    63   30   32 1    
    64   32   33 1    
    65   32   34 1    
    66   32  155 1    
    67   33  156 1    
    68   33  157 1    
    69   33  158 1    
    70   34   35 am   BACKBONE|DICT|INTERRES
    71   34  159 1    
    72   35   36 2    
    73   35   37 1    
    74   37   38 1    
    75   37   39 1    
    76   37  160 1    
    77   38  161 1    
    78   38  162 1    
    79   38  163 1    
    80   39   40 am   BACKBONE|DICT|INTERRES
    81   39  164 1    
    82   40   41 2    
    83   40   42 1    
    84   42   43 1    
    85   42   44 1    
    86   42  165 1    
    87   43  166 1    
    88   43  167 1    
    89   43  168 1    
    90   44   45 am   BACKBONE|DICT|INTERRES
    91   44  169 1    
    92   45   46 2    
    93   45   47 1    
    94   47   48 1    
    95   47   49 1    
    96   47  170 1    
    97   48  171 1    
    98   48  172 1    
    99   48  173 1    
   100   49   50 am   BACKBONE|DICT|INTERRES
   101   49  174 1    
   102   50   51 2    
   103   50   52 1    
   104   52   53 1    
   105   52   54 1    
   106   52  175 1    
   107   53  176 1    
   108   53  177 1    
   109   53  178 1    
   110   54   55 am   BACKBONE|DICT|INTERRES
   111   54  179 1    
   112   55   56 2    
   113   55   57 1    
   114   57   58 1    
   115   57   59 1    
   116   57  180 1    
   117   58  181 1    
   118   58  182 1    
   119   58  183 1    
   120   59   60 am   BACKBONE|DICT|INTERRES
   121   59  184 1    
   122   60   61 2    
   123   60   62 1    
   124   62   63 1    
   125   62   64 1    
   126   62  185 1    
   127   63  186 1    
   128   63  187 1    
   129   63  188 1    
   130   64   65 am   BACKBONE|DICT|INTERRES
   131   64  189 1    
   132   65   66 2    
   133   67   68 2    
   134   67   69 am   BACKBONE|DICT|INTERRES
   135   69   70 1    
   136   69  190 1    
   137   70   71 1    
   138   70   72 1    
   139   70  191 1    
   140   71  192 1    
   141   71  193 1    
   142   71  194 1    
   143   72   73 2    
   144   72   74 am   BACKBONE|DICT|INTERRES
   145   74   75 1    
   146   74  195 1    
   147   75   76 1    
   148   75   77 1    
   149   75  196 1    
   150   76  197 1    
   151   76  198 1    
   152   76  199 1    
   153   77   78 2    
   154   77   79 am   BACKBONE|DICT|INTERRES
   155   79   80 1    
   156   79  200 1    
   157   80   81 1    
   158   80   82 1    
   159   80  201 1    
   160   81  202 1    
   161   81  203 1    
   162   81  204 1    
   163   82   83 2    
   164   82   84 am   BACKBONE|DICT|INTERRES
   165   84   85 1    
   166   84  205 1    
   167   85   86 1    
   168   85   87 1    
   169   85  206 1    
   170   86  207 1    
   171   86  208 1    
   172   86  209 1    
   173   87   88 2    
   174   87   89 am   BACKBONE|DICT|INTERRES
   175   89   90 1    
   176   89  210 1    
   177   90   91 1    
   178   90   92 1    
   179   90  211 1    
   180   91  212 1    
   181   91  213 1    
   182   91  214 1    
   183   92   93 2    
   184   92   94 am   BACKBONE|DICT|INTERRES
   185   94   95 1    
   186   94  215 1    
   187   95   96 1    
   188   95   97 1    
   189   95  216 1    
   190   96  217 1    
   191   96  218 1    
   192   96  219 1    
   193   97   98 2    
   194   97   99 am   BACKBONE|DICT|INTERRES
   195   99  100 1    
   196   99  220 1    
   197  100  101 1    
   198  100  102 1    
   199  100  221 1    
   200  101  222 1    
   201  101  223 1    
   202  101  224 1    
   203  102  103 2    
   204  102  104 am   BACKBONE|DICT|INTERRES
   205  104  105 1    
   206  104  225 1    
   207  105  106 1    
   208  105  107 1    
   209  105  226 1    
   210  106  227 1    
   211  106  228 1    
   212  106  229 1    
   213  107  108 2    
   214  107  109 am   BACKBONE|DICT|INTERRES
   215  109  110 1    
   216  109  230 1    
   217  110  111 1    
   218  110  112 1    
   219  110  231 1    
   220  111  232 1    
   221  111  233 1    
   222  111  234 1    
   223  112  113 2    
   224  112  114 am   BACKBONE|DICT|INTERRES
   225  114  115 1    
   226  114  235 1    
   227  115  116 1    
   228  115  117 1    
   229  115  236 1    
   230  116  237 1    
   231  116  238 1    
   232  116  239 1    
   233  117  118 2    
   234  117  119 am   BACKBONE|DICT|INTERRES
   235  119  120 1    
   236  119  240 1    
   237  120  121 1    
   238  120  124 1    
   239  120  241 1    
   240  121  122 am   BACKBONE|DICT|INTERRES
   241  121  123 2    
   242  122  242 1    
   243  122  243 1    
   244  124  125 1    
   245  124  244 1    
   246  124  245 1    
   247  125  126 1    
   248  126  246 1    
   249  126  247 1    
@<TRIPOS>SUBSTRUCTURE
     1 UNK         1 GROUP             0       ****    0 ROOT    
