@<TRIPOS>MOLECULE
3R540
247   249    1
SMALL
USER_CHARGES


@<TRIPOS>ATOM
      1 CA          3.7974  -16.8237  -46.4003 C.3       0 UNK        -0.1800 
      2 C           3.5871  -15.3573  -46.0531 C.2       0 UNK         0.5000 
      3 O           3.8760  -14.9408  -44.9323 O.2       0 UNK        -0.5000 
      4 N           3.1092  -14.5699  -47.0250 N.am      1 UNK        -0.5000 
      5 CA          2.7569  -13.1445  -46.9119 C.3       1 UNK         0.1400 
      6 C6          2.2040  -12.5882  -48.2474 C.3       23 UNK        -0.0398 
      7 S7          0.6933  -13.4563  -48.7748 S.3       23 UNK        -0.2404 
      8 C8          1.3181  -14.6093  -50.0476 C.3       23 UNK        -0.0205 
      9 C9          0.5325  -15.9173  -50.0841 C.ar      23 UNK        -0.0193 
     10 C10        -0.8649  -15.9087  -50.0303 C.ar      23 UNK        -0.1150 
     11 C11        -1.5921  -17.0996  -50.0365 C.ar      23 UNK        -0.0193 
     12 C12        -0.9061  -18.3159  -50.1230 C.ar      23 UNK        -0.1150 
     13 C13         0.4899  -18.3455  -50.2172 C.ar      23 UNK        -0.0193 
     14 C14         1.2028  -17.1416  -50.1900 C.ar      23 UNK        -0.1150 
     15 C15         1.2135  -19.6772  -50.4023 C.3       23 UNK        -0.0205 
     16 S16         2.4440  -20.0632  -49.1054 S.3       23 UNK        -0.2404 
     17 C17         1.4624  -20.0039  -47.5696 C.3       23 UNK        -0.0398 
     18 CA          0.8783  -21.3599  -47.0924 C.3       11 UNK         0.1400 
     19 N           0.3890  -21.2677  -45.7116 N.am      11 UNK        -0.5000 
     20 C          -0.1864  -22.2439  -44.9930 C.2       10 UNK         0.5000 
     21 O          -0.3138  -23.4043  -45.3829 O.2       10 UNK        -0.5000 
     22 CA         -0.7717  -21.8389  -43.6255 C.3       10 UNK         0.1400 
     23 CB          0.3227  -21.7770  -42.5498 C.3       10 UNK        -0.1800 
     24 N          -1.4918  -20.5638  -43.6779 N.am      10 UNK        -0.5000 
     25 C          -2.6184  -20.3625  -44.3779 C.2       9 UNK         0.5000 
     26 O          -3.1993  -21.2503  -45.0022 O.2       9 UNK        -0.5000 
     27 CA         -3.1587  -18.9205  -44.4380 C.3       9 UNK         0.1400 
     28 CB         -3.9680  -18.5755  -43.1794 C.3       9 UNK        -0.1800 
     29 N          -2.0954  -17.9340  -44.6338 N.am      9 UNK        -0.5000 
     30 C          -1.3350  -17.8629  -45.7353 C.2       8 UNK         0.5000 
     31 O          -1.5110  -18.5762  -46.7221 O.2       8 UNK        -0.5000 
     32 CA         -0.1504  -16.8764  -45.7079 C.3       8 UNK         0.1400 
     33 CB         -0.6110  -15.4639  -46.0863 C.3       8 UNK        -0.1800 
     34 N           0.5300  -16.8468  -44.4098 N.am      8 UNK        -0.5000 
     35 C           1.1668  -17.8933  -43.8646 C.2       7 UNK         0.5000 
     36 O           1.3164  -18.9670  -44.4409 O.2       7 UNK        -0.5000 
     37 CA          1.6676  -17.7519  -42.4174 C.3       7 UNK         0.1400 
     38 CB          3.0621  -17.1170  -42.3573 C.3       7 UNK        -0.1800 
     39 N           0.7346  -16.9869  -41.5949 N.am      7 UNK        -0.5000 
     40 C          -0.4599  -17.4451  -41.1961 C.2       6 UNK         0.5000 
     41 O          -0.8638  -18.5851  -41.4260 O.2       6 UNK        -0.5000 
     42 CA         -1.3682  -16.4428  -40.4594 C.3       6 UNK         0.1400 
     43 CB         -1.0461  -16.4235  -38.9580 C.3       6 UNK        -0.1800 
     44 N          -1.2476  -15.0860  -40.9985 N.am      6 UNK        -0.5000 
     45 C          -1.6568  -14.7201  -42.2222 C.2       5 UNK         0.5000 
     46 O          -2.2490  -15.4757  -42.9916 O.2       5 UNK        -0.5000 
     47 CA         -1.2965  -13.2913  -42.6789 C.3       5 UNK         0.1400 
     48 CB         -2.3990  -12.3015  -42.2760 C.3       5 UNK        -0.1800 
     49 N          -0.0099  -12.8333  -42.1431 N.am      5 UNK        -0.5000 
     50 C           1.1739  -13.3729  -42.4624 C.2       4 UNK         0.5000 
     51 O           1.3076  -14.2659  -43.2996 O.2       4 UNK        -0.5000 
     52 CA          2.3798  -12.9015  -41.6389 C.3       4 UNK         0.1400 
     53 CB          2.3086  -13.5276  -40.2277 C.3       4 UNK        -0.1800 
     54 N           3.6349  -13.2757  -42.2944 N.am      4 UNK        -0.5000 
     55 C           4.8470  -12.8539  -41.9051 C.2       3 UNK         0.5000 
     56 O           5.0264  -12.0304  -41.0064 O.2       3 UNK        -0.5000 
     57 CA          6.0686  -13.4363  -42.6314 C.3       3 UNK         0.1400 
     58 CB          6.2081  -14.9479  -42.3867 C.3       3 UNK        -0.1800 
     59 N           5.9972  -13.1711  -44.0637 N.am      3 UNK        -0.5000 
     60 C           6.5766  -12.1267  -44.6724 C.2       2 UNK         0.5000 
     61 O           7.2666  -11.2908  -44.0868 O.2       2 UNK        -0.5000 
     62 CA          6.3657  -11.9852  -46.1939 C.3       2 UNK         0.1400 
     63 CB          7.5754  -12.5455  -46.9579 C.3       2 UNK        -0.1800 
     64 N           5.1552  -12.6490  -46.6760 N.am      2 UNK        -0.5000 
     65 C           3.9058  -12.2426  -46.4130 C.2       1 UNK         0.5000 
     66 O           3.6404  -11.2109  -45.7950 O.2       1 UNK        -0.5000 
     67 C          -0.2247  -21.8626  -48.0430 C.2       11 UNK         0.5000 
     68 O           0.0102  -22.7986  -48.8076 O.2       11 UNK        -0.5000 
     69 N          -1.4152  -21.2530  -47.9457 N.am      12 UNK        -0.5000 
     70 CA         -2.6061  -21.6480  -48.6883 C.3       12 UNK         0.1400 
     71 CB         -3.7295  -20.6296  -48.4555 C.3       12 UNK        -0.1800 
     72 C          -3.0677  -23.0655  -48.3247 C.2       12 UNK         0.5000 
     73 O          -3.2184  -23.8903  -49.2244 O.2       12 UNK        -0.5000 
     74 N          -3.2601  -23.3330  -47.0252 N.am      13 UNK        -0.5000 
     75 CA         -3.7403  -24.6105  -46.4897 C.3       13 UNK         0.1400 
     76 CB         -3.8756  -24.5097  -44.9634 C.3       13 UNK        -0.1800 
     77 C          -2.8637  -25.8149  -46.8783 C.2       13 UNK         0.5000 
     78 O          -3.3981  -26.8579  -47.2576 O.2       13 UNK        -0.5000 
     79 N          -1.5378  -25.6300  -46.8354 N.am      14 UNK        -0.5000 
     80 CA         -0.5388  -26.6186  -47.2481 C.3       14 UNK         0.1400 
     81 CB          0.8482  -26.1354  -46.7969 C.3       14 UNK        -0.1800 
     82 C          -0.5333  -26.9136  -48.7630 C.2       14 UNK         0.5000 
     83 O           0.0002  -27.9461  -49.1706 O.2       14 UNK        -0.5000 
     84 N          -1.1152  -26.0131  -49.5639 N.am      15 UNK        -0.5000 
     85 CA         -1.1603  -26.0668  -51.0228 C.3       15 UNK         0.1400 
     86 CB         -0.4778  -24.7998  -51.5669 C.3       15 UNK        -0.1800 
     87 C          -2.6004  -26.2221  -51.5518 C.2       15 UNK         0.5000 
     88 O          -2.8541  -25.8774  -52.7059 O.2       15 UNK        -0.5000 
     89 N          -3.5231  -26.7221  -50.7136 N.am      16 UNK        -0.5000 
     90 CA         -4.9437  -26.9612  -51.0099 C.3       16 UNK         0.1400 
     91 CB         -5.1021  -28.0942  -52.0456 C.3       16 UNK        -0.1800 
     92 C          -5.6840  -25.6688  -51.4153 C.2       16 UNK         0.5000 
     93 O          -6.2592  -25.5825  -52.5027 O.2       16 UNK        -0.5000 
     94 N          -5.5931  -24.6636  -50.5349 N.am      17 UNK        -0.5000 
     95 CA         -6.0607  -23.2839  -50.7036 C.3       17 UNK         0.1400 
     96 CB         -7.5986  -23.2254  -50.8176 C.3       17 UNK        -0.1800 
     97 C          -5.3297  -22.5653  -51.8566 C.2       17 UNK         0.5000 
     98 O          -5.9554  -21.8178  -52.6055 O.2       17 UNK        -0.5000 
     99 N          -4.0257  -22.8518  -52.0015 N.am      18 UNK        -0.5000 
    100 CA        -3.1433  -22.4299  -53.0987 C.3       18 UNK         0.1400 
    101 CB        -2.8444  -20.9211  -53.0049 C.3       18 UNK        -0.1800 
    102 C         -3.6823  -22.8540  -54.4824 C.2       18 UNK         0.5000 
    103 O         -3.7145  -22.0455  -55.4103 O.2       18 UNK        -0.5000 
    104 N         -4.1285  -24.1158  -54.5704 N.am      19 UNK        -0.5000 
    105 CA        -4.8544  -24.7296  -55.6865 C.3       19 UNK         0.1400 
    106 CB        -3.9375  -24.8872  -56.9173 C.3       19 UNK        -0.1800 
    107 C         -6.1784  -23.9959  -55.9970 C.2       19 UNK         0.5000 
    108 O         -6.4944  -23.7531  -57.1634 O.2       19 UNK        -0.5000 
    109 N         -6.9152  -23.6540  -54.9289 N.am      20 UNK        -0.5000 
    110 CA        -8.1528  -22.8669  -54.9048 C.3       20 UNK         0.1400 
    111 CB        -9.3148  -23.6668  -55.5296 C.3       20 UNK        -0.1800 
    112 C         -7.9745  -21.4628  -55.5236 C.2       20 UNK         0.5000 
    113 O         -8.6759  -21.1076  -56.4739 O.2       20 UNK        -0.5000 
    114 N         -7.0262  -20.6938  -54.9775 N.am      21 UNK        -0.5000 
    115 CA        -6.6755  -19.3452  -55.4176 C.3       21 UNK         0.1400 
    116 CB        -5.7090  -19.4161  -56.6206 C.3       21 UNK        -0.1800 
    117 C         -6.1489  -18.5108  -54.2314 C.2       21 UNK         0.5000 
    118 O         -6.6116  -18.7026  -53.1060 O.2       21 UNK        -0.5000 
    119 N         -5.2279  -17.5816  -54.5252 N.am      22 UNK        -0.5000 
    120 CA        -4.6184  -16.5722  -53.6390 C.3       22 UNK         0.1400 
    121 C         -5.6170  -15.5993  -52.9344 C.2       22 UNK         0.5000 
    122 N         -5.1500  -14.7533  -52.0250 N.am      22 UNK        -0.7600 
    123 O         -6.8034  -15.5430  -53.2519 O.2       22 UNK        -0.5000 
    124 C124       -3.4739  -17.1412  -52.7442 C.3       23 UNK        -0.0398 
    125 S125       -3.9743  -18.0100  -51.2139 S.3       23 UNK        -0.2404 
    126 C126       -3.1131  -17.0484  -49.9242 C.3       23 UNK        -0.0205 
    127 H127        3.5212  -17.4570  -45.5589 H         1 UNK         0.0600 
    128 H128        4.8466  -17.0066  -46.6309 H         1 UNK         0.0600 
    129 H129        3.1970  -17.1237  -47.2598 H         1 UNK         0.0600 
    130 H130        2.8902  -14.9882  -47.9160 H         1 UNK         0.3000 
    131 H131        1.9685  -13.0765  -46.1593 H         1 UNK         0.0600 
    132 H132        1.9435  -11.5332  -48.1417 H         1 UNK         0.0800 
    133 H133        2.9562  -12.6357  -49.0368 H         1 UNK         0.0800 
    134 H134        2.3745  -14.8154  -49.8733 H         1 UNK         0.0800 
    135 H135        1.2545  -14.1285  -51.0244 H         1 UNK         0.0800 
    136 H136       -1.3895  -14.9663  -49.9633 H         1 UNK         0.1150 
    137 H137       -1.4656  -19.2395  -50.1352 H         1 UNK         0.1150 
    138 H138        2.2812  -17.1631  -50.2606 H         1 UNK         0.1150 
    139 H139        0.4985  -20.4975  -50.4721 H         1 UNK         0.0800 
    140 H140        1.7282  -19.6546  -51.3635 H         1 UNK         0.0800 
    141 H141        0.6847  -19.2519  -47.6734 H         1 UNK         0.0800 
    142 H142        2.1386  -19.6191  -46.8064 H         1 UNK         0.0800 
    143 H143        1.6805  -22.1004  -47.0928 H         1 UNK         0.0600 
    144 H144        0.5117  -20.3624  -45.2626 H         1 UNK         0.3000 
    145 H145       -1.4863  -22.6096  -43.3300 H         1 UNK         0.0600 
    146 H146       -0.0960  -21.5245  -41.5754 H         1 UNK         0.0600 
    147 H147        0.8233  -22.7408  -42.4501 H         1 UNK         0.0600 
    148 H148        1.0855  -21.0365  -42.7876 H         1 UNK         0.0600 
    149 H149       -1.0983  -19.7908  -43.1533 H         1 UNK         0.3000 
    150 H150       -3.8310  -18.8568  -45.2963 H         1 UNK         0.0600 
    151 H151       -4.7995  -19.2694  -43.0502 H         1 UNK         0.0600 
    152 H152       -4.3881  -17.5716  -43.2444 H         1 UNK         0.0600 
    153 H153       -3.3588  -18.6242  -42.2776 H         1 UNK         0.0600 
    154 H154       -1.9412  -17.2630  -43.8886 H         1 UNK         0.3000 
    155 H155        0.5769  -17.2003  -46.4543 H         1 UNK         0.0600 
    156 H156       -1.4015  -15.1019  -45.4313 H         1 UNK         0.0600 
    157 H157       -1.0017  -15.4472  -47.1040 H         1 UNK         0.0600 
    158 H158        0.2142  -14.7546  -46.0389 H         1 UNK         0.0600 
    159 H159        0.5314  -15.9631  -43.9103 H         1 UNK         0.3000 
    160 H160        1.7460  -18.7570  -41.9977 H         1 UNK         0.0600 
    161 H161        3.0508  -16.0908  -42.7168 H         1 UNK         0.0600 
    162 H162        3.7721  -17.6717  -42.9717 H         1 UNK         0.0600 
    163 H163        3.4491  -17.1086  -41.3384 H         1 UNK         0.0600 
    164 H164        0.9746  -16.0259  -41.4092 H         1 UNK         0.3000 
    165 H165       -2.4017  -16.7727  -40.5854 H         1 UNK         0.0600 
    166 H166       -1.7291  -15.7685  -38.4169 H         1 UNK         0.0600 
    167 H167       -1.1430  -17.4205  -38.5259 H         1 UNK         0.0600 
    168 H168       -0.0286  -16.0801  -38.7668 H         1 UNK         0.0600 
    169 H169       -0.7875  -14.4016  -40.4176 H         1 UNK         0.3000 
    170 H170       -1.2259  -13.2982  -43.7684 H         1 UNK         0.0600 
    171 H171       -3.3645  -12.6077  -42.6811 H         1 UNK         0.0600 
    172 H172       -2.5044  -12.2326  -41.1926 H         1 UNK         0.0600 
    173 H173       -2.1903  -11.3020  -42.6580 H         1 UNK         0.0600 
    174 H174       -0.0468  -12.1033  -41.4459 H         1 UNK         0.3000 
    175 H175        2.3341  -11.8133  -41.5636 H         1 UNK         0.0600 
    176 H176        2.4203  -14.6119  -40.2649 H         1 UNK         0.0600 
    177 H177        3.0877  -13.1385  -39.5728 H         1 UNK         0.0600 
    178 H178        1.3578  -13.3112  -39.7396 H         1 UNK         0.0600 
    179 H179        3.5396  -13.9122  -43.0820 H         1 UNK         0.3000 
    180 H180        6.9579  -12.9624  -42.2102 H         1 UNK         0.0600 
    181 H181        5.3985  -15.5141  -42.8440 H         1 UNK         0.0600 
    182 H182        6.2063  -15.1740  -41.3197 H         1 UNK         0.0600 
    183 H183        7.1452  -15.3239  -42.7973 H         1 UNK         0.0600 
    184 H184        5.3846  -13.7806  -44.5973 H         1 UNK         0.3000 
    185 H185        6.2838  -10.9194  -46.4174 H         1 UNK         0.0600 
    186 H186        8.4971  -12.0522  -46.6462 H         1 UNK         0.0600 
    187 H187        7.7006  -13.6150  -46.7841 H         1 UNK         0.0600 
    188 H188        7.4718  -12.3885  -48.0317 H         1 UNK         0.0600 
    189 H189        5.2810  -13.5127  -47.1831 H         1 UNK         0.3000 
    190 H190       -1.5106  -20.4581  -47.3199 H         1 UNK         0.3000 
    191 H191       -2.3506  -21.6366  -49.7494 H         1 UNK         0.0600 
    192 H192       -4.1087  -20.6569  -47.4342 H         1 UNK         0.0600 
    193 H193       -4.5691  -20.8089  -49.1265 H         1 UNK         0.0600 
    194 H194       -3.3774  -19.6196  -48.6438 H         1 UNK         0.0600 
    195 H195       -3.1154  -22.5882  -46.3473 H         1 UNK         0.3000 
    196 H196       -4.7345  -24.7823  -46.9067 H         1 UNK         0.0600 
    197 H197       -4.2520  -25.4419  -44.5405 H         1 UNK         0.0600 
    198 H198       -4.5719  -23.7200  -44.6808 H         1 UNK         0.0600 
    199 H199       -2.9173  -24.2960  -44.4894 H         1 UNK         0.0600 
    200 H200       -1.1784  -24.7450  -46.4853 H         1 UNK         0.3000 
    201 H201       -0.7594  -27.5562  -46.7341 H         1 UNK         0.0600 
    202 H202        0.8870  -26.0030  -45.7155 H         1 UNK         0.0600 
    203 H203        1.1085  -25.1824  -47.2600 H         1 UNK         0.0600 
    204 H204        1.6230  -26.8551  -47.0641 H         1 UNK         0.0600 
    205 H205       -1.5577  -25.2030  -49.1446 H         1 UNK         0.3000 
    206 H206       -0.6054  -26.9308  -51.3926 H         1 UNK         0.0600 
    207 H207        0.5587  -24.7425  -51.2343 H         1 UNK         0.0600 
    208 H208       -0.4667  -24.7849  -52.6573 H         1 UNK         0.0600 
    209 H209       -0.9820  -23.8973  -51.2206 H         1 UNK         0.0600 
    210 H210       -3.2279  -26.9391  -49.7706 H         1 UNK         0.3000 
    211 H211       -5.4014  -27.3008  -50.0796 H         1 UNK         0.0600 
    212 H212       -4.6920  -27.8200  -53.0181 H         1 UNK         0.0600 
    213 H213       -6.1541  -28.3402  -52.1943 H         1 UNK         0.0600 
    214 H214       -4.5999  -29.0031  -51.7146 H         1 UNK         0.0600 
    215 H215       -4.9865  -24.8046  -49.7353 H         1 UNK         0.3000 
    216 H216       -5.7864  -22.7533  -49.7922 H         1 UNK         0.0600 
    217 H217       -7.9496  -22.1932  -50.8466 H         1 UNK         0.0600 
    218 H218       -8.0730  -23.7039  -49.9609 H         1 UNK         0.0600 
    219 H219       -7.9621  -23.7194  -51.7180 H         1 UNK         0.0600 
    220 H220       -3.6189  -23.4873  -51.3259 H         1 UNK         0.3000 
    221 H221       -2.2007  -22.9593  -52.9693 H         1 UNK         0.0600 
    222 H222       -3.7405  -20.3244  -53.1765 H         1 UNK         0.0600 
    223 H223       -2.4463  -20.6558  -52.0262 H         1 UNK         0.0600 
    224 H224       -2.1050  -20.6201  -53.7475 H         1 UNK         0.0600 
    225 H225       -3.9812  -24.7216  -53.7670 H         1 UNK         0.3000 
    226 H226       -5.1319  -25.7305  -55.3522 H         1 UNK         0.0600 
    227 H227       -3.0218  -25.4194  -56.6597 H         1 UNK         0.0600 
    228 H228       -4.4342  -25.4579  -57.7026 H         1 UNK         0.0600 
    229 H229       -3.6574  -23.9228  -57.3420 H         1 UNK         0.0600 
    230 H230       -6.5550  -23.9187  -54.0199 H         1 UNK         0.3000 
    231 H231       -8.3967  -22.7065  -53.8543 H         1 UNK         0.0600 
    232 H232       -9.4401  -24.6295  -55.0339 H         1 UNK         0.0600 
    233 H233       -9.1558  -23.8549  -56.5917 H         1 UNK         0.0600 
    234 H234      -10.2566  -23.1261  -55.4309 H         1 UNK         0.0600 
    235 H235       -6.5362  -21.0283  -54.1468 H         1 UNK         0.3000 
    236 H236       -7.5876  -18.8433  -55.7466 H         1 UNK         0.0600 
    237 H237       -4.7272  -19.7857  -56.3247 H         1 UNK         0.0600 
    238 H238       -6.0895  -20.0797  -57.3974 H         1 UNK         0.0600 
    239 H239       -5.5737  -18.4379  -57.0826 H         1 UNK         0.0600 
    240 H240       -4.9483  -17.5102  -55.4925 H         1 UNK         0.3000 
    241 H241       -4.1202  -15.9156  -54.3532 H         1 UNK         0.0600 
    242 H242       -5.7901  -14.1070  -51.5904 H         1 UNK         0.3800 
    243 H243       -4.1771  -14.7330  -51.7686 H         1 UNK         0.3800 
    244 H244       -2.8661  -17.8328  -53.3285 H         1 UNK         0.0800 
    245 H245       -2.7924  -16.3318  -52.4814 H         1 UNK         0.0800 
    246 H246       -3.4700  -16.0190  -49.9655 H         1 UNK         0.0800 
    247 H247       -3.4019  -17.4172  -48.9405 H         1 UNK         0.0800 
@<TRIPOS>BOND
     1    1    2 1    
     2    1  127 1    
     3    1  128 1    
     4    1  129 1    
     5    2    3 2    
     6    2    4 am   BACKBONE|DICT|INTERRES
     7    4    5 1    
     8    4  130 1    
     9    5    6 1    
    10    5   65 1    
    11    5  131 1    
    12    6    7 1    
    13    6  132 1    
    14    6  133 1    
    15    7    8 1    
    16    8    9 1    
    17    8  134 1    
    18    8  135 1    
    19    9   10 ar   
    20    9   14 ar   
    21   10   11 ar   
    22   10  136 1    
    23   11   12 ar   
    24   11  126 1    
    25   12   13 ar   
    26   12  137 1    
    27   13   14 ar   
    28   13   15 1    
    29   14  138 1    
    30   15   16 1    
    31   15  139 1    
    32   15  140 1    
    33   16   17 1    
    34   17   18 1    
    35   17  141 1    
    36   17  142 1    
    37   18   19 1    
    38   18   67 1    
    39   18  143 1    
    40   19   20 am   BACKBONE|DICT|INTERRES
    41   19  144 1    
    42   20   21 2    
    43   20   22 1    
    44   22   23 1    
    45   22   24 1    
    46   22  145 1    
    47   23  146 1    
    48   23  147 1    
    49   23  148 1    
    50   24   25 am   BACKBONE|DICT|INTERRES
    51   24  149 1    
    52   25   26 2    
    53   25   27 1    
    54   27   28 1    
    55   27   29 1    
    56   27  150 1    
    57   28  151 1    
    58   28  152 1    
    59   28  153 1    
    60   29   30 am   BACKBONE|DICT|INTERRES
    61   29  154 1    
    62   30   31 2    
    63   30   32 1    
    64   32   33 1    
    65   32   34 1    
    66   32  155 1    
    67   33  156 1    
    68   33  157 1    
    69   33  158 1    
    70   34   35 am   BACKBONE|DICT|INTERRES
    71   34  159 1    
    72   35   36 2    
    73   35   37 1    
    74   37   38 1    
    75   37   39 1    
    76   37  160 1    
    77   38  161 1    
    78   38  162 1    
    79   38  163 1    
    80   39   40 am   BACKBONE|DICT|INTERRES
    81   39  164 1    
    82   40   41 2    
    83   40   42 1    
    84   42   43 1    
    85   42   44 1    
    86   42  165 1    
    87   43  166 1    
    88   43  167 1    
    89   43  168 1    
    90   44   45 am   BACKBONE|DICT|INTERRES
    91   44  169 1    
    92   45   46 2    
    93   45   47 1    
    94   47   48 1    
    95   47   49 1    
    96   47  170 1    
    97   48  171 1    
    98   48  172 1    
    99   48  173 1    
   100   49   50 am   BACKBONE|DICT|INTERRES
   101   49  174 1    
   102   50   51 2    
   103   50   52 1    
   104   52   53 1    
   105   52   54 1    
   106   52  175 1    
   107   53  176 1    
   108   53  177 1    
   109   53  178 1    
   110   54   55 am   BACKBONE|DICT|INTERRES
   111   54  179 1    
   112   55   56 2    
   113   55   57 1    
   114   57   58 1    
   115   57   59 1    
   116   57  180 1    
   117   58  181 1    
   118   58  182 1    
   119   58  183 1    
   120   59   60 am   BACKBONE|DICT|INTERRES
   121   59  184 1    
   122   60   61 2    
   123   60   62 1    
   124   62   63 1    
   125   62   64 1    
   126   62  185 1    
   127   63  186 1    
   128   63  187 1    
   129   63  188 1    
   130   64   65 am   BACKBONE|DICT|INTERRES
   131   64  189 1    
   132   65   66 2    
   133   67   68 2    
   134   67   69 am   BACKBONE|DICT|INTERRES
   135   69   70 1    
   136   69  190 1    
   137   70   71 1    
   138   70   72 1    
   139   70  191 1    
   140   71  192 1    
   141   71  193 1    
   142   71  194 1    
   143   72   73 2    
   144   72   74 am   BACKBONE|DICT|INTERRES
   145   74   75 1    
   146   74  195 1    
   147   75   76 1    
   148   75   77 1    
   149   75  196 1    
   150   76  197 1    
   151   76  198 1    
   152   76  199 1    
   153   77   78 2    
   154   77   79 am   BACKBONE|DICT|INTERRES
   155   79   80 1    
   156   79  200 1    
   157   80   81 1    
   158   80   82 1    
   159   80  201 1    
   160   81  202 1    
   161   81  203 1    
   162   81  204 1    
   163   82   83 2    
   164   82   84 am   BACKBONE|DICT|INTERRES
   165   84   85 1    
   166   84  205 1    
   167   85   86 1    
   168   85   87 1    
   169   85  206 1    
   170   86  207 1    
   171   86  208 1    
   172   86  209 1    
   173   87   88 2    
   174   87   89 am   BACKBONE|DICT|INTERRES
   175   89   90 1    
   176   89  210 1    
   177   90   91 1    
   178   90   92 1    
   179   90  211 1    
   180   91  212 1    
   181   91  213 1    
   182   91  214 1    
   183   92   93 2    
   184   92   94 am   BACKBONE|DICT|INTERRES
   185   94   95 1    
   186   94  215 1    
   187   95   96 1    
   188   95   97 1    
   189   95  216 1    
   190   96  217 1    
   191   96  218 1    
   192   96  219 1    
   193   97   98 2    
   194   97   99 am   BACKBONE|DICT|INTERRES
   195   99  100 1    
   196   99  220 1    
   197  100  101 1    
   198  100  102 1    
   199  100  221 1    
   200  101  222 1    
   201  101  223 1    
   202  101  224 1    
   203  102  103 2    
   204  102  104 am   BACKBONE|DICT|INTERRES
   205  104  105 1    
   206  104  225 1    
   207  105  106 1    
   208  105  107 1    
   209  105  226 1    
   210  106  227 1    
   211  106  228 1    
   212  106  229 1    
   213  107  108 2    
   214  107  109 am   BACKBONE|DICT|INTERRES
   215  109  110 1    
   216  109  230 1    
   217  110  111 1    
   218  110  112 1    
   219  110  231 1    
   220  111  232 1    
   221  111  233 1    
   222  111  234 1    
   223  112  113 2    
   224  112  114 am   BACKBONE|DICT|INTERRES
   225  114  115 1    
   226  114  235 1    
   227  115  116 1    
   228  115  117 1    
   229  115  236 1    
   230  116  237 1    
   231  116  238 1    
   232  116  239 1    
   233  117  118 2    
   234  117  119 am   BACKBONE|DICT|INTERRES
   235  119  120 1    
   236  119  240 1    
   237  120  121 1    
   238  120  124 1    
   239  120  241 1    
   240  121  122 am   BACKBONE|DICT|INTERRES
   241  121  123 2    
   242  122  242 1    
   243  122  243 1    
   244  124  125 1    
   245  124  244 1    
   246  124  245 1    
   247  125  126 1    
   248  126  246 1    
   249  126  247 1    
@<TRIPOS>SUBSTRUCTURE
     1 UNK         1 GROUP             0       ****    0 ROOT    
