@<TRIPOS>MOLECULE
3R540
247   249    1
SMALL
USER_CHARGES


@<TRIPOS>ATOM
      1 CA          0.7415  -11.0224  -49.1846 C.3       0 UNK        -0.1800 
      2 C           0.5900  -12.1842  -50.1656 C.2       0 UNK         0.5000 
      3 O          -0.0304  -12.0137  -51.2121 O.2       0 UNK        -0.5000 
      4 N           1.1427  -13.3727  -49.8859 N.am      1 UNK        -0.5000 
      5 CA          1.8492  -13.7515  -48.6564 C.3       1 UNK         0.1400 
      6 C6          2.7880  -14.9631  -48.8852 C.3       23 UNK        -0.0398 
      7 S7          1.9533  -16.4663  -49.5130 S.3       23 UNK        -0.2404 
      8 C8          3.3486  -17.6400  -49.4987 C.3       23 UNK        -0.0205 
      9 C9          2.9625  -19.0364  -49.9757 C.ar      23 UNK        -0.0193 
     10 C10         2.2438  -19.2080  -51.1629 C.ar      23 UNK        -0.1150 
     11 C11         1.9319  -20.4857  -51.6324 C.ar      23 UNK        -0.0193 
     12 C12         2.3403  -21.6006  -50.8948 C.ar      23 UNK        -0.1150 
     13 C13         3.0563  -21.4551  -49.7009 C.ar      23 UNK        -0.0193 
     14 C14         3.3761  -20.1646  -49.2576 C.ar      23 UNK        -0.1150 
     15 C15         3.5064  -22.7237  -48.9698 C.3       23 UNK        -0.0205 
     16 S16         3.8832  -22.5865  -47.1809 S.3       23 UNK        -0.2404 
     17 C17         2.4037  -21.8168  -46.4380 C.3       23 UNK        -0.0398 
     18 CA          1.1872  -22.7569  -46.2324 C.3       11 UNK         0.1400 
     19 N           0.3169  -22.2952  -45.1425 N.am      11 UNK        -0.5000 
     20 C          -0.8086  -22.8982  -44.7271 C.2       10 UNK         0.5000 
     21 O          -1.1974  -23.9878  -45.1459 O.2       10 UNK        -0.5000 
     22 CA         -1.6829  -22.1276  -43.7191 C.3       10 UNK         0.1400 
     23 CB         -1.1800  -22.3265  -42.2819 C.3       10 UNK        -0.1800 
     24 N          -1.7628  -20.6981  -44.0243 N.am      10 UNK        -0.5000 
     25 C          -2.3245  -20.1854  -45.1295 C.2       9 UNK         0.5000 
     26 O          -2.9059  -20.8644  -45.9751 O.2       9 UNK        -0.5000 
     27 CA         -2.1520  -18.6709  -45.3544 C.3       9 UNK         0.1400 
     28 CB         -3.1975  -17.8667  -44.5672 C.3       9 UNK        -0.1800 
     29 N          -0.8024  -18.2192  -45.0073 N.am      9 UNK        -0.5000 
     30 C           0.2969  -18.5814  -45.6845 C.2       8 UNK         0.5000 
     31 O           0.2655  -19.2486  -46.7171 O.2       8 UNK        -0.5000 
     32 CA          1.6587  -18.1964  -45.0787 C.3       8 UNK         0.1400 
     33 CB          2.1319  -16.8325  -45.5864 C.3       8 UNK        -0.1800 
     34 N           1.6315  -18.1883  -43.6180 N.am      8 UNK        -0.5000 
     35 C           1.6180  -19.2955  -42.8637 C.2       7 UNK         0.5000 
     36 O           1.6716  -20.4332  -43.3276 O.2       7 UNK        -0.5000 
     37 CA          1.4697  -19.0996  -41.3433 C.3       7 UNK         0.1400 
     38 CB          2.8427  -18.8821  -40.6909 C.3       7 UNK        -0.1800 
     39 N           0.5904  -17.9792  -41.0058 N.am      7 UNK        -0.5000 
     40 C          -0.7167  -17.9233  -41.2997 C.2       6 UNK         0.5000 
     41 O          -1.3338  -18.8514  -41.8204 O.2       6 UNK        -0.5000 
     42 CA         -1.4395  -16.5919  -41.0179 C.3       6 UNK         0.1400 
     43 CB         -2.1185  -16.6287  -39.6412 C.3       6 UNK        -0.1800 
     44 N          -0.5466  -15.4308  -41.0886 N.am      6 UNK        -0.5000 
     45 C           0.0474  -14.9973  -42.2084 C.2       5 UNK         0.5000 
     46 O          -0.1098  -15.5196  -43.3135 O.2       5 UNK        -0.5000 
     47 CA          1.0529  -13.8532  -42.0426 C.3       5 UNK         0.1400 
     48 CB          2.4871  -14.4102  -41.9825 C.3       5 UNK        -0.1800 
     49 N           0.9345  -12.9059  -43.1471 N.am      5 UNK        -0.5000 
     50 C           1.2850  -11.6146  -43.0683 C.2       4 UNK         0.5000 
     51 O           1.7375  -11.0954  -42.0467 O.2       4 UNK        -0.5000 
     52 CA          1.1041  -10.7423  -44.3223 C.3       4 UNK         0.1400 
     53 CB          2.3928  -10.7224  -45.1604 C.3       4 UNK        -0.1800 
     54 N          -0.0113  -11.1893  -45.1552 N.am      4 UNK        -0.5000 
     55 C          -1.2725  -10.7506  -45.0257 C.2       3 UNK         0.5000 
     56 O          -1.6233   -9.9321  -44.1749 O.2       3 UNK        -0.5000 
     57 CA         -2.3235  -11.2923  -46.0166 C.3       3 UNK         0.1400 
     58 CB         -2.6173  -10.2543  -47.1112 C.3       3 UNK        -0.1800 
     59 N          -1.9188  -12.5466  -46.6503 N.am      3 UNK        -0.5000 
     60 C          -1.9473  -13.7400  -46.0441 C.2       2 UNK         0.5000 
     61 O          -2.4039  -13.9195  -44.9161 O.2       2 UNK        -0.5000 
     62 CA         -1.3452  -14.9237  -46.8234 C.3       2 UNK         0.1400 
     63 CB         -2.4402  -15.6823  -47.5800 C.3       2 UNK        -0.1800 
     64 N          -0.3050  -14.5491  -47.7851 N.am      2 UNK        -0.5000 
     65 C           0.8748  -13.9915  -47.4832 C.2       1 UNK         0.5000 
     66 O           1.1808  -13.6264  -46.3494 O.2       1 UNK        -0.5000 
     67 C           0.3916  -22.9117  -47.5419 C.2       11 UNK         0.5000 
     68 O           0.3950  -23.9894  -48.1343 O.2       11 UNK        -0.5000 
     69 N          -0.3076  -21.8410  -47.9389 N.am      12 UNK        -0.5000 
     70 CA         -1.1385  -21.7897  -49.1370 C.3       12 UNK         0.1400 
     71 CB         -1.6440  -20.3574  -49.3309 C.3       12 UNK        -0.1800 
     72 C          -2.2986  -22.8005  -49.1227 C.2       12 UNK         0.5000 
     73 O          -2.5572  -23.4355  -50.1419 O.2       12 UNK        -0.5000 
     74 N          -2.9425  -22.9758  -47.9604 N.am      13 UNK        -0.5000 
     75 CA         -3.9730  -23.9898  -47.7403 C.3       13 UNK         0.1400 
     76 CB         -4.6264  -23.7729  -46.3675 C.3       13 UNK        -0.1800 
     77 C          -3.4273  -25.4257  -47.8753 C.2       13 UNK         0.5000 
     78 O          -4.0487  -26.2480  -48.5493 O.2       13 UNK        -0.5000 
     79 N          -2.2619  -25.6942  -47.2675 N.am      14 UNK        -0.5000 
     80 CA         -1.5611  -26.9803  -47.3336 C.3       14 UNK         0.1400 
     81 CB         -0.4110  -26.9898  -46.3153 C.3       14 UNK        -0.1800 
     82 C          -1.0421  -27.3212  -48.7445 C.2       14 UNK         0.5000 
     83 O          -1.0489  -28.4913  -49.1282 O.2       14 UNK        -0.5000 
     84 N          -0.6338  -26.2941  -49.5008 N.am      15 UNK        -0.5000 
     85 CA         -0.1999  -26.3796  -50.8977 C.3       15 UNK         0.1400 
     86 CB          0.5802  -25.1028  -51.2493 C.3       15 UNK        -0.1800 
     87 C          -1.3489  -26.6153  -51.9037 C.2       15 UNK         0.5000 
     88 O          -1.0659  -26.8509  -53.0797 O.2       15 UNK        -0.5000 
     89 N          -2.6015  -26.5653  -51.4265 N.am      16 UNK        -0.5000 
     90 CA         -3.8676  -26.6769  -52.1555 C.3       16 UNK         0.1400 
     91 CB         -3.9320  -27.9633  -53.0078 C.3       16 UNK        -0.1800 
     92 C          -4.2111  -25.4091  -52.9637 C.2       16 UNK         0.5000 
     93 O          -3.4084  -24.4791  -53.0550 O.2       16 UNK        -0.5000 
     94 N          -5.4380  -25.3942  -53.5032 N.am      17 UNK        -0.5000 
     95 CA         -6.1612  -24.2259  -54.0166 C.3       17 UNK         0.1400 
     96 CB         -5.3992  -23.5056  -55.1539 C.3       17 UNK        -0.1800 
     97 C          -6.5958  -23.3090  -52.8522 C.2       17 UNK         0.5000 
     98 O          -6.8738  -23.8119  -51.7597 O.2       17 UNK        -0.5000 
     99 N          -6.7086  -22.0000  -53.1031 N.am      18 UNK        -0.5000 
    100 CA        -7.1389  -21.0120  -52.1159 C.3       18 UNK         0.1400 
    101 CB        -7.4763  -19.6999  -52.8419 C.3       18 UNK        -0.1800 
    102 C         -6.0670  -20.7592  -51.0413 C.2       18 UNK         0.5000 
    103 O         -4.8803  -20.6877  -51.3617 O.2       18 UNK        -0.5000 
    104 N         -6.5105  -20.5275  -49.7983 N.am      19 UNK        -0.5000 
    105 CA        -5.6543  -20.0779  -48.6937 C.3       19 UNK         0.1400 
    106 CB        -6.4309  -20.1773  -47.3731 C.3       19 UNK        -0.1800 
    107 C         -5.1146  -18.6473  -48.9014 C.2       19 UNK         0.5000 
    108 O         -4.1149  -18.2790  -48.2899 O.2       19 UNK        -0.5000 
    109 N         -5.7582  -17.8749  -49.7874 N.am      20 UNK        -0.5000 
    110 CA        -5.3175  -16.5703  -50.2718 C.3       20 UNK         0.1400 
    111 CB        -6.5256  -15.8442  -50.8896 C.3       20 UNK        -0.1800 
    112 C         -4.1407  -16.7092  -51.2622 C.2       20 UNK         0.5000 
    113 O         -4.3080  -16.4812  -52.4622 O.2       20 UNK        -0.5000 
    114 N         -2.9759  -17.1117  -50.7343 N.am      21 UNK        -0.5000 
    115 CA        -1.6723  -17.1967  -51.4073 C.3       21 UNK         0.1400 
    116 CB        -1.1352  -15.7780  -51.6875 C.3       21 UNK        -0.1800 
    117 C         -1.6659  -18.0952  -52.6653 C.2       21 UNK         0.5000 
    118 O         -0.9738  -17.7872  -53.6370 O.2       21 UNK        -0.5000 
    119 N         -2.4467  -19.1828  -52.6235 N.am      22 UNK        -0.5000 
    120 CA        -2.6467  -20.1642  -53.7052 C.3       22 UNK         0.1400 
    121 C         -3.5199  -19.6416  -54.8862 C.2       22 UNK         0.5000 
    122 N         -4.1761  -18.4908  -54.7780 N.am      22 UNK        -0.7600 
    123 O         -3.6347  -20.3048  -55.9130 O.2       22 UNK        -0.5000 
    124 C124       -1.3417  -20.8650  -54.1844 C.3       23 UNK        -0.0398 
    125 S125       -0.3622  -21.5615  -52.8059 S.3       23 UNK        -0.2404 
    126 C126        1.2062  -20.6485  -52.9630 C.3       23 UNK        -0.0205 
    127 H127        1.7888  -10.7366  -49.0879 H         1 UNK         0.0600 
    128 H128        0.3567  -11.2747  -48.1986 H         1 UNK         0.0600 
    129 H129        0.1923  -10.1501  -49.5396 H         1 UNK         0.0600 
    130 H130        1.0627  -14.1115  -50.5699 H         1 UNK         0.3000 
    131 H131        2.4891  -12.9171  -48.3630 H         1 UNK         0.0600 
    132 H132        3.5587  -14.6857  -49.6058 H         1 UNK         0.0800 
    133 H133        3.3240  -15.2045  -47.9658 H         1 UNK         0.0800 
    134 H134        3.7574  -17.6845  -48.4881 H         1 UNK         0.0800 
    135 H135        4.1433  -17.2600  -50.1418 H         1 UNK         0.0800 
    136 H136        1.9442  -18.3403  -51.7339 H         1 UNK         0.1150 
    137 H137        2.1082  -22.5894  -51.2641 H         1 UNK         0.1150 
    138 H138        3.9586  -20.0330  -48.3575 H         1 UNK         0.1150 
    139 H139        2.7644  -23.5099  -49.1038 H         1 UNK         0.0800 
    140 H140        4.4065  -23.0868  -49.4671 H         1 UNK         0.0800 
    141 H141        2.1364  -20.9223  -46.9964 H         1 UNK         0.0800 
    142 H142        2.7398  -21.4539  -45.4672 H         1 UNK         0.0800 
    143 H143        1.5535  -23.7436  -45.9422 H         1 UNK         0.0600 
    144 H144        0.5957  -21.4379  -44.6777 H         1 UNK         0.3000 
    145 H145       -2.6943  -22.5343  -43.7799 H         1 UNK         0.0600 
    146 H146       -1.8258  -21.8192  -41.5649 H         1 UNK         0.0600 
    147 H147       -0.1687  -21.9440  -42.1486 H         1 UNK         0.0600 
    148 H148       -1.1671  -23.3846  -42.0179 H         1 UNK         0.0600 
    149 H149       -1.3714  -20.0598  -43.3380 H         1 UNK         0.3000 
    150 H150       -2.3021  -18.4730  -46.4162 H         1 UNK         0.0600 
    151 H151       -4.1993  -18.0668  -44.9493 H         1 UNK         0.0600 
    152 H152       -3.0237  -16.7941  -44.6521 H         1 UNK         0.0600 
    153 H153       -3.1972  -18.1205  -43.5078 H         1 UNK         0.0600 
    154 H154       -0.7008  -17.6498  -44.1780 H         1 UNK         0.3000 
    155 H155        2.3876  -18.9393  -45.4079 H         1 UNK         0.0600 
    156 H156        2.1491  -16.8209  -46.6732 H         1 UNK         0.0600 
    157 H157        3.1399  -16.6058  -45.2395 H         1 UNK         0.0600 
    158 H158        1.4755  -16.0285  -45.2599 H         1 UNK         0.0600 
    159 H159        1.5292  -17.2880  -43.1727 H         1 UNK         0.3000 
    160 H160        1.0324  -20.0109  -40.9301 H         1 UNK         0.0600 
    161 H161        3.3204  -17.9691  -41.0489 H         1 UNK         0.0600 
    162 H162        3.5148  -19.7126  -40.9113 H         1 UNK         0.0600 
    163 H163        2.7576  -18.8140  -39.6062 H         1 UNK         0.0600 
    164 H164        1.0180  -17.1800  -40.5628 H         1 UNK         0.3000 
    165 H165       -2.2133  -16.4697  -41.7788 H         1 UNK         0.0600 
    166 H166       -2.6960  -15.7217  -39.4618 H         1 UNK         0.0600 
    167 H167       -2.8082  -17.4709  -39.5692 H         1 UNK         0.0600 
    168 H168       -1.3911  -16.7301  -38.8348 H         1 UNK         0.0600 
    169 H169       -0.3591  -14.9565  -40.2167 H         1 UNK         0.3000 
    170 H170        0.8307  -13.3395  -41.1046 H         1 UNK         0.0600 
    171 H171        2.7637  -14.9043  -42.9151 H         1 UNK         0.0600 
    172 H172        3.2125  -13.6177  -41.7982 H         1 UNK         0.0600 
    173 H173        2.5945  -15.1387  -41.1780 H         1 UNK         0.0600 
    174 H174        0.5696  -13.2842  -44.0131 H         1 UNK         0.3000 
    175 H175        0.9173   -9.7191  -43.9887 H         1 UNK         0.0600 
    176 H176        2.6987  -11.7230  -45.4648 H         1 UNK         0.0600 
    177 H177        2.2708  -10.1191  -46.0602 H         1 UNK         0.0600 
    178 H178        3.2172  -10.2925  -44.5903 H         1 UNK         0.0600 
    179 H179        0.1983  -11.9213  -45.8227 H         1 UNK         0.3000 
    180 H180       -3.2457  -11.4642  -45.4574 H         1 UNK         0.0600 
    181 H181       -3.3891  -10.6086  -47.7949 H         1 UNK         0.0600 
    182 H182       -1.7290  -10.0205  -47.6981 H         1 UNK         0.0600 
    183 H183       -2.9755   -9.3205  -46.6760 H         1 UNK         0.0600 
    184 H184       -1.5568  -12.4919  -47.5898 H         1 UNK         0.3000 
    185 H185       -0.8980  -15.5974  -46.0906 H         1 UNK         0.0600 
    186 H186       -2.8679  -15.0785  -48.3807 H         1 UNK         0.0600 
    187 H187       -2.0383  -16.5947  -48.0199 H         1 UNK         0.0600 
    188 H188       -3.2559  -15.9720  -46.9171 H         1 UNK         0.0600 
    189 H189       -0.4713  -14.8032  -48.7468 H         1 UNK         0.3000 
    190 H190       -0.2343  -20.9784  -47.4062 H         1 UNK         0.3000 
    191 H191       -0.4980  -22.0430  -49.9817 H         1 UNK         0.0600 
    192 H192       -0.8152  -19.6829  -49.5440 H         1 UNK         0.0600 
    193 H193       -2.1522  -19.9922  -48.4400 H         1 UNK         0.0600 
    194 H194       -2.3477  -20.3007  -50.1596 H         1 UNK         0.0600 
    195 H195       -2.7132  -22.3715  -47.1760 H         1 UNK         0.3000 
    196 H196       -4.7406  -23.8512  -48.5049 H         1 UNK         0.0600 
    197 H197       -5.0533  -22.7734  -46.2871 H         1 UNK         0.0600 
    198 H198       -3.9098  -23.8944  -45.5554 H         1 UNK         0.0600 
    199 H199       -5.4338  -24.4873  -46.2030 H         1 UNK         0.0600 
    200 H200       -1.8215  -24.9695  -46.7067 H         1 UNK         0.3000 
    201 H201       -2.2706  -27.7597  -47.0485 H         1 UNK         0.0600 
    202 H202       -0.7815  -26.8360  -45.3017 H         1 UNK         0.0600 
    203 H203        0.3194  -26.2080  -46.5255 H         1 UNK         0.0600 
    204 H204        0.1158  -27.9447  -46.3281 H         1 UNK         0.0600 
    205 H205       -0.5850  -25.3737  -49.0719 H         1 UNK         0.3000 
    206 H206        0.4826  -27.2268  -50.9889 H         1 UNK         0.0600 
    207 H207       -0.0444  -24.2150  -51.1484 H         1 UNK         0.0600 
    208 H208        1.4464  -24.9803  -50.5998 H         1 UNK         0.0600 
    209 H209        0.9458  -25.1309  -52.2763 H         1 UNK         0.0600 
    210 H210       -2.7037  -26.3120  -50.4523 H         1 UNK         0.3000 
    211 H211       -4.6295  -26.7595  -51.3788 H         1 UNK         0.0600 
    212 H212       -3.3076  -27.8946  -53.8988 H         1 UNK         0.0600 
    213 H213       -4.9497  -28.1622  -53.3440 H         1 UNK         0.0600 
    214 H214       -3.6084  -28.8331  -52.4358 H         1 UNK         0.0600 
    215 H215       -6.0180  -26.2082  -53.3570 H         1 UNK         0.3000 
    216 H216       -7.0837  -24.6181  -54.4467 H         1 UNK         0.0600 
    217 H217       -6.0511  -22.8129  -55.6870 H         1 UNK         0.0600 
    218 H218       -5.0248  -24.2187  -55.8882 H         1 UNK         0.0600 
    219 H219       -4.5486  -22.9323  -54.7837 H         1 UNK         0.0600 
    220 H220       -6.4367  -21.6487  -54.0091 H         1 UNK         0.3000 
    221 H221       -8.0458  -21.3820  -51.6327 H         1 UNK         0.0600 
    222 H222       -6.6003  -19.2751  -53.3339 H         1 UNK         0.0600 
    223 H223       -8.2450  -19.8533  -53.5995 H         1 UNK         0.0600 
    224 H224       -7.8555  -18.9515  -52.1452 H         1 UNK         0.0600 
    225 H225       -7.4987  -20.6013  -49.6023 H         1 UNK         0.3000 
    226 H226       -4.7930  -20.7466  -48.6335 H         1 UNK         0.0600 
    227 H227       -6.7850  -21.1932  -47.1985 H         1 UNK         0.0600 
    228 H228       -5.7943  -19.9072  -46.5290 H         1 UNK         0.0600 
    229 H229       -7.2949  -19.5119  -47.3615 H         1 UNK         0.0600 
    230 H230       -6.5647  -18.2675  -50.2471 H         1 UNK         0.3000 
    231 H231       -4.9709  -15.9775  -49.4230 H         1 UNK         0.0600 
    232 H232       -6.2424  -14.8556  -51.2531 H         1 UNK         0.0600 
    233 H233       -7.3187  -15.7038  -50.1550 H         1 UNK         0.0600 
    234 H234       -6.9432  -16.3971  -51.7322 H         1 UNK         0.0600 
    235 H235       -2.9906  -17.3792  -49.7553 H         1 UNK         0.3000 
    236 H236       -0.9889  -17.6641  -50.6981 H         1 UNK         0.0600 
    237 H237       -1.7275  -15.2662  -52.4468 H         1 UNK         0.0600 
    238 H238       -1.1478  -15.1655  -50.7869 H         1 UNK         0.0600 
    239 H239       -0.1046  -15.8122  -52.0429 H         1 UNK         0.0600 
    240 H240       -3.0220  -19.3416  -51.8075 H         1 UNK         0.3000 
    241 H241       -3.2532  -20.9524  -53.2614 H         1 UNK         0.0600 
    242 H242       -4.7392  -18.1717  -55.5497 H         1 UNK         0.3800 
    243 H243       -4.0958  -17.9155  -53.9470 H         1 UNK         0.3800 
    244 H244       -1.5891  -21.6934  -54.8502 H         1 UNK         0.0800 
    245 H245       -0.7337  -20.1817  -54.7778 H         1 UNK         0.0800 
    246 H246        1.8547  -21.1751  -53.6641 H         1 UNK         0.0800 
    247 H247        1.0155  -19.6679  -53.4000 H         1 UNK         0.0800 
@<TRIPOS>BOND
     1    1    2 1    
     2    1  127 1    
     3    1  128 1    
     4    1  129 1    
     5    2    3 2    
     6    2    4 am   BACKBONE|DICT|INTERRES
     7    4    5 1    
     8    4  130 1    
     9    5    6 1    
    10    5   65 1    
    11    5  131 1    
    12    6    7 1    
    13    6  132 1    
    14    6  133 1    
    15    7    8 1    
    16    8    9 1    
    17    8  134 1    
    18    8  135 1    
    19    9   10 ar   
    20    9   14 ar   
    21   10   11 ar   
    22   10  136 1    
    23   11   12 ar   
    24   11  126 1    
    25   12   13 ar   
    26   12  137 1    
    27   13   14 ar   
    28   13   15 1    
    29   14  138 1    
    30   15   16 1    
    31   15  139 1    
    32   15  140 1    
    33   16   17 1    
    34   17   18 1    
    35   17  141 1    
    36   17  142 1    
    37   18   19 1    
    38   18   67 1    
    39   18  143 1    
    40   19   20 am   BACKBONE|DICT|INTERRES
    41   19  144 1    
    42   20   21 2    
    43   20   22 1    
    44   22   23 1    
    45   22   24 1    
    46   22  145 1    
    47   23  146 1    
    48   23  147 1    
    49   23  148 1    
    50   24   25 am   BACKBONE|DICT|INTERRES
    51   24  149 1    
    52   25   26 2    
    53   25   27 1    
    54   27   28 1    
    55   27   29 1    
    56   27  150 1    
    57   28  151 1    
    58   28  152 1    
    59   28  153 1    
    60   29   30 am   BACKBONE|DICT|INTERRES
    61   29  154 1    
    62   30   31 2    
    63   30   32 1    
    64   32   33 1    
    65   32   34 1    
    66   32  155 1    
    67   33  156 1    
    68   33  157 1    
    69   33  158 1    
    70   34   35 am   BACKBONE|DICT|INTERRES
    71   34  159 1    
    72   35   36 2    
    73   35   37 1    
    74   37   38 1    
    75   37   39 1    
    76   37  160 1    
    77   38  161 1    
    78   38  162 1    
    79   38  163 1    
    80   39   40 am   BACKBONE|DICT|INTERRES
    81   39  164 1    
    82   40   41 2    
    83   40   42 1    
    84   42   43 1    
    85   42   44 1    
    86   42  165 1    
    87   43  166 1    
    88   43  167 1    
    89   43  168 1    
    90   44   45 am   BACKBONE|DICT|INTERRES
    91   44  169 1    
    92   45   46 2    
    93   45   47 1    
    94   47   48 1    
    95   47   49 1    
    96   47  170 1    
    97   48  171 1    
    98   48  172 1    
    99   48  173 1    
   100   49   50 am   BACKBONE|DICT|INTERRES
   101   49  174 1    
   102   50   51 2    
   103   50   52 1    
   104   52   53 1    
   105   52   54 1    
   106   52  175 1    
   107   53  176 1    
   108   53  177 1    
   109   53  178 1    
   110   54   55 am   BACKBONE|DICT|INTERRES
   111   54  179 1    
   112   55   56 2    
   113   55   57 1    
   114   57   58 1    
   115   57   59 1    
   116   57  180 1    
   117   58  181 1    
   118   58  182 1    
   119   58  183 1    
   120   59   60 am   BACKBONE|DICT|INTERRES
   121   59  184 1    
   122   60   61 2    
   123   60   62 1    
   124   62   63 1    
   125   62   64 1    
   126   62  185 1    
   127   63  186 1    
   128   63  187 1    
   129   63  188 1    
   130   64   65 am   BACKBONE|DICT|INTERRES
   131   64  189 1    
   132   65   66 2    
   133   67   68 2    
   134   67   69 am   BACKBONE|DICT|INTERRES
   135   69   70 1    
   136   69  190 1    
   137   70   71 1    
   138   70   72 1    
   139   70  191 1    
   140   71  192 1    
   141   71  193 1    
   142   71  194 1    
   143   72   73 2    
   144   72   74 am   BACKBONE|DICT|INTERRES
   145   74   75 1    
   146   74  195 1    
   147   75   76 1    
   148   75   77 1    
   149   75  196 1    
   150   76  197 1    
   151   76  198 1    
   152   76  199 1    
   153   77   78 2    
   154   77   79 am   BACKBONE|DICT|INTERRES
   155   79   80 1    
   156   79  200 1    
   157   80   81 1    
   158   80   82 1    
   159   80  201 1    
   160   81  202 1    
   161   81  203 1    
   162   81  204 1    
   163   82   83 2    
   164   82   84 am   BACKBONE|DICT|INTERRES
   165   84   85 1    
   166   84  205 1    
   167   85   86 1    
   168   85   87 1    
   169   85  206 1    
   170   86  207 1    
   171   86  208 1    
   172   86  209 1    
   173   87   88 2    
   174   87   89 am   BACKBONE|DICT|INTERRES
   175   89   90 1    
   176   89  210 1    
   177   90   91 1    
   178   90   92 1    
   179   90  211 1    
   180   91  212 1    
   181   91  213 1    
   182   91  214 1    
   183   92   93 2    
   184   92   94 am   BACKBONE|DICT|INTERRES
   185   94   95 1    
   186   94  215 1    
   187   95   96 1    
   188   95   97 1    
   189   95  216 1    
   190   96  217 1    
   191   96  218 1    
   192   96  219 1    
   193   97   98 2    
   194   97   99 am   BACKBONE|DICT|INTERRES
   195   99  100 1    
   196   99  220 1    
   197  100  101 1    
   198  100  102 1    
   199  100  221 1    
   200  101  222 1    
   201  101  223 1    
   202  101  224 1    
   203  102  103 2    
   204  102  104 am   BACKBONE|DICT|INTERRES
   205  104  105 1    
   206  104  225 1    
   207  105  106 1    
   208  105  107 1    
   209  105  226 1    
   210  106  227 1    
   211  106  228 1    
   212  106  229 1    
   213  107  108 2    
   214  107  109 am   BACKBONE|DICT|INTERRES
   215  109  110 1    
   216  109  230 1    
   217  110  111 1    
   218  110  112 1    
   219  110  231 1    
   220  111  232 1    
   221  111  233 1    
   222  111  234 1    
   223  112  113 2    
   224  112  114 am   BACKBONE|DICT|INTERRES
   225  114  115 1    
   226  114  235 1    
   227  115  116 1    
   228  115  117 1    
   229  115  236 1    
   230  116  237 1    
   231  116  238 1    
   232  116  239 1    
   233  117  118 2    
   234  117  119 am   BACKBONE|DICT|INTERRES
   235  119  120 1    
   236  119  240 1    
   237  120  121 1    
   238  120  124 1    
   239  120  241 1    
   240  121  122 am   BACKBONE|DICT|INTERRES
   241  121  123 2    
   242  122  242 1    
   243  122  243 1    
   244  124  125 1    
   245  124  244 1    
   246  124  245 1    
   247  125  126 1    
   248  126  246 1    
   249  126  247 1    
@<TRIPOS>SUBSTRUCTURE
     1 UNK         1 GROUP             0       ****    0 ROOT    
