@<TRIPOS>MOLECULE
3R540
247   249    1
SMALL
USER_CHARGES


@<TRIPOS>ATOM
      1 CA         -4.2525  -10.0383  -46.6818 C.3       0 UNK        -0.1800 
      2 C          -3.0027  -10.8805  -46.4740 C.2       0 UNK         0.5000 
      3 O          -2.3299  -10.7365  -45.4532 O.2       0 UNK        -0.5000 
      4 N          -2.6981  -11.7723  -47.4272 N.am      1 UNK        -0.5000 
      5 CA         -1.5356  -12.6726  -47.4197 C.3       1 UNK         0.1400 
      6 C6         -1.3953  -13.4750  -48.7396 C.3       23 UNK        -0.0398 
      7 S7         -2.9177  -14.3470  -49.2589 S.3       23 UNK        -0.2404 
      8 C8         -2.5730  -16.0664  -48.7455 C.3       23 UNK        -0.0205 
      9 C9         -1.5869  -16.8581  -49.6083 C.ar      23 UNK        -0.0193 
     10 C10        -1.0239  -16.3680  -50.7941 C.ar      23 UNK        -0.1150 
     11 C11        -0.1590  -17.1619  -51.5529 C.ar      23 UNK        -0.0193 
     12 C12         0.1470  -18.4560  -51.1225 C.ar      23 UNK        -0.1150 
     13 C13        -0.4066  -18.9666  -49.9451 C.ar      23 UNK        -0.0193 
     14 C14        -1.2631  -18.1527  -49.1955 C.ar      23 UNK        -0.1150 
     15 C15        -0.0520  -20.3847  -49.4970 C.3       23 UNK        -0.0205 
     16 S16        -1.5005  -21.4063  -49.0430 S.3       23 UNK        -0.2404 
     17 C17        -1.7052  -20.9863  -47.2791 C.3       23 UNK        -0.0398 
     18 CA         -1.5101  -22.1827  -46.3183 C.3       11 UNK         0.1400 
     19 N          -0.9277  -21.7348  -45.0437 N.am      11 UNK        -0.5000 
     20 C          -0.6022  -22.4977  -43.9905 C.2       10 UNK         0.5000 
     21 O          -0.8199  -23.7080  -43.9406 O.2       10 UNK        -0.5000 
     22 CA          0.0640  -21.8088  -42.7821 C.3       10 UNK         0.1400 
     23 CB          1.4863  -22.3536  -42.5786 C.3       10 UNK        -0.1800 
     24 N           0.1246  -20.3465  -42.8734 N.am      10 UNK        -0.5000 
     25 C          -0.9121  -19.5116  -42.7125 C.2       9 UNK         0.5000 
     26 O          -2.0617  -19.8899  -42.4869 O.2       9 UNK        -0.5000 
     27 CA         -0.6169  -18.0067  -42.8707 C.3       9 UNK         0.1400 
     28 CB          0.0141  -17.4321  -41.5934 C.3       9 UNK        -0.1800 
     29 N           0.2607  -17.7370  -44.0104 N.am      9 UNK        -0.5000 
     30 C          -0.0960  -17.8832  -45.2931 C.2       8 UNK         0.5000 
     31 O          -1.2431  -18.1493  -45.6487 O.2       8 UNK        -0.5000 
     32 CA          1.0171  -17.7758  -46.3522 C.3       8 UNK         0.1400 
     33 CB          1.1734  -16.3446  -46.8770 C.3       8 UNK        -0.1800 
     34 N           2.3034  -18.2518  -45.8501 N.am      8 UNK        -0.5000 
     35 C           2.6349  -19.5441  -45.7299 C.2       7 UNK         0.5000 
     36 O           1.9014  -20.4723  -46.0689 O.2       7 UNK        -0.5000 
     37 CA          4.0100  -19.8478  -45.1047 C.3       7 UNK         0.1400 
     38 CB          5.0945  -19.8990  -46.1910 C.3       7 UNK        -0.1800 
     39 N           4.3987  -18.8739  -44.0815 N.am      7 UNK        -0.5000 
     40 C           3.7840  -18.7366  -42.8983 C.2       6 UNK         0.5000 
     41 O           2.8396  -19.4358  -42.5373 O.2       6 UNK        -0.5000 
     42 CA          4.2655  -17.5883  -41.9928 C.3       6 UNK         0.1400 
     43 CB          5.4722  -18.0315  -41.1525 C.3       6 UNK        -0.1800 
     44 N           4.6057  -16.3694  -42.7327 N.am      6 UNK        -0.5000 
     45 C           3.7427  -15.6677  -43.4792 C.2       5 UNK         0.5000 
     46 O           2.5700  -16.0005  -43.6601 O.2       5 UNK        -0.5000 
     47 CA          4.3103  -14.4306  -44.1971 C.3       5 UNK         0.1400 
     48 CB          4.8795  -14.8336  -45.5667 C.3       5 UNK        -0.1800 
     49 N           3.3111  -13.3804  -44.3969 N.am      5 UNK        -0.5000 
     50 C           2.7197  -12.6746  -43.4237 C.2       4 UNK         0.5000 
     51 O           2.9579  -12.8378  -42.2255 O.2       4 UNK        -0.5000 
     52 CA          1.7291  -11.5734  -43.8522 C.3       4 UNK         0.1400 
     53 CB          1.7521  -11.2522  -45.3615 C.3       4 UNK        -0.1800 
     54 N           0.3704  -11.9416  -43.4622 N.am      4 UNK        -0.5000 
     55 C          -0.2314  -11.5677  -42.3230 C.2       3 UNK         0.5000 
     56 O           0.3122  -10.8642  -41.4697 O.2       3 UNK        -0.5000 
     57 CA         -1.6879  -12.0222  -42.0888 C.3       3 UNK         0.1400 
     58 CB         -2.6164  -10.8101  -41.9003 C.3       3 UNK        -0.1800 
     59 N          -2.2031  -12.8281  -43.1950 N.am      3 UNK        -0.5000 
     60 C          -2.3379  -14.1612  -43.1800 C.2       2 UNK         0.5000 
     61 O          -2.1113  -14.8564  -42.1903 O.2       2 UNK        -0.5000 
     62 CA         -2.7980  -14.8455  -44.4859 C.3       2 UNK         0.1400 
     63 CB         -4.2593  -15.3045  -44.3753 C.3       2 UNK        -0.1800 
     64 N          -2.6526  -14.0166  -45.6845 N.am      2 UNK        -0.5000 
     65 C          -1.4830  -13.5958  -46.1844 C.2       1 UNK         0.5000 
     66 O          -0.3976  -13.8578  -45.6705 O.2       1 UNK        -0.5000 
     67 C          -2.8185  -22.9917  -46.1640 C.2       11 UNK         0.5000 
     68 O          -3.1158  -23.8395  -47.0064 O.2       11 UNK        -0.5000 
     69 N          -3.5496  -22.7668  -45.0623 N.am      12 UNK        -0.5000 
     70 CA         -4.7300  -23.5301  -44.6527 C.3       12 UNK         0.1400 
     71 CB         -5.3051  -22.9081  -43.3723 C.3       12 UNK        -0.1800 
     72 C          -4.4655  -25.0375  -44.4486 C.2       12 UNK         0.5000 
     73 O          -5.3819  -25.8351  -44.6469 O.2       12 UNK        -0.5000 
     74 N          -3.2205  -25.4178  -44.1184 N.am      13 UNK        -0.5000 
     75 CA         -2.7781  -26.8141  -44.0280 C.3       13 UNK         0.1400 
     76 CB         -1.4134  -26.8731  -43.3257 C.3       13 UNK        -0.1800 
     77 C          -2.7090  -27.5157  -45.4009 C.2       13 UNK         0.5000 
     78 O          -2.8041  -28.7417  -45.4594 O.2       13 UNK        -0.5000 
     79 N          -2.5822  -26.7269  -46.4764 N.am      14 UNK        -0.5000 
     80 CA         -2.6588  -27.1573  -47.8725 C.3       14 UNK         0.1400 
     81 CB         -1.5247  -26.4739  -48.6588 C.3       14 UNK        -0.1800 
     82 C          -4.0413  -26.8314  -48.4774 C.2       14 UNK         0.5000 
     83 O          -4.1652  -26.7506  -49.7001 O.2       14 UNK        -0.5000 
     84 N          -5.0481  -26.5974  -47.6182 N.am      15 UNK        -0.5000 
     85 CA         -6.4330  -26.2234  -47.9348 C.3       15 UNK         0.1400 
     86 CB         -7.1570  -27.3906  -48.6374 C.3       15 UNK        -0.1800 
     87 C          -6.5587  -24.8964  -48.7160 C.2       15 UNK         0.5000 
     88 O          -7.5647  -24.6810  -49.3935 O.2       15 UNK        -0.5000 
     89 N          -5.5257  -24.0438  -48.6243 N.am      16 UNK        -0.5000 
     90 CA         -5.3219  -22.8038  -49.3759 C.3       16 UNK         0.1400 
     91 CB         -6.3543  -21.7336  -48.9679 C.3       16 UNK        -0.1800 
     92 C          -5.2364  -23.0148  -50.9041 C.2       16 UNK         0.5000 
     93 O          -5.5083  -22.0836  -51.6613 O.2       16 UNK        -0.5000 
     94 N          -4.8378  -24.2181  -51.3479 N.am      17 UNK        -0.5000 
     95 CA         -4.7004  -24.5641  -52.7659 C.3       17 UNK         0.1400 
     96 CB         -4.4655  -26.0748  -52.9070 C.3       17 UNK        -0.1800 
     97 C          -3.5798  -23.7716  -53.4624 C.2       17 UNK         0.5000 
     98 O          -3.7479  -23.3452  -54.6048 O.2       17 UNK        -0.5000 
     99 N          -2.4739  -23.5443  -52.7408 N.am      18 UNK        -0.5000 
    100 CA        -1.3398  -22.7431  -53.2011 C.3       18 UNK         0.1400 
    101 CB        -0.1197  -23.0350  -52.3164 C.3       18 UNK        -0.1800 
    102 C         -1.6469  -21.2337  -53.2706 C.2       18 UNK         0.5000 
    103 O         -1.0011  -20.5310  -54.0458 O.2       18 UNK        -0.5000 
    104 N         -2.6589  -20.7661  -52.5231 N.am      19 UNK        -0.5000 
    105 CA        -3.1446  -19.3818  -52.5561 C.3       19 UNK         0.1400 
    106 CB        -4.0210  -19.1077  -51.3235 C.3       19 UNK        -0.1800 
    107 C         -3.8987  -19.0340  -53.8563 C.2       19 UNK         0.5000 
    108 O         -4.0914  -17.8541  -54.1488 O.2       19 UNK        -0.5000 
    109 N         -4.2978  -20.0575  -54.6226 N.am      20 UNK        -0.5000 
    110 CA        -4.8834  -19.9318  -55.9559 C.3       20 UNK         0.1400 
    111 CB        -5.9957  -20.9844  -56.0977 C.3       20 UNK        -0.1800 
    112 C         -3.8292  -20.0895  -57.0731 C.2       20 UNK         0.5000 
    113 O         -4.1978  -20.0442  -58.2477 O.2       20 UNK        -0.5000 
    114 N         -2.5531  -20.2894  -56.7125 N.am      21 UNK        -0.5000 
    115 CA        -1.4574  -20.5986  -57.6315 C.3       21 UNK         0.1400 
    116 CB        -1.2728  -22.1271  -57.6947 C.3       21 UNK        -0.1800 
    117 C         -0.1691  -19.8524  -57.2362 C.2       21 UNK         0.5000 
    118 O          0.9253  -20.4069  -57.3579 O.2       21 UNK        -0.5000 
    119 N         -0.3198  -18.6102  -56.7596 N.am      22 UNK        -0.5000 
    120 CA         0.7805  -17.7188  -56.3561 C.3       22 UNK         0.1400 
    121 C          1.7195  -17.3375  -57.5357 C.2       22 UNK         0.5000 
    122 N          3.0166  -17.2119  -57.2895 N.am      22 UNK        -0.7600 
    123 O          1.2773  -17.1099  -58.6600 O.2       22 UNK        -0.5000 
    124 C124        0.2578  -16.4353  -55.6619 C.3       23 UNK        -0.0398 
    125 S125       -0.7789  -16.7960  -54.2075 S.3       23 UNK        -0.2404 
    126 C126        0.4228  -16.6328  -52.8538 C.3       23 UNK        -0.0205 
    127 H127       -4.9528  -10.1991  -45.8621 H         1 UNK         0.0600 
    128 H128       -4.7579  -10.2858  -47.6156 H         1 UNK         0.0600 
    129 H129       -3.9910   -8.9804  -46.7057 H         1 UNK         0.0600 
    130 H130       -3.3013  -11.8590  -48.2334 H         1 UNK         0.3000 
    131 H131       -0.6566  -12.0289  -47.3460 H         1 UNK         0.0600 
    132 H132       -1.1356  -12.7852  -49.5435 H         1 UNK         0.0800 
    133 H133       -0.5605  -14.1760  -48.6879 H         1 UNK         0.0800 
    134 H134       -3.5222  -16.6039  -48.7485 H         1 UNK         0.0800 
    135 H135       -2.2292  -16.0708  -47.7106 H         1 UNK         0.0800 
    136 H136       -1.2648  -15.3782  -51.1520 H         1 UNK         0.1150 
    137 H137        0.8056  -19.0722  -51.7185 H         1 UNK         0.1150 
    138 H138       -1.7049  -18.5248  -48.2855 H         1 UNK         0.1150 
    139 H139        0.6565  -20.3418  -48.6693 H         1 UNK         0.0800 
    140 H140        0.4731  -20.8997  -50.3013 H         1 UNK         0.0800 
    141 H141       -2.6685  -20.4947  -47.1293 H         1 UNK         0.0800 
    142 H142       -0.9552  -20.2340  -47.0479 H         1 UNK         0.0800 
    143 H143       -0.7723  -22.8599  -46.7533 H         1 UNK         0.0600 
    144 H144       -0.6943  -20.7543  -44.9849 H         1 UNK         0.3000 
    145 H145       -0.5266  -22.0698  -41.9017 H         1 UNK         0.0600 
    146 H146        1.9438  -21.9367  -41.6813 H         1 UNK         0.0600 
    147 H147        1.4818  -23.4383  -42.4638 H         1 UNK         0.0600 
    148 H148        2.1299  -22.1151  -43.4260 H         1 UNK         0.0600 
    149 H149        1.0527  -19.9482  -42.9905 H         1 UNK         0.3000 
    150 H150       -1.5663  -17.4956  -43.0399 H         1 UNK         0.0600 
    151 H151        0.9508  -17.9290  -41.3422 H         1 UNK         0.0600 
    152 H152       -0.6584  -17.5481  -40.7428 H         1 UNK         0.0600 
    153 H153        0.2209  -16.3670  -41.7018 H         1 UNK         0.0600 
    154 H154        1.2014  -17.4170  -43.8025 H         1 UNK         0.3000 
    155 H155        0.7274  -18.4025  -47.1958 H         1 UNK         0.0600 
    156 H156        1.4904  -15.6580  -46.0923 H         1 UNK         0.0600 
    157 H157        0.2291  -15.9787  -47.2776 H         1 UNK         0.0600 
    158 H158        1.9057  -16.2971  -47.6828 H         1 UNK         0.0600 
    159 H159        2.9376  -17.5515  -45.4955 H         1 UNK         0.3000 
    160 H160        3.9508  -20.8315  -44.6344 H         1 UNK         0.0600 
    161 H161        5.2170  -18.9341  -46.6849 H         1 UNK         0.0600 
    162 H162        4.8427  -20.6315  -46.9591 H         1 UNK         0.0600 
    163 H163        6.0588  -20.1875  -45.7723 H         1 UNK         0.0600 
    164 H164        5.1676  -18.2584  -44.3017 H         1 UNK         0.3000 
    165 H165        3.4482  -17.3436  -41.3112 H         1 UNK         0.0600 
    166 H166        5.7628  -17.2583  -40.4411 H         1 UNK         0.0600 
    167 H167        6.3379  -18.2576  -41.7762 H         1 UNK         0.0600 
    168 H168        5.2385  -18.9285  -40.5773 H         1 UNK         0.0600 
    169 H169        5.5572  -16.0423  -42.6450 H         1 UNK         0.3000 
    170 H170        5.1170  -14.0151  -43.5897 H         1 UNK         0.0600 
    171 H171        5.6520  -15.5968  -45.4637 H         1 UNK         0.0600 
    172 H172        4.1061  -15.2359  -46.2224 H         1 UNK         0.0600 
    173 H173        5.3350  -13.9809  -46.0707 H         1 UNK         0.0600 
    174 H174        3.0294  -13.2060  -45.3497 H         1 UNK         0.3000 
    175 H175        2.0282  -10.6623  -43.3300 H         1 UNK         0.0600 
    176 H176        1.4968  -12.1140  -45.9769 H         1 UNK         0.0600 
    177 H177        1.0427  -10.4590  -45.5996 H         1 UNK         0.0600 
    178 H178        2.7379  -10.9032  -45.6716 H         1 UNK         0.0600 
    179 H179       -0.1112  -12.5769  -44.0884 H         1 UNK         0.3000 
    180 H180       -1.6969  -12.5984  -41.1615 H         1 UNK         0.0600 
    181 H181       -2.6154  -10.1619  -42.7773 H         1 UNK         0.0600 
    182 H182       -2.3075  -10.2066  -41.0460 H         1 UNK         0.0600 
    183 H183       -3.6438  -11.1256  -41.7179 H         1 UNK         0.0600 
    184 H184       -2.3913  -12.3219  -44.0535 H         1 UNK         0.3000 
    185 H185       -2.1735  -15.7297  -44.6210 H         1 UNK         0.0600 
    186 H186       -4.5634  -15.8667  -45.2586 H         1 UNK         0.0600 
    187 H187       -4.3997  -15.9577  -43.5130 H         1 UNK         0.0600 
    188 H188       -4.9385  -14.4587  -44.2620 H         1 UNK         0.0600 
    189 H189       -3.5025  -13.7359  -46.1517 H         1 UNK         0.3000 
    190 H190       -3.2248  -22.0621  -44.4156 H         1 UNK         0.3000 
    191 H191       -5.4744  -23.4348  -45.4459 H         1 UNK         0.0600 
    192 H192       -6.2029  -23.4369  -43.0490 H         1 UNK         0.0600 
    193 H193       -5.5827  -21.8657  -43.5299 H         1 UNK         0.0600 
    194 H194       -4.5880  -22.9444  -42.5511 H         1 UNK         0.0600 
    195 H195       -2.4988  -24.7122  -43.9981 H         1 UNK         0.3000 
    196 H196       -3.4991  -27.3586  -43.4147 H         1 UNK         0.0600 
    197 H197       -0.6355  -26.3885  -43.9167 H         1 UNK         0.0600 
    198 H198       -1.4476  -26.3858  -42.3511 H         1 UNK         0.0600 
    199 H199       -1.1035  -27.9061  -43.1629 H         1 UNK         0.0600 
    200 H200       -2.5533  -25.7230  -46.3395 H         1 UNK         0.3000 
    201 H201       -2.5209  -28.2376  -47.9452 H         1 UNK         0.0600 
    202 H202       -1.6466  -25.3903  -48.6852 H         1 UNK         0.0600 
    203 H203       -1.4935  -26.8255  -49.6908 H         1 UNK         0.0600 
    204 H204       -0.5528  -26.6903  -48.2154 H         1 UNK         0.0600 
    205 H205       -4.8436  -26.6522  -46.6284 H         1 UNK         0.3000 
    206 H206       -6.9290  -26.0556  -46.9779 H         1 UNK         0.0600 
    207 H207       -7.0593  -28.3149  -48.0681 H         1 UNK         0.0600 
    208 H208       -8.2234  -27.1870  -48.7400 H         1 UNK         0.0600 
    209 H209       -6.7610  -27.5688  -49.6378 H         1 UNK         0.0600 
    210 H210       -4.7410  -24.3059  -48.0352 H         1 UNK         0.3000 
    211 H211       -4.3412  -22.4340  -49.0770 H         1 UNK         0.0600 
    212 H212       -6.1062  -20.7647  -49.4024 H         1 UNK         0.0600 
    213 H213       -6.3795  -21.6042  -47.8859 H         1 UNK         0.0600 
    214 H214       -7.3598  -21.9924  -49.3003 H         1 UNK         0.0600 
    215 H215       -4.6427  -24.9562  -50.6795 H         1 UNK         0.3000 
    216 H216       -5.6402  -24.3182  -53.2648 H         1 UNK         0.0600 
    217 H217       -3.5403  -26.3862  -52.4204 H         1 UNK         0.0600 
    218 H218       -4.3988  -26.3637  -53.9567 H         1 UNK         0.0600 
    219 H219       -5.2832  -26.6436  -52.4636 H         1 UNK         0.0600 
    220 H220       -2.4196  -23.9231  -51.8067 H         1 UNK         0.3000 
    221 H221       -1.0920  -23.0586  -54.2168 H         1 UNK         0.0600 
    222 H222        0.2234  -24.0606  -52.4533 H         1 UNK         0.0600 
    223 H223       -0.3459  -22.9035  -51.2599 H         1 UNK         0.0600 
    224 H224        0.7155  -22.3783  -52.5637 H         1 UNK         0.0600 
    225 H225       -3.1758  -21.4095  -51.9420 H         1 UNK         0.3000 
    226 H226       -2.2780  -18.7249  -52.5002 H         1 UNK         0.0600 
    227 H227       -4.9969  -19.5844  -51.4040 H         1 UNK         0.0600 
    228 H228       -3.5475  -19.4589  -50.4073 H         1 UNK         0.0600 
    229 H229       -4.1937  -18.0370  -51.2089 H         1 UNK         0.0600 
    230 H230       -4.1140  -21.0006  -54.3053 H         1 UNK         0.3000 
    231 H231       -5.3369  -18.9459  -56.0747 H         1 UNK         0.0600 
    232 H232       -5.5991  -21.9990  -56.0517 H         1 UNK         0.0600 
    233 H233       -6.5167  -20.8795  -57.0502 H         1 UNK         0.0600 
    234 H234       -6.7407  -20.8799  -55.3087 H         1 UNK         0.0600 
    235 H235       -2.3025  -20.2733  -55.7300 H         1 UNK         0.3000 
    236 H236       -1.7035  -20.2460  -58.6350 H         1 UNK         0.0600 
    237 H237       -2.1926  -22.6232  -58.0049 H         1 UNK         0.0600 
    238 H238       -0.4997  -22.4030  -58.4127 H         1 UNK         0.0600 
    239 H239       -0.9853  -22.5334  -56.7244 H         1 UNK         0.0600 
    240 H240       -1.2511  -18.2304  -56.6814 H         1 UNK         0.3000 
    241 H241        1.3755  -18.2722  -55.6265 H         1 UNK         0.0600 
    242 H242        3.6342  -16.9496  -58.0425 H         1 UNK         0.3800 
    243 H243        3.4029  -17.3873  -56.3746 H         1 UNK         0.3800 
    244 H244       -0.3373  -15.8432  -56.3594 H         1 UNK         0.0800 
    245 H245        1.0871  -15.7954  -55.3547 H         1 UNK         0.0800 
    246 H246        0.7051  -15.5852  -52.7388 H         1 UNK         0.0800 
    247 H247        1.3341  -17.1767  -53.1072 H         1 UNK         0.0800 
@<TRIPOS>BOND
     1    1    2 1    
     2    1  127 1    
     3    1  128 1    
     4    1  129 1    
     5    2    3 2    
     6    2    4 am   BACKBONE|DICT|INTERRES
     7    4    5 1    
     8    4  130 1    
     9    5    6 1    
    10    5   65 1    
    11    5  131 1    
    12    6    7 1    
    13    6  132 1    
    14    6  133 1    
    15    7    8 1    
    16    8    9 1    
    17    8  134 1    
    18    8  135 1    
    19    9   10 ar   
    20    9   14 ar   
    21   10   11 ar   
    22   10  136 1    
    23   11   12 ar   
    24   11  126 1    
    25   12   13 ar   
    26   12  137 1    
    27   13   14 ar   
    28   13   15 1    
    29   14  138 1    
    30   15   16 1    
    31   15  139 1    
    32   15  140 1    
    33   16   17 1    
    34   17   18 1    
    35   17  141 1    
    36   17  142 1    
    37   18   19 1    
    38   18   67 1    
    39   18  143 1    
    40   19   20 am   BACKBONE|DICT|INTERRES
    41   19  144 1    
    42   20   21 2    
    43   20   22 1    
    44   22   23 1    
    45   22   24 1    
    46   22  145 1    
    47   23  146 1    
    48   23  147 1    
    49   23  148 1    
    50   24   25 am   BACKBONE|DICT|INTERRES
    51   24  149 1    
    52   25   26 2    
    53   25   27 1    
    54   27   28 1    
    55   27   29 1    
    56   27  150 1    
    57   28  151 1    
    58   28  152 1    
    59   28  153 1    
    60   29   30 am   BACKBONE|DICT|INTERRES
    61   29  154 1    
    62   30   31 2    
    63   30   32 1    
    64   32   33 1    
    65   32   34 1    
    66   32  155 1    
    67   33  156 1    
    68   33  157 1    
    69   33  158 1    
    70   34   35 am   BACKBONE|DICT|INTERRES
    71   34  159 1    
    72   35   36 2    
    73   35   37 1    
    74   37   38 1    
    75   37   39 1    
    76   37  160 1    
    77   38  161 1    
    78   38  162 1    
    79   38  163 1    
    80   39   40 am   BACKBONE|DICT|INTERRES
    81   39  164 1    
    82   40   41 2    
    83   40   42 1    
    84   42   43 1    
    85   42   44 1    
    86   42  165 1    
    87   43  166 1    
    88   43  167 1    
    89   43  168 1    
    90   44   45 am   BACKBONE|DICT|INTERRES
    91   44  169 1    
    92   45   46 2    
    93   45   47 1    
    94   47   48 1    
    95   47   49 1    
    96   47  170 1    
    97   48  171 1    
    98   48  172 1    
    99   48  173 1    
   100   49   50 am   BACKBONE|DICT|INTERRES
   101   49  174 1    
   102   50   51 2    
   103   50   52 1    
   104   52   53 1    
   105   52   54 1    
   106   52  175 1    
   107   53  176 1    
   108   53  177 1    
   109   53  178 1    
   110   54   55 am   BACKBONE|DICT|INTERRES
   111   54  179 1    
   112   55   56 2    
   113   55   57 1    
   114   57   58 1    
   115   57   59 1    
   116   57  180 1    
   117   58  181 1    
   118   58  182 1    
   119   58  183 1    
   120   59   60 am   BACKBONE|DICT|INTERRES
   121   59  184 1    
   122   60   61 2    
   123   60   62 1    
   124   62   63 1    
   125   62   64 1    
   126   62  185 1    
   127   63  186 1    
   128   63  187 1    
   129   63  188 1    
   130   64   65 am   BACKBONE|DICT|INTERRES
   131   64  189 1    
   132   65   66 2    
   133   67   68 2    
   134   67   69 am   BACKBONE|DICT|INTERRES
   135   69   70 1    
   136   69  190 1    
   137   70   71 1    
   138   70   72 1    
   139   70  191 1    
   140   71  192 1    
   141   71  193 1    
   142   71  194 1    
   143   72   73 2    
   144   72   74 am   BACKBONE|DICT|INTERRES
   145   74   75 1    
   146   74  195 1    
   147   75   76 1    
   148   75   77 1    
   149   75  196 1    
   150   76  197 1    
   151   76  198 1    
   152   76  199 1    
   153   77   78 2    
   154   77   79 am   BACKBONE|DICT|INTERRES
   155   79   80 1    
   156   79  200 1    
   157   80   81 1    
   158   80   82 1    
   159   80  201 1    
   160   81  202 1    
   161   81  203 1    
   162   81  204 1    
   163   82   83 2    
   164   82   84 am   BACKBONE|DICT|INTERRES
   165   84   85 1    
   166   84  205 1    
   167   85   86 1    
   168   85   87 1    
   169   85  206 1    
   170   86  207 1    
   171   86  208 1    
   172   86  209 1    
   173   87   88 2    
   174   87   89 am   BACKBONE|DICT|INTERRES
   175   89   90 1    
   176   89  210 1    
   177   90   91 1    
   178   90   92 1    
   179   90  211 1    
   180   91  212 1    
   181   91  213 1    
   182   91  214 1    
   183   92   93 2    
   184   92   94 am   BACKBONE|DICT|INTERRES
   185   94   95 1    
   186   94  215 1    
   187   95   96 1    
   188   95   97 1    
   189   95  216 1    
   190   96  217 1    
   191   96  218 1    
   192   96  219 1    
   193   97   98 2    
   194   97   99 am   BACKBONE|DICT|INTERRES
   195   99  100 1    
   196   99  220 1    
   197  100  101 1    
   198  100  102 1    
   199  100  221 1    
   200  101  222 1    
   201  101  223 1    
   202  101  224 1    
   203  102  103 2    
   204  102  104 am   BACKBONE|DICT|INTERRES
   205  104  105 1    
   206  104  225 1    
   207  105  106 1    
   208  105  107 1    
   209  105  226 1    
   210  106  227 1    
   211  106  228 1    
   212  106  229 1    
   213  107  108 2    
   214  107  109 am   BACKBONE|DICT|INTERRES
   215  109  110 1    
   216  109  230 1    
   217  110  111 1    
   218  110  112 1    
   219  110  231 1    
   220  111  232 1    
   221  111  233 1    
   222  111  234 1    
   223  112  113 2    
   224  112  114 am   BACKBONE|DICT|INTERRES
   225  114  115 1    
   226  114  235 1    
   227  115  116 1    
   228  115  117 1    
   229  115  236 1    
   230  116  237 1    
   231  116  238 1    
   232  116  239 1    
   233  117  118 2    
   234  117  119 am   BACKBONE|DICT|INTERRES
   235  119  120 1    
   236  119  240 1    
   237  120  121 1    
   238  120  124 1    
   239  120  241 1    
   240  121  122 am   BACKBONE|DICT|INTERRES
   241  121  123 2    
   242  122  242 1    
   243  122  243 1    
   244  124  125 1    
   245  124  244 1    
   246  124  245 1    
   247  125  126 1    
   248  126  246 1    
   249  126  247 1    
@<TRIPOS>SUBSTRUCTURE
     1 UNK         1 GROUP             0       ****    0 ROOT    
