@<TRIPOS>MOLECULE
3R540
247   249    1
SMALL
USER_CHARGES


@<TRIPOS>ATOM
      1 CA          4.2568   -9.6764  -47.6503 C.3       0 UNK        -0.1800 
      2 C           3.7640  -10.4062  -48.8983 C.2       0 UNK         0.5000 
      3 O           3.7659   -9.8221  -49.9797 O.2       0 UNK        -0.5000 
      4 N           3.3269  -11.6700  -48.8063 N.am      1 UNK        -0.5000 
      5 CA          3.2523  -12.4949  -47.5903 C.3       1 UNK         0.1400 
      6 C6          3.4871  -13.9960  -47.8860 C.3       23 UNK        -0.0398 
      7 S7          5.1523  -14.3074  -48.5637 S.3       23 UNK        -0.2404 
      8 C8          4.7666  -15.1321  -50.1397 C.3       23 UNK        -0.0205 
      9 C9          4.1757  -16.5192  -49.9292 C.ar      23 UNK        -0.0193 
     10 C10         2.8478  -16.7835  -50.2699 C.ar      23 UNK        -0.1150 
     11 C11         2.3137  -18.0628  -50.0982 C.ar      23 UNK        -0.0193 
     12 C12         3.1172  -19.0836  -49.5802 C.ar      23 UNK        -0.1150 
     13 C13         4.4508  -18.8327  -49.2213 C.ar      23 UNK        -0.0193 
     14 C14         4.9656  -17.5459  -49.4067 C.ar      23 UNK        -0.1150 
     15 C15         5.3926  -19.8897  -48.6353 C.3       23 UNK        -0.0205 
     16 S16         4.7494  -21.5929  -48.5090 S.3       23 UNK        -0.2404 
     17 C17         3.6282  -21.4387  -47.0761 C.3       23 UNK        -0.0398 
     18 CA          2.8032  -22.7086  -46.7486 C.3       11 UNK         0.1400 
     19 N           1.9189  -22.4636  -45.6032 N.am      11 UNK        -0.5000 
     20 C           1.1861  -23.3881  -44.9673 C.2       10 UNK         0.5000 
     21 O           1.2203  -24.5886  -45.2343 O.2       10 UNK        -0.5000 
     22 CA          0.2074  -22.8813  -43.8922 C.3       10 UNK         0.1400 
     23 CB          0.9354  -22.6309  -42.5636 C.3       10 UNK        -0.1800 
     24 N          -0.5036  -21.6703  -44.3075 N.am      10 UNK        -0.5000 
     25 C          -1.3869  -21.6188  -45.3157 C.2       9 UNK         0.5000 
     26 O          -1.7408  -22.6011  -45.9673 O.2       9 UNK        -0.5000 
     27 CA         -1.9464  -20.2348  -45.6885 C.3       9 UNK         0.1400 
     28 CB         -3.1227  -19.8623  -44.7750 C.3       9 UNK        -0.1800 
     29 N          -0.9339  -19.1785  -45.6568 N.am      9 UNK        -0.5000 
     30 C           0.1489  -19.1347  -46.4470 C.2       8 UNK         0.5000 
     31 O           0.3954  -19.9752  -47.3105 O.2       8 UNK        -0.5000 
     32 CA          1.1602  -18.0027  -46.1820 C.3       8 UNK         0.1400 
     33 CB          0.6676  -16.6670  -46.7589 C.3       8 UNK        -0.1800 
     34 N           1.4486  -17.8520  -44.7549 N.am      8 UNK        -0.5000 
     35 C           2.0134  -18.8012  -43.9940 C.2       7 UNK         0.5000 
     36 O           2.4180  -19.8783  -44.4309 O.2       7 UNK        -0.5000 
     37 CA          2.0852  -18.5261  -42.4838 C.3       7 UNK         0.1400 
     38 CB          3.3302  -17.6979  -42.1319 C.3       7 UNK        -0.1800 
     39 N           0.8801  -17.8487  -42.0052 N.am      7 UNK        -0.5000 
     40 C          -0.3115  -18.4466  -41.8631 C.2       6 UNK         0.5000 
     41 O          -0.5044  -19.6414  -42.0869 O.2       6 UNK        -0.5000 
     42 CA         -1.4936  -17.5548  -41.4369 C.3       6 UNK         0.1400 
     43 CB         -1.5263  -17.3934  -39.9099 C.3       6 UNK        -0.1800 
     44 N          -1.4641  -16.2323  -42.0638 N.am      6 UNK        -0.5000 
     45 C          -1.6152  -16.0168  -43.3778 C.2       5 UNK         0.5000 
     46 O          -1.8450  -16.9100  -44.1908 O.2       5 UNK        -0.5000 
     47 CA         -1.4355  -14.5719  -43.8804 C.3       5 UNK         0.1400 
     48 CB         -2.7840  -13.8373  -43.8786 C.3       5 UNK        -0.1800 
     49 N          -0.4481  -13.7804  -43.1390 N.am      5 UNK        -0.5000 
     50 C           0.8323  -14.1236  -42.9327 C.2       4 UNK         0.5000 
     51 O           1.3109  -15.2061  -43.2758 O.2       4 UNK        -0.5000 
     52 CA          1.7138  -13.0586  -42.2608 C.3       4 UNK         0.1400 
     53 CB          3.1906  -13.4800  -42.1534 C.3       4 UNK        -0.1800 
     54 N           1.6188  -11.8335  -43.0458 N.am      4 UNK        -0.5000 
     55 C           1.3737  -10.6057  -42.5717 C.2       3 UNK         0.5000 
     56 O           1.2528  -10.3495  -41.3733 O.2       3 UNK        -0.5000 
     57 CA          1.2281   -9.4663  -43.6054 C.3       3 UNK         0.1400 
     58 CB          2.5159   -8.6301  -43.6649 C.3       3 UNK        -0.1800 
     59 N           0.9135   -9.9362  -44.9570 N.am      3 UNK        -0.5000 
     60 C          -0.2326  -10.5259  -45.3251 C.2       2 UNK         0.5000 
     61 O          -1.2061  -10.6399  -44.5808 O.2       2 UNK        -0.5000 
     62 CA         -0.2878  -11.1261  -46.7469 C.3       2 UNK         0.1400 
     63 CB         -1.0441  -10.1851  -47.6963 C.3       2 UNK        -0.1800 
     64 N           1.0225  -11.4411  -47.3342 N.am      2 UNK        -0.5000 
     65 C           1.9267  -12.2925  -46.8241 C.2       1 UNK         0.5000 
     66 O           1.7573  -12.8881  -45.7625 O.2       1 UNK        -0.5000 
     67 C           2.0161  -23.2579  -47.9631 C.2       11 UNK         0.5000 
     68 O           2.4526  -24.2215  -48.5940 O.2       11 UNK        -0.5000 
     69 N           0.8355  -22.6805  -48.2187 N.am      12 UNK        -0.5000 
     70 CA         -0.1383  -23.1300  -49.2149 C.3       12 UNK         0.1400 
     71 CB         -1.1365  -21.9872  -49.4529 C.3       12 UNK        -0.1800 
     72 C          -0.8847  -24.4304  -48.8403 C.2       12 UNK         0.5000 
     73 O          -1.6949  -24.9023  -49.6393 O.2       12 UNK        -0.5000 
     74 N          -0.6478  -24.9630  -47.6305 N.am      13 UNK        -0.5000 
     75 CA         -1.2621  -26.1559  -47.0331 C.3       13 UNK         0.1400 
     76 CB         -0.8104  -27.4236  -47.7866 C.3       13 UNK        -0.1800 
     77 C          -2.7983  -26.0639  -46.8995 C.2       13 UNK         0.5000 
     78 O          -3.4720  -27.0946  -46.8528 O.2       13 UNK        -0.5000 
     79 N          -3.3212  -24.8281  -46.8644 N.am      14 UNK        -0.5000 
     80 CA         -4.7352  -24.4467  -46.8775 C.3       14 UNK         0.1400 
     81 CB         -5.3868  -24.7642  -45.5171 C.3       14 UNK        -0.1800 
     82 C          -5.5317  -25.0227  -48.0719 C.2       14 UNK         0.5000 
     83 O          -6.7398  -25.2307  -47.9467 O.2       14 UNK        -0.5000 
     84 N          -4.8558  -25.2558  -49.2098 N.am      15 UNK        -0.5000 
     85 CA         -5.3962  -25.8645  -50.4297 C.3       15 UNK         0.1400 
     86 CB         -4.2502  -26.0546  -51.4364 C.3       15 UNK        -0.1800 
     87 C          -6.5389  -25.0294  -51.0355 C.2       15 UNK         0.5000 
     88 O          -6.2715  -24.0206  -51.6904 O.2       15 UNK        -0.5000 
     89 N          -7.7859  -25.4241  -50.7405 N.am      16 UNK        -0.5000 
     90 CA         -9.0294  -24.6934  -51.0195 C.3       16 UNK         0.1400 
     91 CB         -9.3002  -24.6271  -52.5372 C.3       16 UNK        -0.1800 
     92 C          -9.0443  -23.3041  -50.3443 C.2       16 UNK         0.5000 
     93 O          -9.4065  -22.3122  -50.9756 O.2       16 UNK        -0.5000 
     94 N          -8.5810  -23.2526  -49.0850 N.am      17 UNK        -0.5000 
     95 CA         -8.3122  -22.0408  -48.2972 C.3       17 UNK         0.1400 
     96 CB         -9.6096  -21.2593  -48.0017 C.3       17 UNK        -0.1800 
     97 C          -7.2033  -21.1718  -48.9323 C.2       17 UNK         0.5000 
     98 O          -7.2767  -19.9435  -48.9034 O.2       17 UNK        -0.5000 
     99 N          -6.2090  -21.8588  -49.5138 N.am      18 UNK        -0.5000 
    100 CA        -5.0488  -21.3722  -50.2674 C.3       18 UNK         0.1400 
    101 CB        -4.2405  -20.3241  -49.4763 C.3       18 UNK        -0.1800 
    102 C         -5.3679  -20.8985  -51.6991 C.2       18 UNK         0.5000 
    103 O         -4.4345  -20.5635  -52.4296 O.2       18 UNK        -0.5000 
    104 N         -6.6438  -20.9131  -52.1123 N.am      19 UNK        -0.5000 
    105 CA        -7.0942  -20.4693  -53.4343 C.3       19 UNK         0.1400 
    106 CB        -8.6253  -20.3567  -53.4458 C.3       19 UNK        -0.1800 
    107 C         -6.6168  -21.3628  -54.5954 C.2       19 UNK         0.5000 
    108 O         -6.4874  -20.8653  -55.7143 O.2       19 UNK        -0.5000 
    109 N         -6.3515  -22.6487  -54.3228 N.am      20 UNK        -0.5000 
    110 CA        -5.8188  -23.5971  -55.3057 C.3       20 UNK         0.1400 
    111 CB        -6.2937  -25.0152  -54.9520 C.3       20 UNK        -0.1800 
    112 C         -4.2810  -23.5455  -55.4087 C.2       20 UNK         0.5000 
    113 O         -3.7222  -24.1360  -56.3344 O.2       20 UNK        -0.5000 
    114 N         -3.6285  -22.8582  -54.4636 N.am      21 UNK        -0.5000 
    115 CA        -2.1856  -22.6673  -54.3943 C.3       21 UNK         0.1400 
    116 CB        -1.7120  -23.0408  -52.9776 C.3       21 UNK        -0.1800 
    117 C         -1.8643  -21.2165  -54.7913 C.2       21 UNK         0.5000 
    118 O         -1.7780  -20.9242  -55.9850 O.2       21 UNK        -0.5000 
    119 N         -1.6935  -20.3384  -53.7959 N.am      22 UNK        -0.5000 
    120 CA        -1.4182  -18.9042  -53.9730 C.3       22 UNK         0.1400 
    121 C         -2.6285  -18.0820  -54.5007 C.2       22 UNK         0.5000 
    122 N         -3.8641  -18.5023  -54.2654 N.am      22 UNK        -0.7600 
    123 O         -2.4401  -17.0483  -55.1363 O.2       22 UNK        -0.5000 
    124 C124       -0.8654  -18.2673  -52.6743 C.3       23 UNK        -0.0398 
    125 S125        0.7361  -18.9782  -52.1690 S.3       23 UNK        -0.2404 
    126 C126        0.8661  -18.3336  -50.4739 C.3       23 UNK        -0.0205 
    127 H127        3.5231   -9.7194  -46.8467 H         1 UNK         0.0600 
    128 H128        4.4417   -8.6249  -47.8711 H         1 UNK         0.0600 
    129 H129        5.1917  -10.1120  -47.2977 H         1 UNK         0.0600 
    130 H130        3.0185  -12.1284  -49.6517 H         1 UNK         0.3000 
    131 H131        4.0417  -12.1883  -46.9021 H         1 UNK         0.0600 
    132 H132        3.4054  -14.5884  -46.9727 H         1 UNK         0.0800 
    133 H133        2.7225  -14.3772  -48.5643 H         1 UNK         0.0800 
    134 H134        4.0953  -14.5022  -50.7254 H         1 UNK         0.0800 
    135 H135        5.6844  -15.2232  -50.7222 H         1 UNK         0.0800 
    136 H136        2.2298  -15.9960  -50.6778 H         1 UNK         0.1150 
    137 H137        2.6867  -20.0673  -49.4670 H         1 UNK         0.1150 
    138 H138        5.9928  -17.3374  -49.1407 H         1 UNK         0.1150 
    139 H139        6.2898  -19.9259  -49.2549 H         1 UNK         0.0800 
    140 H140        5.7187  -19.5641  -47.6464 H         1 UNK         0.0800 
    141 H141        2.9615  -20.5933  -47.2386 H         1 UNK         0.0800 
    142 H142        4.2331  -21.1705  -46.2087 H         1 UNK         0.0800 
    143 H143        3.5058  -23.4885  -46.4475 H         1 UNK         0.0600 
    144 H144        1.8673  -21.5014  -45.2788 H         1 UNK         0.3000 
    145 H145       -0.5363  -23.6636  -43.7267 H         1 UNK         0.0600 
    146 H146        0.2353  -22.3431  -41.7792 H         1 UNK         0.0600 
    147 H147        1.4504  -23.5308  -42.2252 H         1 UNK         0.0600 
    148 H148        1.6806  -21.8407  -42.6534 H         1 UNK         0.0600 
    149 H149       -0.3131  -20.8262  -43.7787 H         1 UNK         0.3000 
    150 H150       -2.3239  -20.2949  -46.7102 H         1 UNK         0.0600 
    151 H151       -3.8929  -20.6345  -44.7942 H         1 UNK         0.0600 
    152 H152       -3.5891  -18.9305  -45.0950 H         1 UNK         0.0600 
    153 H153       -2.8047  -19.7389  -43.7394 H         1 UNK         0.0600 
    154 H154       -1.0971  -18.4171  -45.0024 H         1 UNK         0.3000 
    155 H155        2.0953  -18.2615  -46.6833 H         1 UNK         0.0600 
    156 H156        0.5789  -16.7231  -47.8440 H         1 UNK         0.0600 
    157 H157        1.3590  -15.8566  -46.5290 H         1 UNK         0.0600 
    158 H158       -0.3102  -16.3913  -46.3661 H         1 UNK         0.0600 
    159 H159        1.1821  -16.9776  -44.3145 H         1 UNK         0.3000 
    160 H160        2.1661  -19.4863  -41.9701 H         1 UNK         0.0600 
    161 H161        3.3444  -16.7400  -42.6517 H         1 UNK         0.0600 
    162 H162        4.2398  -18.2313  -42.4108 H         1 UNK         0.0600 
    163 H163        3.3843  -17.5004  -41.0613 H         1 UNK         0.0600 
    164 H164        0.9397  -16.8437  -41.9064 H         1 UNK         0.3000 
    165 H165       -2.4139  -18.0548  -41.7462 H         1 UNK         0.0600 
    166 H166       -2.4044  -16.8312  -39.5916 H         1 UNK         0.0600 
    167 H167       -1.5675  -18.3653  -39.4162 H         1 UNK         0.0600 
    168 H168       -0.6417  -16.8740  -39.5395 H         1 UNK         0.0600 
    169 H169       -1.2755  -15.4424  -41.4646 H         1 UNK         0.3000 
    170 H170       -1.0843  -14.6295  -44.9122 H         1 UNK         0.0600 
    171 H171       -3.5398  -14.4044  -44.4238 H         1 UNK         0.0600 
    172 H172       -3.1564  -13.6825  -42.8653 H         1 UNK         0.0600 
    173 H173       -2.7052  -12.8633  -44.3604 H         1 UNK         0.0600 
    174 H174       -0.7444  -12.8587  -42.8509 H         1 UNK         0.3000 
    175 H175        1.3204  -12.9055  -41.2540 H         1 UNK         0.0600 
    176 H176        3.6231  -13.6778  -43.1352 H         1 UNK         0.0600 
    177 H177        3.7872  -12.7034  -41.6749 H         1 UNK         0.0600 
    178 H178        3.2966  -14.3862  -41.5561 H         1 UNK         0.0600 
    179 H179        1.6615  -11.9773  -44.0512 H         1 UNK         0.3000 
    180 H180        0.4128   -8.8214  -43.2710 H         1 UNK         0.0600 
    181 H181        3.3652   -9.2230  -44.0071 H         1 UNK         0.0600 
    182 H182        2.7691   -8.2314  -42.6816 H         1 UNK         0.0600 
    183 H183        2.4049   -7.7805  -44.3391 H         1 UNK         0.0600 
    184 H184        1.6526   -9.8725  -45.6393 H         1 UNK         0.3000 
    185 H185       -0.8466  -12.0616  -46.6752 H         1 UNK         0.0600 
    186 H186       -2.0359   -9.9502  -47.3074 H         1 UNK         0.0600 
    187 H187       -0.5134   -9.2422  -47.8341 H         1 UNK         0.0600 
    188 H188       -1.1819  -10.6404  -48.6772 H         1 UNK         0.0600 
    189 H189        1.2382  -10.9947  -48.2141 H         1 UNK         0.3000 
    190 H190        0.5775  -21.8528  -47.6875 H         1 UNK         0.3000 
    191 H191        0.3866  -23.3263  -50.1519 H         1 UNK         0.0600 
    192 H192       -1.5551  -21.6213  -48.5171 H         1 UNK         0.0600 
    193 H193       -0.6605  -21.1485  -49.9590 H         1 UNK         0.0600 
    194 H194       -1.9745  -22.3071  -50.0674 H         1 UNK         0.0600 
    195 H195        0.0135  -24.4858  -47.0309 H         1 UNK         0.3000 
    196 H196       -0.8759  -26.2195  -46.0152 H         1 UNK         0.0600 
    197 H197        0.2760  -27.4687  -47.8642 H         1 UNK         0.0600 
    198 H198       -1.2210  -27.4614  -48.7962 H         1 UNK         0.0600 
    199 H199       -1.1344  -28.3262  -47.2675 H         1 UNK         0.0600 
    200 H200       -2.6649  -24.0518  -46.8200 H         1 UNK         0.3000 
    201 H201       -4.7510  -23.3632  -47.0041 H         1 UNK         0.0600 
    202 H202       -6.3986  -24.3609  -45.4605 H         1 UNK         0.0600 
    203 H203       -4.8186  -24.3245  -44.6973 H         1 UNK         0.0600 
    204 H204       -5.4514  -25.8386  -45.3425 H         1 UNK         0.0600 
    205 H205       -3.8606  -25.0624  -49.2232 H         1 UNK         0.3000 
    206 H206       -5.7829  -26.8518  -50.1697 H         1 UNK         0.0600 
    207 H207       -3.4610  -26.6817  -51.0210 H         1 UNK         0.0600 
    208 H208       -3.8017  -25.1021  -51.7218 H         1 UNK         0.0600 
    209 H209       -4.6033  -26.5398  -52.3465 H         1 UNK         0.0600 
    210 H210       -7.8917  -26.2398  -50.1528 H         1 UNK         0.3000 
    211 H211       -9.8372  -25.2668  -50.5630 H         1 UNK         0.0600 
    212 H212       -9.2539  -25.6167  -52.9914 H         1 UNK         0.0600 
    213 H213      -10.2932  -24.2232  -52.7373 H         1 UNK         0.0600 
    214 H214       -8.5826  -23.9876  -53.0503 H         1 UNK         0.0600 
    215 H215       -8.2546  -24.1186  -48.6653 H         1 UNK         0.3000 
    216 H216       -7.9143  -22.3845  -47.3412 H         1 UNK         0.0600 
    217 H217       -9.4241  -20.4529  -47.2914 H         1 UNK         0.0600 
    218 H218      -10.0298  -20.8082  -48.9010 H         1 UNK         0.0600 
    219 H219      -10.3692  -21.9073  -47.5646 H         1 UNK         0.0600 
    220 H220       -6.3259  -22.8609  -49.5526 H         1 UNK         0.3000 
    221 H221       -4.4073  -22.2455  -50.3922 H         1 UNK         0.0600 
    222 H222       -3.3034  -20.0895  -49.9822 H         1 UNK         0.0600 
    223 H223       -4.7837  -19.3858  -49.3662 H         1 UNK         0.0600 
    224 H224       -3.9915  -20.6893  -48.4804 H         1 UNK         0.0600 
    225 H225       -7.3590  -21.2485  -51.4808 H         1 UNK         0.3000 
    226 H226       -6.6850  -19.4708  -53.6000 H         1 UNK         0.0600 
    227 H227       -8.9873  -19.7496  -52.6157 H         1 UNK         0.0600 
    228 H228       -8.9728  -19.8892  -54.3678 H         1 UNK         0.0600 
    229 H229       -9.1000  -21.3360  -53.3809 H         1 UNK         0.0600 
    230 H230       -6.4540  -22.9901  -53.3705 H         1 UNK         0.3000 
    231 H231       -6.2171  -23.3544  -56.2931 H         1 UNK         0.0600 
    232 H232       -5.9596  -25.7364  -55.6988 H         1 UNK         0.0600 
    233 H233       -7.3813  -25.0707  -54.9148 H         1 UNK         0.0600 
    234 H234       -5.9049  -25.3417  -53.9890 H         1 UNK         0.0600 
    235 H235       -4.1749  -22.3464  -53.7834 H         1 UNK         0.3000 
    236 H236       -1.6683  -23.3180  -55.1023 H         1 UNK         0.0600 
    237 H237       -2.3044  -22.5332  -52.2189 H         1 UNK         0.0600 
    238 H238       -1.8095  -24.1126  -52.8048 H         1 UNK         0.0600 
    239 H239       -0.6631  -22.7838  -52.8226 H         1 UNK         0.0600 
    240 H240       -1.8222  -20.6514  -52.8459 H         1 UNK         0.3000 
    241 H241       -0.6415  -18.8167  -54.7355 H         1 UNK         0.0600 
    242 H242       -4.6428  -17.9712  -54.6184 H         1 UNK         0.3800 
    243 H243       -4.0249  -19.3225  -53.6843 H         1 UNK         0.3800 
    244 H244       -1.5840  -18.3846  -51.8609 H         1 UNK         0.0800 
    245 H245       -0.7178  -17.1934  -52.8048 H         1 UNK         0.0800 
    246 H246        0.4231  -19.0480  -49.7807 H         1 UNK         0.0800 
    247 H247        0.2853  -17.4151  -50.3771 H         1 UNK         0.0800 
@<TRIPOS>BOND
     1    1    2 1    
     2    1  127 1    
     3    1  128 1    
     4    1  129 1    
     5    2    3 2    
     6    2    4 am   BACKBONE|DICT|INTERRES
     7    4    5 1    
     8    4  130 1    
     9    5    6 1    
    10    5   65 1    
    11    5  131 1    
    12    6    7 1    
    13    6  132 1    
    14    6  133 1    
    15    7    8 1    
    16    8    9 1    
    17    8  134 1    
    18    8  135 1    
    19    9   10 ar   
    20    9   14 ar   
    21   10   11 ar   
    22   10  136 1    
    23   11   12 ar   
    24   11  126 1    
    25   12   13 ar   
    26   12  137 1    
    27   13   14 ar   
    28   13   15 1    
    29   14  138 1    
    30   15   16 1    
    31   15  139 1    
    32   15  140 1    
    33   16   17 1    
    34   17   18 1    
    35   17  141 1    
    36   17  142 1    
    37   18   19 1    
    38   18   67 1    
    39   18  143 1    
    40   19   20 am   BACKBONE|DICT|INTERRES
    41   19  144 1    
    42   20   21 2    
    43   20   22 1    
    44   22   23 1    
    45   22   24 1    
    46   22  145 1    
    47   23  146 1    
    48   23  147 1    
    49   23  148 1    
    50   24   25 am   BACKBONE|DICT|INTERRES
    51   24  149 1    
    52   25   26 2    
    53   25   27 1    
    54   27   28 1    
    55   27   29 1    
    56   27  150 1    
    57   28  151 1    
    58   28  152 1    
    59   28  153 1    
    60   29   30 am   BACKBONE|DICT|INTERRES
    61   29  154 1    
    62   30   31 2    
    63   30   32 1    
    64   32   33 1    
    65   32   34 1    
    66   32  155 1    
    67   33  156 1    
    68   33  157 1    
    69   33  158 1    
    70   34   35 am   BACKBONE|DICT|INTERRES
    71   34  159 1    
    72   35   36 2    
    73   35   37 1    
    74   37   38 1    
    75   37   39 1    
    76   37  160 1    
    77   38  161 1    
    78   38  162 1    
    79   38  163 1    
    80   39   40 am   BACKBONE|DICT|INTERRES
    81   39  164 1    
    82   40   41 2    
    83   40   42 1    
    84   42   43 1    
    85   42   44 1    
    86   42  165 1    
    87   43  166 1    
    88   43  167 1    
    89   43  168 1    
    90   44   45 am   BACKBONE|DICT|INTERRES
    91   44  169 1    
    92   45   46 2    
    93   45   47 1    
    94   47   48 1    
    95   47   49 1    
    96   47  170 1    
    97   48  171 1    
    98   48  172 1    
    99   48  173 1    
   100   49   50 am   BACKBONE|DICT|INTERRES
   101   49  174 1    
   102   50   51 2    
   103   50   52 1    
   104   52   53 1    
   105   52   54 1    
   106   52  175 1    
   107   53  176 1    
   108   53  177 1    
   109   53  178 1    
   110   54   55 am   BACKBONE|DICT|INTERRES
   111   54  179 1    
   112   55   56 2    
   113   55   57 1    
   114   57   58 1    
   115   57   59 1    
   116   57  180 1    
   117   58  181 1    
   118   58  182 1    
   119   58  183 1    
   120   59   60 am   BACKBONE|DICT|INTERRES
   121   59  184 1    
   122   60   61 2    
   123   60   62 1    
   124   62   63 1    
   125   62   64 1    
   126   62  185 1    
   127   63  186 1    
   128   63  187 1    
   129   63  188 1    
   130   64   65 am   BACKBONE|DICT|INTERRES
   131   64  189 1    
   132   65   66 2    
   133   67   68 2    
   134   67   69 am   BACKBONE|DICT|INTERRES
   135   69   70 1    
   136   69  190 1    
   137   70   71 1    
   138   70   72 1    
   139   70  191 1    
   140   71  192 1    
   141   71  193 1    
   142   71  194 1    
   143   72   73 2    
   144   72   74 am   BACKBONE|DICT|INTERRES
   145   74   75 1    
   146   74  195 1    
   147   75   76 1    
   148   75   77 1    
   149   75  196 1    
   150   76  197 1    
   151   76  198 1    
   152   76  199 1    
   153   77   78 2    
   154   77   79 am   BACKBONE|DICT|INTERRES
   155   79   80 1    
   156   79  200 1    
   157   80   81 1    
   158   80   82 1    
   159   80  201 1    
   160   81  202 1    
   161   81  203 1    
   162   81  204 1    
   163   82   83 2    
   164   82   84 am   BACKBONE|DICT|INTERRES
   165   84   85 1    
   166   84  205 1    
   167   85   86 1    
   168   85   87 1    
   169   85  206 1    
   170   86  207 1    
   171   86  208 1    
   172   86  209 1    
   173   87   88 2    
   174   87   89 am   BACKBONE|DICT|INTERRES
   175   89   90 1    
   176   89  210 1    
   177   90   91 1    
   178   90   92 1    
   179   90  211 1    
   180   91  212 1    
   181   91  213 1    
   182   91  214 1    
   183   92   93 2    
   184   92   94 am   BACKBONE|DICT|INTERRES
   185   94   95 1    
   186   94  215 1    
   187   95   96 1    
   188   95   97 1    
   189   95  216 1    
   190   96  217 1    
   191   96  218 1    
   192   96  219 1    
   193   97   98 2    
   194   97   99 am   BACKBONE|DICT|INTERRES
   195   99  100 1    
   196   99  220 1    
   197  100  101 1    
   198  100  102 1    
   199  100  221 1    
   200  101  222 1    
   201  101  223 1    
   202  101  224 1    
   203  102  103 2    
   204  102  104 am   BACKBONE|DICT|INTERRES
   205  104  105 1    
   206  104  225 1    
   207  105  106 1    
   208  105  107 1    
   209  105  226 1    
   210  106  227 1    
   211  106  228 1    
   212  106  229 1    
   213  107  108 2    
   214  107  109 am   BACKBONE|DICT|INTERRES
   215  109  110 1    
   216  109  230 1    
   217  110  111 1    
   218  110  112 1    
   219  110  231 1    
   220  111  232 1    
   221  111  233 1    
   222  111  234 1    
   223  112  113 2    
   224  112  114 am   BACKBONE|DICT|INTERRES
   225  114  115 1    
   226  114  235 1    
   227  115  116 1    
   228  115  117 1    
   229  115  236 1    
   230  116  237 1    
   231  116  238 1    
   232  116  239 1    
   233  117  118 2    
   234  117  119 am   BACKBONE|DICT|INTERRES
   235  119  120 1    
   236  119  240 1    
   237  120  121 1    
   238  120  124 1    
   239  120  241 1    
   240  121  122 am   BACKBONE|DICT|INTERRES
   241  121  123 2    
   242  122  242 1    
   243  122  243 1    
   244  124  125 1    
   245  124  244 1    
   246  124  245 1    
   247  125  126 1    
   248  126  246 1    
   249  126  247 1    
@<TRIPOS>SUBSTRUCTURE
     1 UNK         1 GROUP             0       ****    0 ROOT    
