@<TRIPOS>MOLECULE
3R540
247   249    1
SMALL
USER_CHARGES


@<TRIPOS>ATOM
      1 CA          2.2428  -16.4976  -52.2675 C.3       0 UNK        -0.1800 
      2 C           1.2222  -16.6817  -51.1543 C.2       0 UNK         0.5000 
      3 O           1.2608  -17.6873  -50.4507 O.2       0 UNK        -0.5000 
      4 N           0.3120  -15.7126  -50.9932 N.am      1 UNK        -0.5000 
      5 CA         -0.7836  -15.7145  -50.0101 C.3       1 UNK         0.1400 
      6 C6         -1.8208  -14.6095  -50.3222 C.3       23 UNK        -0.0398 
      7 S7         -2.6334  -14.8552  -51.9438 S.3       23 UNK        -0.2404 
      8 C8         -4.3958  -14.6565  -51.5194 C.3       23 UNK        -0.0205 
      9 C9         -5.1064  -15.9766  -51.2395 C.ar      23 UNK        -0.0193 
     10 C10        -6.1964  -16.3671  -52.0256 C.ar      23 UNK        -0.1150 
     11 C11        -6.9205  -17.5282  -51.7241 C.ar      23 UNK        -0.0193 
     12 C12        -6.5390  -18.2981  -50.6213 C.ar      23 UNK        -0.1150 
     13 C13        -5.4580  -17.9193  -49.8209 C.ar      23 UNK        -0.0193 
     14 C14        -4.7350  -16.7677  -50.1488 C.ar      23 UNK        -0.1150 
     15 C15        -5.0953  -18.7460  -48.5931 C.3       23 UNK        -0.0205 
     16 S16        -4.9196  -17.7235  -47.0919 S.3       23 UNK        -0.2404 
     17 C17        -4.8129  -18.9901  -45.7862 C.3       23 UNK        -0.0398 
     18 CA         -3.3655  -19.4928  -45.5339 C.3       11 UNK         0.1400 
     19 N          -3.1261  -19.9289  -44.1573 N.am      11 UNK        -0.5000 
     20 C          -3.8016  -20.8271  -43.4292 C.2       10 UNK         0.5000 
     21 O          -4.7681  -21.4625  -43.8518 O.2       10 UNK        -0.5000 
     22 CA         -3.3058  -21.0542  -41.9867 C.3       10 UNK         0.1400 
     23 CB         -2.2954  -22.2093  -41.9420 C.3       10 UNK        -0.1800 
     24 N          -2.6907  -19.8577  -41.4061 N.am      10 UNK        -0.5000 
     25 C          -3.3653  -18.7494  -41.0668 C.2       9 UNK         0.5000 
     26 O          -4.5930  -18.6579  -41.1014 O.2       9 UNK        -0.5000 
     27 CA         -2.5254  -17.5250  -40.6585 C.3       9 UNK         0.1400 
     28 CB         -2.1016  -17.6175  -39.1849 C.3       9 UNK        -0.1800 
     29 N          -1.3441  -17.3465  -41.5064 N.am      9 UNK        -0.5000 
     30 C          -1.3855  -17.0356  -42.8113 C.2       8 UNK         0.5000 
     31 O          -2.4260  -16.8101  -43.4275 O.2       8 UNK        -0.5000 
     32 CA         -0.0441  -17.0015  -43.5650 C.3       8 UNK         0.1400 
     33 CB          0.6495  -15.6447  -43.3703 C.3       8 UNK        -0.1800 
     34 N           0.8608  -18.0678  -43.1416 N.am      8 UNK        -0.5000 
     35 C           0.6672  -19.3768  -43.3482 C.2       7 UNK         0.5000 
     36 O          -0.2728  -19.8406  -43.9918 O.2       7 UNK        -0.5000 
     37 CA          1.6780  -20.3305  -42.6905 C.3       7 UNK         0.1400 
     38 CB          2.9286  -20.5015  -43.5651 C.3       7 UNK        -0.1800 
     39 N           2.0627  -19.8866  -41.3520 N.am      7 UNK        -0.5000 
     40 C           1.2441  -19.9030  -40.2907 C.2       6 UNK         0.5000 
     41 O           0.0804  -20.3038  -40.3320 O.2       6 UNK        -0.5000 
     42 CA          1.8139  -19.3462  -38.9734 C.3       6 UNK         0.1400 
     43 CB          2.5987  -20.4320  -38.2226 C.3       6 UNK        -0.1800 
     44 N           2.6759  -18.1812  -39.1826 N.am      6 UNK        -0.5000 
     45 C           2.2352  -16.9857  -39.5979 C.2       5 UNK         0.5000 
     46 O           1.0521  -16.7355  -39.8273 O.2       5 UNK        -0.5000 
     47 CA          3.3057  -15.9079  -39.8547 C.3       5 UNK         0.1400 
     48 CB          3.7301  -15.2391  -38.5386 C.3       5 UNK        -0.1800 
     49 N           4.4942  -16.4092  -40.5560 N.am      5 UNK        -0.5000 
     50 C           4.4697  -16.9879  -41.7633 C.2       4 UNK         0.5000 
     51 O           3.4284  -17.2339  -42.3761 O.2       4 UNK        -0.5000 
     52 CA          5.8224  -17.3929  -42.3811 C.3       4 UNK         0.1400 
     53 CB          6.2717  -18.7555  -41.8314 C.3       4 UNK        -0.1800 
     54 N           5.7142  -17.4855  -43.8389 N.am      4 UNK        -0.5000 
     55 C           5.5182  -16.4349  -44.6460 C.2       3 UNK         0.5000 
     56 O           5.6360  -15.2638  -44.2799 O.2       3 UNK        -0.5000 
     57 CA          5.0404  -16.7215  -46.0775 C.3       3 UNK         0.1400 
     58 CB          5.1053  -18.2050  -46.5014 C.3       3 UNK        -0.1800 
     59 N           3.6626  -16.2508  -46.1510 N.am      3 UNK        -0.5000 
     60 C           3.0809  -15.7101  -47.2237 C.2       2 UNK         0.5000 
     61 O           3.6362  -15.5657  -48.3164 O.2       2 UNK        -0.5000 
     62 CA          1.6329  -15.2389  -47.0331 C.3       2 UNK         0.1400 
     63 CB          1.5791  -13.8188  -46.4461 C.3       2 UNK        -0.1800 
     64 N           0.9619  -15.2563  -48.3250 N.am      2 UNK        -0.5000 
     65 C          -0.3053  -15.6249  -48.5411 C.2       1 UNK         0.5000 
     66 O          -1.0938  -15.8969  -47.6354 O.2       1 UNK        -0.5000 
     67 C          -2.9336  -20.5714  -46.5422 C.2       11 UNK         0.5000 
     68 O          -2.0146  -20.3451  -47.3298 O.2       11 UNK        -0.5000 
     69 N          -3.5851  -21.7394  -46.4762 N.am      12 UNK        -0.5000 
     70 CA         -3.3899  -22.8785  -47.3729 C.3       12 UNK         0.1400 
     71 CB         -4.5436  -23.8715  -47.1710 C.3       12 UNK        -0.1800 
     72 C          -2.0273  -23.5822  -47.2182 C.2       12 UNK         0.5000 
     73 O          -1.6690  -24.3874  -48.0777 O.2       12 UNK        -0.5000 
     74 N          -1.3006  -23.2810  -46.1344 N.am      13 UNK        -0.5000 
     75 CA          0.0683  -23.7365  -45.9060 C.3       13 UNK         0.1400 
     76 CB          0.3571  -23.7230  -44.4000 C.3       13 UNK        -0.1800 
     77 C           1.0936  -22.8746  -46.6656 C.2       13 UNK         0.5000 
     78 O           2.0759  -23.4187  -47.1699 O.2       13 UNK        -0.5000 
     79 N           0.8503  -21.5567  -46.7430 N.am      14 UNK        -0.5000 
     80 CA          1.6562  -20.6200  -47.5275 C.3       14 UNK         0.1400 
     81 CB          1.4314  -19.1807  -47.0304 C.3       14 UNK        -0.1800 
     82 C           1.3258  -20.7495  -49.0220 C.2       14 UNK         0.5000 
     83 O           2.2084  -21.0474  -49.8283 O.2       14 UNK        -0.5000 
     84 N           0.0415  -20.5720  -49.3471 N.am      15 UNK        -0.5000 
     85 CA         -0.5138  -20.7257  -50.6828 C.3       15 UNK         0.1400 
     86 CB         -1.6590  -19.7159  -50.8512 C.3       15 UNK        -0.1800 
     87 C          -1.0065  -22.1682  -50.8214 C.2       15 UNK         0.5000 
     88 O          -2.1950  -22.4081  -50.6227 O.2       15 UNK        -0.5000 
     89 N          -0.0749  -23.0894  -51.1019 N.am      16 UNK        -0.5000 
     90 CA         -0.2113  -24.5523  -51.1088 C.3       16 UNK         0.1400 
     91 CB          0.9460  -25.1442  -51.9305 C.3       16 UNK        -0.1800 
     92 C          -1.5719  -25.0953  -51.6003 C.2       16 UNK         0.5000 
     93 O          -1.8168  -25.1303  -52.8063 O.2       16 UNK        -0.5000 
     94 N          -2.4221  -25.4902  -50.6419 N.am      17 UNK        -0.5000 
     95 CA         -3.7819  -26.0186  -50.8123 C.3       17 UNK         0.1400 
     96 CB         -3.7772  -27.3298  -51.6271 C.3       17 UNK        -0.1800 
     97 C          -4.7899  -24.9723  -51.3406 C.2       17 UNK         0.5000 
     98 O          -5.6871  -25.3144  -52.1125 O.2       17 UNK        -0.5000 
     99 N          -4.6273  -23.7213  -50.8872 N.am      18 UNK        -0.5000 
    100 CA        -5.3955  -22.5201  -51.2339 C.3       18 UNK         0.1400 
    101 CB        -6.8768  -22.6524  -50.8233 C.3       18 UNK        -0.1800 
    102 C         -5.1882  -22.1097  -52.7051 C.2       18 UNK         0.5000 
    103 O         -6.1539  -21.8535  -53.4259 O.2       18 UNK        -0.5000 
    104 N         -3.9142  -22.0782  -53.1138 N.am      19 UNK        -0.5000 
    105 CA        -3.4555  -21.6681  -54.4386 C.3       19 UNK         0.1400 
    106 CB        -2.3107  -22.6025  -54.8767 C.3       19 UNK        -0.1800 
    107 C         -3.0785  -20.1716  -54.4348 C.2       19 UNK         0.5000 
    108 O         -3.8950  -19.3437  -54.0275 O.2       19 UNK        -0.5000 
    109 N         -1.8622  -19.8415  -54.8989 N.am      20 UNK        -0.5000 
    110 CA        -1.3224  -18.4897  -55.0874 C.3       20 UNK         0.1400 
    111 CB        -1.0535  -17.8077  -53.7293 C.3       20 UNK        -0.1800 
    112 C         -2.2152  -17.6749  -56.0437 C.2       20 UNK         0.5000 
    113 O         -2.3752  -18.0832  -57.1959 O.2       20 UNK        -0.5000 
    114 N         -2.8246  -16.5854  -55.5559 N.am      21 UNK        -0.5000 
    115 CA        -3.7912  -15.7662  -56.2948 C.3       21 UNK         0.1400 
    116 CB        -4.1620  -14.5425  -55.4459 C.3       21 UNK        -0.1800 
    117 C         -5.0648  -16.5336  -56.7086 C.2       21 UNK         0.5000 
    118 O         -5.6951  -16.1652  -57.7007 O.2       21 UNK        -0.5000 
    119 N         -5.3992  -17.5917  -55.9610 N.am      22 UNK        -0.5000 
    120 CA        -6.4826  -18.5378  -56.2576 C.3       22 UNK         0.1400 
    121 C         -6.0104  -19.7848  -57.0649 C.2       22 UNK         0.5000 
    122 N         -4.7633  -19.8699  -57.5172 N.am      22 UNK        -0.7600 
    123 O         -6.8011  -20.6892  -57.3181 O.2       22 UNK        -0.5000 
    124 C124       -7.2452  -18.9300  -54.9667 C.3       23 UNK        -0.0398 
    125 S125       -8.1610  -17.5133  -54.2738 S.3       23 UNK        -0.2404 
    126 C126       -8.1793  -17.9217  -52.4968 C.3       23 UNK        -0.0205 
    127 H127        3.2483  -16.4536  -51.8488 H         1 UNK         0.0600 
    128 H128        2.0671  -15.5817  -52.8322 H         1 UNK         0.0600 
    129 H129        2.1965  -17.3380  -52.9601 H         1 UNK         0.0600 
    130 H130        0.3303  -14.9145  -51.6117 H         1 UNK         0.3000 
    131 H131       -1.2993  -16.6702  -50.0906 H         1 UNK         0.0600 
    132 H132       -2.5813  -14.5706  -49.5410 H         1 UNK         0.0800 
    133 H133       -1.3444  -13.6277  -50.3212 H         1 UNK         0.0800 
    134 H134       -4.8839  -14.1336  -52.3420 H         1 UNK         0.0800 
    135 H135       -4.5066  -13.9981  -50.6572 H         1 UNK         0.0800 
    136 H136       -6.5048  -15.7432  -52.8520 H         1 UNK         0.1150 
    137 H137       -7.1088  -19.1804  -50.3659 H         1 UNK         0.1150 
    138 H138       -3.9048  -16.4693  -49.5262 H         1 UNK         0.1150 
    139 H139       -5.8502  -19.5130  -48.4137 H         1 UNK         0.0800 
    140 H140       -4.1612  -19.2675  -48.7890 H         1 UNK         0.0800 
    141 H141       -5.5081  -19.8056  -45.9925 H         1 UNK         0.0800 
    142 H142       -5.1891  -18.5139  -44.8796 H         1 UNK         0.0800 
    143 H143       -2.6874  -18.6480  -45.6704 H         1 UNK         0.0600 
    144 H144       -2.2792  -19.5515  -43.7481 H         1 UNK         0.3000 
    145 H145       -4.1697  -21.3299  -41.3785 H         1 UNK         0.0600 
    146 H146       -2.0178  -22.4485  -40.9153 H         1 UNK         0.0600 
    147 H147       -2.7087  -23.1147  -42.3884 H         1 UNK         0.0600 
    148 H148       -1.3826  -21.9598  -42.4816 H         1 UNK         0.0600 
    149 H149       -1.6843  -19.8772  -41.2759 H         1 UNK         0.3000 
    150 H150       -3.1543  -16.6396  -40.7723 H         1 UNK         0.0600 
    151 H151       -2.9704  -17.7321  -38.5355 H         1 UNK         0.0600 
    152 H152       -1.5770  -16.7159  -38.8688 H         1 UNK         0.0600 
    153 H153       -1.4439  -18.4678  -39.0056 H         1 UNK         0.0600 
    154 H154       -0.4412  -17.4439  -41.0545 H         1 UNK         0.3000 
    155 H155       -0.2508  -17.1371  -44.6290 H         1 UNK         0.0600 
    156 H156        0.8352  -15.4357  -42.3162 H         1 UNK         0.0600 
    157 H157        0.0366  -14.8333  -43.7645 H         1 UNK         0.0600 
    158 H158        1.6092  -15.6117  -43.8838 H         1 UNK         0.0600 
    159 H159        1.7059  -17.7772  -42.6541 H         1 UNK         0.3000 
    160 H160        1.2017  -21.3051  -42.5844 H         1 UNK         0.0600 
    161 H161        3.6381  -21.1917  -43.1087 H         1 UNK         0.0600 
    162 H162        3.4396  -19.5536  -43.7301 H         1 UNK         0.0600 
    163 H163        2.6673  -20.9081  -44.5422 H         1 UNK         0.0600 
    164 H164        2.9824  -19.4856  -41.2494 H         1 UNK         0.3000 
    165 H165        0.9716  -19.0411  -38.3488 H         1 UNK         0.0600 
    166 H166        2.9433  -20.0701  -37.2537 H         1 UNK         0.0600 
    167 H167        1.9740  -21.3070  -38.0379 H         1 UNK         0.0600 
    168 H168        3.4709  -20.7642  -38.7871 H         1 UNK         0.0600 
    169 H169        3.6649  -18.3046  -39.0236 H         1 UNK         0.3000 
    170 H170        2.8503  -15.1450  -40.4897 H         1 UNK         0.0600 
    171 H171        2.8646  -14.8452  -38.0040 H         1 UNK         0.0600 
    172 H172        4.2358  -15.9403  -37.8736 H         1 UNK         0.0600 
    173 H173        4.4051  -14.4027  -38.7210 H         1 UNK         0.0600 
    174 H174        5.3836  -16.2513  -40.1045 H         1 UNK         0.3000 
    175 H175        6.5695  -16.6381  -42.1274 H         1 UNK         0.0600 
    176 H176        5.5495  -19.5413  -42.0563 H         1 UNK         0.0600 
    177 H177        7.2316  -19.0528  -42.2541 H         1 UNK         0.0600 
    178 H178        6.3932  -18.7218  -40.7480 H         1 UNK         0.0600 
    179 H179        5.5756  -18.4099  -44.2177 H         1 UNK         0.3000 
    180 H180        5.6730  -16.1351  -46.7472 H         1 UNK         0.0600 
    181 H181        4.4475  -18.8338  -45.9010 H         1 UNK         0.0600 
    182 H182        6.1198  -18.5962  -46.4165 H         1 UNK         0.0600 
    183 H183        4.8042  -18.3226  -47.5427 H         1 UNK         0.0600 
    184 H184        3.1605  -16.2789  -45.2743 H         1 UNK         0.3000 
    185 H185        1.1391  -15.9353  -46.3525 H         1 UNK         0.0600 
    186 H186        2.1065  -13.7641  -45.4931 H         1 UNK         0.0600 
    187 H187        2.0378  -13.0909  -47.1164 H         1 UNK         0.0600 
    188 H188        0.5500  -13.5072  -46.2666 H         1 UNK         0.0600 
    189 H189        1.5749  -15.1231  -49.1190 H         1 UNK         0.3000 
    190 H190       -4.2709  -21.8523  -45.7356 H         1 UNK         0.3000 
    191 H191       -3.4449  -22.5008  -48.3937 H         1 UNK         0.0600 
    192 H192       -4.5701  -24.2530  -46.1495 H         1 UNK         0.0600 
    193 H193       -4.4489  -24.7276  -47.8395 H         1 UNK         0.0600 
    194 H194       -5.5060  -23.4043  -47.3812 H         1 UNK         0.0600 
    195 H195       -1.6844  -22.6242  -45.4723 H         1 UNK         0.3000 
    196 H196        0.1673  -24.7655  -46.2590 H         1 UNK         0.0600 
    197 H197        1.3805  -24.0373  -44.1911 H         1 UNK         0.0600 
    198 H198       -0.3095  -24.3981  -43.8631 H         1 UNK         0.0600 
    199 H199        0.2261  -22.7252  -43.9882 H         1 UNK         0.0600 
    200 H200        0.0055  -21.1856  -46.3306 H         1 UNK         0.3000 
    201 H201        2.7140  -20.8576  -47.3946 H         1 UNK         0.0600 
    202 H202        1.9304  -18.4649  -47.6845 H         1 UNK         0.0600 
    203 H203        1.8377  -19.0388  -46.0306 H         1 UNK         0.0600 
    204 H204        0.3740  -18.9146  -47.0037 H         1 UNK         0.0600 
    205 H205       -0.6336  -20.3989  -48.6060 H         1 UNK         0.3000 
    206 H206        0.2394  -20.5265  -51.4481 H         1 UNK         0.0600 
    207 H207       -2.1912  -19.8712  -51.7868 H         1 UNK         0.0600 
    208 H208       -2.3873  -19.7927  -50.0462 H         1 UNK         0.0600 
    209 H209       -1.2766  -18.7000  -50.8619 H         1 UNK         0.0600 
    210 H210        0.8717  -22.7527  -51.2111 H         1 UNK         0.3000 
    211 H211       -0.0694  -24.8829  -50.0791 H         1 UNK         0.0600 
    212 H212        0.9320  -24.7846  -52.9603 H         1 UNK         0.0600 
    213 H213        0.8877  -26.2331  -51.9619 H         1 UNK         0.0600 
    214 H214        1.9123  -24.8846  -51.4976 H         1 UNK         0.0600 
    215 H215       -2.1362  -25.3261  -49.6789 H         1 UNK         0.3000 
    216 H216       -4.1244  -26.2715  -49.8083 H         1 UNK         0.0600 
    217 H217       -4.7583  -27.8056  -51.6053 H         1 UNK         0.0600 
    218 H218       -3.0626  -28.0451  -51.2201 H         1 UNK         0.0600 
    219 H219       -3.5233  -27.1586  -52.6734 H         1 UNK         0.0600 
    220 H220       -3.7661  -23.5274  -50.3857 H         1 UNK         0.3000 
    221 H221       -4.9712  -21.7106  -50.6374 H         1 UNK         0.0600 
    222 H222       -7.3975  -23.4100  -51.4092 H         1 UNK         0.0600 
    223 H223       -6.9711  -22.9171  -49.7702 H         1 UNK         0.0600 
    224 H224       -7.4049  -21.7097  -50.9703 H         1 UNK         0.0600 
    225 H225       -3.1992  -22.2946  -52.4292 H         1 UNK         0.3000 
    226 H226       -4.2667  -21.7831  -55.1601 H         1 UNK         0.0600 
    227 H227       -1.9598  -22.3646  -55.8815 H         1 UNK         0.0600 
    228 H228       -1.4594  -22.5546  -54.1959 H         1 UNK         0.0600 
    229 H229       -2.6509  -23.6378  -54.9032 H         1 UNK         0.0600 
    230 H230       -1.2758  -20.5884  -55.2429 H         1 UNK         0.3000 
    231 H231       -0.3624  -18.6037  -55.5927 H         1 UNK         0.0600 
    232 H232       -0.6091  -16.8207  -53.8633 H         1 UNK         0.0600 
    233 H233       -0.3498  -18.3952  -53.1409 H         1 UNK         0.0600 
    234 H234       -1.9605  -17.6864  -53.1362 H         1 UNK         0.0600 
    235 H235       -2.6707  -16.3382  -54.5885 H         1 UNK         0.3000 
    236 H236       -3.3032  -15.4179  -57.2073 H         1 UNK         0.0600 
    237 H237       -3.2782  -13.9746  -55.1550 H         1 UNK         0.0600 
    238 H238       -4.8168  -13.8677  -55.9986 H         1 UNK         0.0600 
    239 H239       -4.6884  -14.8391  -54.5394 H         1 UNK         0.0600 
    240 H240       -4.8075  -17.8505  -55.1787 H         1 UNK         0.3000 
    241 H241       -7.2032  -18.0485  -56.9152 H         1 UNK         0.0600 
    242 H242       -4.0915  -19.1257  -57.3673 H         1 UNK         0.3800 
    243 H243       -4.4976  -20.6731  -58.0641 H         1 UNK         0.3800 
    244 H244       -7.9690  -19.7237  -55.1581 H         1 UNK         0.0800 
    245 H245       -6.5527  -19.3191  -54.2194 H         1 UNK         0.0800 
    246 H246       -9.0243  -17.4056  -52.0398 H         1 UNK         0.0800 
    247 H247       -8.3779  -18.9892  -52.3861 H         1 UNK         0.0800 
@<TRIPOS>BOND
     1    1    2 1    
     2    1  127 1    
     3    1  128 1    
     4    1  129 1    
     5    2    3 2    
     6    2    4 am   BACKBONE|DICT|INTERRES
     7    4    5 1    
     8    4  130 1    
     9    5    6 1    
    10    5   65 1    
    11    5  131 1    
    12    6    7 1    
    13    6  132 1    
    14    6  133 1    
    15    7    8 1    
    16    8    9 1    
    17    8  134 1    
    18    8  135 1    
    19    9   10 ar   
    20    9   14 ar   
    21   10   11 ar   
    22   10  136 1    
    23   11   12 ar   
    24   11  126 1    
    25   12   13 ar   
    26   12  137 1    
    27   13   14 ar   
    28   13   15 1    
    29   14  138 1    
    30   15   16 1    
    31   15  139 1    
    32   15  140 1    
    33   16   17 1    
    34   17   18 1    
    35   17  141 1    
    36   17  142 1    
    37   18   19 1    
    38   18   67 1    
    39   18  143 1    
    40   19   20 am   BACKBONE|DICT|INTERRES
    41   19  144 1    
    42   20   21 2    
    43   20   22 1    
    44   22   23 1    
    45   22   24 1    
    46   22  145 1    
    47   23  146 1    
    48   23  147 1    
    49   23  148 1    
    50   24   25 am   BACKBONE|DICT|INTERRES
    51   24  149 1    
    52   25   26 2    
    53   25   27 1    
    54   27   28 1    
    55   27   29 1    
    56   27  150 1    
    57   28  151 1    
    58   28  152 1    
    59   28  153 1    
    60   29   30 am   BACKBONE|DICT|INTERRES
    61   29  154 1    
    62   30   31 2    
    63   30   32 1    
    64   32   33 1    
    65   32   34 1    
    66   32  155 1    
    67   33  156 1    
    68   33  157 1    
    69   33  158 1    
    70   34   35 am   BACKBONE|DICT|INTERRES
    71   34  159 1    
    72   35   36 2    
    73   35   37 1    
    74   37   38 1    
    75   37   39 1    
    76   37  160 1    
    77   38  161 1    
    78   38  162 1    
    79   38  163 1    
    80   39   40 am   BACKBONE|DICT|INTERRES
    81   39  164 1    
    82   40   41 2    
    83   40   42 1    
    84   42   43 1    
    85   42   44 1    
    86   42  165 1    
    87   43  166 1    
    88   43  167 1    
    89   43  168 1    
    90   44   45 am   BACKBONE|DICT|INTERRES
    91   44  169 1    
    92   45   46 2    
    93   45   47 1    
    94   47   48 1    
    95   47   49 1    
    96   47  170 1    
    97   48  171 1    
    98   48  172 1    
    99   48  173 1    
   100   49   50 am   BACKBONE|DICT|INTERRES
   101   49  174 1    
   102   50   51 2    
   103   50   52 1    
   104   52   53 1    
   105   52   54 1    
   106   52  175 1    
   107   53  176 1    
   108   53  177 1    
   109   53  178 1    
   110   54   55 am   BACKBONE|DICT|INTERRES
   111   54  179 1    
   112   55   56 2    
   113   55   57 1    
   114   57   58 1    
   115   57   59 1    
   116   57  180 1    
   117   58  181 1    
   118   58  182 1    
   119   58  183 1    
   120   59   60 am   BACKBONE|DICT|INTERRES
   121   59  184 1    
   122   60   61 2    
   123   60   62 1    
   124   62   63 1    
   125   62   64 1    
   126   62  185 1    
   127   63  186 1    
   128   63  187 1    
   129   63  188 1    
   130   64   65 am   BACKBONE|DICT|INTERRES
   131   64  189 1    
   132   65   66 2    
   133   67   68 2    
   134   67   69 am   BACKBONE|DICT|INTERRES
   135   69   70 1    
   136   69  190 1    
   137   70   71 1    
   138   70   72 1    
   139   70  191 1    
   140   71  192 1    
   141   71  193 1    
   142   71  194 1    
   143   72   73 2    
   144   72   74 am   BACKBONE|DICT|INTERRES
   145   74   75 1    
   146   74  195 1    
   147   75   76 1    
   148   75   77 1    
   149   75  196 1    
   150   76  197 1    
   151   76  198 1    
   152   76  199 1    
   153   77   78 2    
   154   77   79 am   BACKBONE|DICT|INTERRES
   155   79   80 1    
   156   79  200 1    
   157   80   81 1    
   158   80   82 1    
   159   80  201 1    
   160   81  202 1    
   161   81  203 1    
   162   81  204 1    
   163   82   83 2    
   164   82   84 am   BACKBONE|DICT|INTERRES
   165   84   85 1    
   166   84  205 1    
   167   85   86 1    
   168   85   87 1    
   169   85  206 1    
   170   86  207 1    
   171   86  208 1    
   172   86  209 1    
   173   87   88 2    
   174   87   89 am   BACKBONE|DICT|INTERRES
   175   89   90 1    
   176   89  210 1    
   177   90   91 1    
   178   90   92 1    
   179   90  211 1    
   180   91  212 1    
   181   91  213 1    
   182   91  214 1    
   183   92   93 2    
   184   92   94 am   BACKBONE|DICT|INTERRES
   185   94   95 1    
   186   94  215 1    
   187   95   96 1    
   188   95   97 1    
   189   95  216 1    
   190   96  217 1    
   191   96  218 1    
   192   96  219 1    
   193   97   98 2    
   194   97   99 am   BACKBONE|DICT|INTERRES
   195   99  100 1    
   196   99  220 1    
   197  100  101 1    
   198  100  102 1    
   199  100  221 1    
   200  101  222 1    
   201  101  223 1    
   202  101  224 1    
   203  102  103 2    
   204  102  104 am   BACKBONE|DICT|INTERRES
   205  104  105 1    
   206  104  225 1    
   207  105  106 1    
   208  105  107 1    
   209  105  226 1    
   210  106  227 1    
   211  106  228 1    
   212  106  229 1    
   213  107  108 2    
   214  107  109 am   BACKBONE|DICT|INTERRES
   215  109  110 1    
   216  109  230 1    
   217  110  111 1    
   218  110  112 1    
   219  110  231 1    
   220  111  232 1    
   221  111  233 1    
   222  111  234 1    
   223  112  113 2    
   224  112  114 am   BACKBONE|DICT|INTERRES
   225  114  115 1    
   226  114  235 1    
   227  115  116 1    
   228  115  117 1    
   229  115  236 1    
   230  116  237 1    
   231  116  238 1    
   232  116  239 1    
   233  117  118 2    
   234  117  119 am   BACKBONE|DICT|INTERRES
   235  119  120 1    
   236  119  240 1    
   237  120  121 1    
   238  120  124 1    
   239  120  241 1    
   240  121  122 am   BACKBONE|DICT|INTERRES
   241  121  123 2    
   242  122  242 1    
   243  122  243 1    
   244  124  125 1    
   245  124  244 1    
   246  124  245 1    
   247  125  126 1    
   248  126  246 1    
   249  126  247 1    
@<TRIPOS>SUBSTRUCTURE
     1 UNK         1 GROUP             0       ****    0 ROOT    
