@<TRIPOS>MOLECULE
3R540
247   249    1
SMALL
USER_CHARGES


@<TRIPOS>ATOM
      1 CA          4.6592  -10.5796  -49.9431 C.3       0 UNK        -0.1800 
      2 C           3.9375  -11.6278  -50.7882 C.2       0 UNK         0.5000 
      3 O           4.0360  -11.5877  -52.0131 O.2       0 UNK        -0.5000 
      4 N           3.2171  -12.5870  -50.1928 N.am      1 UNK        -0.5000 
      5 CA          2.9347  -12.7149  -48.7598 C.3       1 UNK         0.1400 
      6 C6          2.4449  -14.1385  -48.3945 C.3       23 UNK        -0.0398 
      7 S7          3.7282  -15.4174  -48.5920 S.3       23 UNK        -0.2404 
      8 C8          3.2428  -16.2204  -50.1544 C.3       23 UNK        -0.0205 
      9 C9          1.8836  -16.9039  -50.0764 C.ar      23 UNK        -0.0193 
     10 C10         0.8070  -16.4182  -50.8266 C.ar      23 UNK        -0.1150 
     11 C11        -0.4331  -17.0602  -50.7818 C.ar      23 UNK        -0.0193 
     12 C12        -0.5900  -18.1941  -49.9838 C.ar      23 UNK        -0.1150 
     13 C13         0.4745  -18.6989  -49.2354 C.ar      23 UNK        -0.0193 
     14 C14         1.7085  -18.0389  -49.2775 C.ar      23 UNK        -0.1150 
     15 C15         0.2617  -19.9331  -48.3671 C.3       23 UNK        -0.0205 
     16 S16         1.5909  -21.1672  -48.5388 S.3       23 UNK        -0.2404 
     17 C17         0.6900  -22.6647  -49.0718 C.3       23 UNK        -0.0398 
     18 CA          0.1524  -23.5488  -47.9151 C.3       11 UNK         0.1400 
     19 N           1.1212  -23.6935  -46.8241 N.am      11 UNK        -0.5000 
     20 C           1.0536  -24.5870  -45.8314 C.2       10 UNK         0.5000 
     21 O           0.1653  -25.4334  -45.7477 O.2       10 UNK        -0.5000 
     22 CA          2.1102  -24.4823  -44.7159 C.3       10 UNK         0.1400 
     23 CB          3.2592  -25.4665  -44.9773 C.3       10 UNK        -0.1800 
     24 N           2.6609  -23.1344  -44.5293 N.am      10 UNK        -0.5000 
     25 C           1.9523  -22.0497  -44.1842 C.2       9 UNK         0.5000 
     26 O           0.7257  -22.0518  -44.0557 O.2       9 UNK        -0.5000 
     27 CA          2.7590  -20.7510  -43.9975 C.3       9 UNK         0.1400 
     28 CB          2.9857  -20.0461  -45.3428 C.3       9 UNK        -0.1800 
     29 N           2.1059  -19.8206  -43.0796 N.am      9 UNK        -0.5000 
     30 C           2.0961  -19.9472  -41.7466 C.2       8 UNK         0.5000 
     31 O           2.6507  -20.8704  -41.1478 O.2       8 UNK        -0.5000 
     32 CA          1.3765  -18.8527  -40.9335 C.3       8 UNK         0.1400 
     33 CB          2.3862  -17.8090  -40.4310 C.3       8 UNK        -0.1800 
     34 N           0.3216  -18.1707  -41.6826 N.am      8 UNK        -0.5000 
     35 C          -0.8870  -18.6914  -41.9329 C.2       7 UNK         0.5000 
     36 O          -1.2603  -19.7850  -41.5077 O.2       7 UNK        -0.5000 
     37 CA         -1.8443  -17.8509  -42.8018 C.3       7 UNK         0.1400 
     38 CB         -2.7014  -16.9310  -41.9197 C.3       7 UNK        -0.1800 
     39 N          -1.1667  -17.0520  -43.8272 N.am      7 UNK        -0.5000 
     40 C          -0.4541  -17.5684  -44.8396 C.2       6 UNK         0.5000 
     41 O          -0.2967  -18.7731  -45.0134 O.2       6 UNK        -0.5000 
     42 CA          0.2493  -16.5785  -45.7833 C.3       6 UNK         0.1400 
     43 CB         -0.7443  -15.9631  -46.7804 C.3       6 UNK        -0.1800 
     44 N           0.9358  -15.5194  -45.0482 N.am      6 UNK        -0.5000 
     45 C           1.9633  -15.7158  -44.2102 C.2       5 UNK         0.5000 
     46 O           2.4905  -16.8094  -44.0117 O.2       5 UNK        -0.5000 
     47 CA          2.4462  -14.4890  -43.4196 C.3       5 UNK         0.1400 
     48 CB          3.3884  -13.6210  -44.2679 C.3       5 UNK        -0.1800 
     49 N           1.3282  -13.6794  -42.9326 N.am      5 UNK        -0.5000 
     50 C           0.4798  -14.0648  -41.9686 C.2       4 UNK         0.5000 
     51 O           0.5668  -15.1370  -41.3712 O.2       4 UNK        -0.5000 
     52 CA         -0.6744  -13.1019  -41.6342 C.3       4 UNK         0.1400 
     53 CB         -0.2148  -12.0370  -40.6273 C.3       4 UNK        -0.1800 
     54 N          -1.2246  -12.4420  -42.8191 N.am      4 UNK        -0.5000 
     55 C          -1.9190  -13.0693  -43.7786 C.2       3 UNK         0.5000 
     56 O          -2.1838  -14.2710  -43.7579 O.2       3 UNK        -0.5000 
     57 CA         -2.3345  -12.2185  -44.9952 C.3       3 UNK         0.1400 
     58 CB         -3.6147  -11.4259  -44.6915 C.3       3 UNK        -0.1800 
     59 N          -1.2872  -11.2997  -45.4595 N.am      3 UNK        -0.5000 
     60 C          -0.0643  -11.6867  -45.8438 C.2       2 UNK         0.5000 
     61 O           0.3226  -12.8564  -45.7861 O.2       2 UNK        -0.5000 
     62 CA          0.9056  -10.5918  -46.3303 C.3       2 UNK         0.1400 
     63 CB          1.5005   -9.8356  -45.1319 C.3       2 UNK        -0.1800 
     64 N           1.9998  -11.1992  -47.0890 N.am      2 UNK        -0.5000 
     65 C           1.8637  -11.6968  -48.3236 C.2       1 UNK         0.5000 
     66 O           0.9150  -11.4396  -49.0689 O.2       1 UNK        -0.5000 
     67 C          -1.2593  -23.1121  -47.4570 C.2       11 UNK         0.5000 
     68 O          -2.1942  -23.2444  -48.2465 O.2       11 UNK        -0.5000 
     69 N          -1.4109  -22.6263  -46.2154 N.am      12 UNK        -0.5000 
     70 CA         -2.7086  -22.3584  -45.5878 C.3       12 UNK         0.1400 
     71 CB         -2.6205  -21.0630  -44.7709 C.3       12 UNK        -0.1800 
     72 C          -3.2190  -23.5314  -44.7271 C.2       12 UNK         0.5000 
     73 O          -4.3499  -23.4644  -44.2431 O.2       12 UNK        -0.5000 
     74 N          -2.4036  -24.5800  -44.5520 N.am      13 UNK        -0.5000 
     75 CA         -2.7828  -25.8245  -43.8828 C.3       13 UNK         0.1400 
     76 CB         -1.6796  -26.2284  -42.8909 C.3       13 UNK        -0.1800 
     77 C          -3.0226  -26.9360  -44.9175 C.2       13 UNK         0.5000 
     78 O          -4.0135  -27.6601  -44.8183 O.2       13 UNK        -0.5000 
     79 N          -2.1176  -27.0426  -45.8999 N.am      14 UNK        -0.5000 
     80 CA         -2.1507  -28.0327  -46.9769 C.3       14 UNK         0.1400 
     81 CB         -0.7405  -28.1430  -47.5782 C.3       14 UNK        -0.1800 
     82 C          -3.1767  -27.7131  -48.0814 C.2       14 UNK         0.5000 
     83 O          -3.5407  -28.6116  -48.8415 O.2       14 UNK        -0.5000 
     84 N          -3.6155  -26.4533  -48.1644 N.am      15 UNK        -0.5000 
     85 CA         -4.5783  -25.9475  -49.1348 C.3       15 UNK         0.1400 
     86 CB         -3.8440  -25.5584  -50.4326 C.3       15 UNK        -0.1800 
     87 C          -5.3195  -24.7496  -48.5255 C.2       15 UNK         0.5000 
     88 O          -4.9494  -24.2697  -47.4512 O.2       15 UNK        -0.5000 
     89 N          -6.3467  -24.2651  -49.2312 N.am      16 UNK        -0.5000 
     90 CA         -7.1200  -23.0745  -48.8777 C.3       16 UNK         0.1400 
     91 CB         -8.4891  -23.1550  -49.5774 C.3       16 UNK        -0.1800 
     92 C          -6.3448  -21.7909  -49.2398 C.2       16 UNK         0.5000 
     93 O          -6.7182  -21.0961  -50.1855 O.2       16 UNK        -0.5000 
     94 N          -5.2430  -21.5401  -48.5159 N.am      17 UNK        -0.5000 
     95 CA         -4.2772  -20.4494  -48.7127 C.3       17 UNK         0.1400 
     96 CB         -4.9025  -19.0867  -48.3532 C.3       17 UNK        -0.1800 
     97 C          -3.6757  -20.4892  -50.1296 C.2       17 UNK         0.5000 
     98 O          -3.8290  -19.5446  -50.9034 O.2       17 UNK        -0.5000 
     99 N          -3.0625  -21.6369  -50.4501 N.am      18 UNK        -0.5000 
    100 CA        -2.5006  -22.0371  -51.7473 C.3       18 UNK         0.1400 
    101 CB        -1.3989  -21.0615  -52.2024 C.3       18 UNK        -0.1800 
    102 C         -3.5484  -22.2801  -52.8585 C.2       18 UNK         0.5000 
    103 O         -3.1685  -22.6974  -53.9538 O.2       18 UNK        -0.5000 
    104 N         -4.8383  -22.0589  -52.5602 N.am      19 UNK        -0.5000 
    105 CA        -6.0070  -22.2716  -53.4139 C.3       19 UNK         0.1400 
    106 CB        -6.2984  -23.7836  -53.5403 C.3       19 UNK        -0.1800 
    107 C         -5.8871  -21.5269  -54.7602 C.2       19 UNK         0.5000 
    108 O         -5.7472  -20.3019  -54.7628 O.2       19 UNK        -0.5000 
    109 N         -5.9231  -22.2672  -55.8760 N.am      20 UNK        -0.5000 
    110 CA        -5.8831  -21.7625  -57.2515 C.3       20 UNK         0.1400 
    111 CB        -6.0726  -22.9456  -58.2137 C.3       20 UNK        -0.1800 
    112 C         -4.6160  -20.9643  -57.6230 C.2       20 UNK         0.5000 
    113 O         -4.6484  -20.2196  -58.6035 O.2       20 UNK        -0.5000 
    114 N         -3.5330  -21.1137  -56.8463 N.am      21 UNK        -0.5000 
    115 CA        -2.2986  -20.3443  -57.0075 C.3       21 UNK         0.1400 
    116 CB        -1.1739  -21.0183  -56.2106 C.3       21 UNK        -0.1800 
    117 C         -2.4436  -18.8660  -56.5912 C.2       21 UNK         0.5000 
    118 O         -1.7075  -18.0290  -57.1163 O.2       21 UNK        -0.5000 
    119 N         -3.3776  -18.5712  -55.6761 N.am      22 UNK        -0.5000 
    120 CA        -3.6805  -17.2132  -55.1913 C.3       22 UNK         0.1400 
    121 C         -5.1310  -16.7653  -55.5207 C.2       22 UNK         0.5000 
    122 N         -6.0985  -17.6642  -55.6537 N.am      22 UNK        -0.7600 
    123 O         -5.3828  -15.5732  -55.6737 O.2       22 UNK        -0.5000 
    124 C124       -3.4040  -17.0603  -53.6746 C.3       23 UNK        -0.0398 
    125 S125       -1.6471  -17.2960  -53.2460 S.3       23 UNK        -0.2404 
    126 C126       -1.6100  -16.5426  -51.5918 C.3       23 UNK        -0.0205 
    127 H127        3.9482   -9.9543  -49.4039 H         1 UNK         0.0600 
    128 H128        5.2588   -9.9264  -50.5775 H         1 UNK         0.0600 
    129 H129        5.3327  -11.0499  -49.2269 H         1 UNK         0.0600 
    130 H130        2.7323  -13.2482  -50.7800 H         1 UNK         0.3000 
    131 H131        3.8508  -12.5209  -48.1991 H         1 UNK         0.0600 
    132 H132        2.1373  -14.1802  -47.3485 H         1 UNK         0.0800 
    133 H133        1.5567  -14.3995  -48.9706 H         1 UNK         0.0800 
    134 H134        3.2633  -15.4837  -50.9585 H         1 UNK         0.0800 
    135 H135        3.9962  -16.9665  -50.4104 H         1 UNK         0.0800 
    136 H136        0.9329  -15.5461  -51.4524 H         1 UNK         0.1150 
    137 H137       -1.5491  -18.6851  -49.9520 H         1 UNK         0.1150 
    138 H138        2.5382  -18.4120  -48.6936 H         1 UNK         0.1150 
    139 H139        0.2117  -19.6212  -47.3268 H         1 UNK         0.0800 
    140 H140       -0.7017  -20.3924  -48.5895 H         1 UNK         0.0800 
    141 H141       -0.0958  -22.3985  -49.7791 H         1 UNK         0.0800 
    142 H142        1.3993  -23.2552  -49.6530 H         1 UNK         0.0800 
    143 H143        0.0086  -24.5488  -48.3305 H         1 UNK         0.0600 
    144 H144        1.8667  -23.0121  -46.8106 H         1 UNK         0.3000 
    145 H145        1.6204  -24.7691  -43.7830 H         1 UNK         0.0600 
    146 H146        3.9654  -25.4793  -44.1469 H         1 UNK         0.0600 
    147 H147        2.8831  -26.4837  -45.0969 H         1 UNK         0.0600 
    148 H148        3.8093  -25.2113  -45.8839 H         1 UNK         0.0600 
    149 H149        3.6617  -23.0470  -44.6331 H         1 UNK         0.3000 
    150 H150        3.7354  -21.0106  -43.5828 H         1 UNK         0.0600 
    151 H151        3.5032  -20.6967  -46.0484 H         1 UNK         0.0600 
    152 H152        3.5952  -19.1505  -45.2212 H         1 UNK         0.0600 
    153 H153        2.0448  -19.7456  -45.8014 H         1 UNK         0.0600 
    154 H154        1.5964  -19.0548  -43.5009 H         1 UNK         0.3000 
    155 H155        0.9276  -19.3331  -40.0616 H         1 UNK         0.0600 
    156 H156        3.1813  -18.2795  -39.8513 H         1 UNK         0.0600 
    157 H157        1.9049  -17.0743  -39.7852 H         1 UNK         0.0600 
    158 H158        2.8541  -17.2727  -41.2573 H         1 UNK         0.0600 
    159 H159        0.5287  -17.2361  -42.0138 H         1 UNK         0.3000 
    160 H160       -2.5137  -18.5439  -43.3142 H         1 UNK         0.0600 
    161 H161       -2.0933  -16.1812  -41.4128 H         1 UNK         0.0600 
    162 H162       -3.2273  -17.5015  -41.1533 H         1 UNK         0.0600 
    163 H163       -3.4551  -16.4093  -42.5096 H         1 UNK         0.0600 
    164 H164       -1.2866  -16.0452  -43.7700 H         1 UNK         0.3000 
    165 H165        1.0002  -17.1323  -46.3513 H         1 UNK         0.0600 
    166 H166       -0.2339  -15.3321  -47.5073 H         1 UNK         0.0600 
    167 H167       -1.2680  -16.7402  -47.3384 H         1 UNK         0.0600 
    168 H168       -1.4956  -15.3532  -46.2782 H         1 UNK         0.0600 
    169 H169        0.5891  -14.5718  -45.1811 H         1 UNK         0.3000 
    170 H170        3.0068  -14.8496  -42.5544 H         1 UNK         0.0600 
    171 H171        4.2460  -14.2010  -44.6113 H         1 UNK         0.0600 
    172 H172        2.8893  -13.2250  -45.1508 H         1 UNK         0.0600 
    173 H173        3.7739  -12.7790  -43.6930 H         1 UNK         0.0600 
    174 H174        1.1481  -12.8131  -43.4165 H         1 UNK         0.3000 
    175 H175       -1.4710  -13.6873  -41.1700 H         1 UNK         0.0600 
    176 H176        0.5669  -11.3992  -41.0419 H         1 UNK         0.0600 
    177 H177       -1.0441  -11.3981  -40.3232 H         1 UNK         0.0600 
    178 H178        0.1844  -12.5011  -39.7243 H         1 UNK         0.0600 
    179 H179       -1.0454  -11.4539  -42.9201 H         1 UNK         0.3000 
    180 H180       -2.5497  -12.9084  -45.8140 H         1 UNK         0.0600 
    181 H181       -3.4544  -10.6844  -43.9079 H         1 UNK         0.0600 
    182 H182       -4.4143  -12.0888  -44.3579 H         1 UNK         0.0600 
    183 H183       -3.9759  -10.9051  -45.5784 H         1 UNK         0.0600 
    184 H184       -1.5366  -10.3229  -45.5179 H         1 UNK         0.3000 
    185 H185        0.3630   -9.8906  -46.9677 H         1 UNK         0.0600 
    186 H186        0.7210   -9.3386  -44.5533 H         1 UNK         0.0600 
    187 H187        2.0356  -10.5041  -44.4560 H         1 UNK         0.0600 
    188 H188        2.1979   -9.0649  -45.4609 H         1 UNK         0.0600 
    189 H189        2.8062  -11.4678  -46.5453 H         1 UNK         0.3000 
    190 H190       -0.5968  -22.4992  -45.6219 H         1 UNK         0.3000 
    191 H191       -3.4680  -22.2048  -46.3533 H         1 UNK         0.0600 
    192 H192       -1.8270  -21.1084  -44.0244 H         1 UNK         0.0600 
    193 H193       -3.5545  -20.8564  -44.2473 H         1 UNK         0.0600 
    194 H194       -2.4250  -20.2121  -45.4223 H         1 UNK         0.0600 
    195 H195       -1.4931  -24.5709  -44.9947 H         1 UNK         0.3000 
    196 H196       -3.7067  -25.6919  -43.3160 H         1 UNK         0.0600 
    197 H197       -1.9471  -27.1455  -42.3646 H         1 UNK         0.0600 
    198 H198       -1.5269  -25.4545  -42.1386 H         1 UNK         0.0600 
    199 H199       -0.7249  -26.4029  -43.3877 H         1 UNK         0.0600 
    200 H200       -1.3008  -26.4351  -45.8806 H         1 UNK         0.3000 
    201 H201       -2.4174  -29.0015  -46.5494 H         1 UNK         0.0600 
    202 H202       -0.0091  -28.4232  -46.8198 H         1 UNK         0.0600 
    203 H203       -0.4183  -27.1995  -48.0205 H         1 UNK         0.0600 
    204 H204       -0.7052  -28.9026  -48.3602 H         1 UNK         0.0600 
    205 H205       -3.3283  -25.7752  -47.4701 H         1 UNK         0.3000 
    206 H206       -5.3200  -26.7193  -49.3504 H         1 UNK         0.0600 
    207 H207       -3.3562  -26.4229  -50.8827 H         1 UNK         0.0600 
    208 H208       -4.5291  -25.1534  -51.1776 H         1 UNK         0.0600 
    209 H209       -3.0778  -24.8065  -50.2466 H         1 UNK         0.0600 
    210 H210       -6.5865  -24.7046  -50.1075 H         1 UNK         0.3000 
    211 H211       -7.2960  -23.0642  -47.7998 H         1 UNK         0.0600 
    212 H212       -8.3882  -23.1953  -50.6629 H         1 UNK         0.0600 
    213 H213       -9.1024  -22.2859  -49.3360 H         1 UNK         0.0600 
    214 H214       -9.0419  -24.0392  -49.2597 H         1 UNK         0.0600 
    215 H215       -4.9859  -22.2449  -47.8324 H         1 UNK         0.3000 
    216 H216       -3.4493  -20.6181  -48.0240 H         1 UNK         0.0600 
    217 H217       -4.1643  -18.2877  -48.4338 H         1 UNK         0.0600 
    218 H218       -5.2746  -19.0833  -47.3288 H         1 UNK         0.0600 
    219 H219       -5.7326  -18.8318  -49.0127 H         1 UNK         0.0600 
    220 H220       -2.9769  -22.3364  -49.7158 H         1 UNK         0.3000 
    221 H221       -2.0240  -23.0016  -51.5687 H         1 UNK         0.0600 
    222 H222       -1.8212  -20.1407  -52.6031 H         1 UNK         0.0600 
    223 H223       -0.7305  -20.7936  -51.3853 H         1 UNK         0.0600 
    224 H224       -0.7848  -21.5096  -52.9829 H         1 UNK         0.0600 
    225 H225       -5.0431  -21.6345  -51.6650 H         1 UNK         0.3000 
    226 H226       -6.8523  -21.8163  -52.8963 H         1 UNK         0.0600 
    227 H227       -6.4573  -24.2285  -52.5584 H         1 UNK         0.0600 
    228 H228       -7.2048  -23.9664  -54.1189 H         1 UNK         0.0600 
    229 H229       -5.4788  -24.3234  -54.0163 H         1 UNK         0.0600 
    230 H230       -6.0034  -23.2684  -55.7743 H         1 UNK         0.3000 
    231 H231       -6.7307  -21.0851  -57.3733 H         1 UNK         0.0600 
    232 H232       -6.0856  -22.6097  -59.2515 H         1 UNK         0.0600 
    233 H233       -7.0170  -23.4582  -58.0294 H         1 UNK         0.0600 
    234 H234       -5.2680  -23.6754  -58.1150 H         1 UNK         0.0600 
    235 H235       -3.5806  -21.7410  -56.0526 H         1 UNK         0.3000 
    236 H236       -2.0205  -20.3643  -58.0634 H         1 UNK         0.0600 
    237 H237       -1.0412  -22.0582  -56.5094 H         1 UNK         0.0600 
    238 H238       -0.2230  -20.5079  -56.3677 H         1 UNK         0.0600 
    239 H239       -1.3830  -20.9981  -55.1426 H         1 UNK         0.0600 
    240 H240       -3.9678  -19.3126  -55.3195 H         1 UNK         0.3000 
    241 H241       -3.0390  -16.4935  -55.7034 H         1 UNK         0.0600 
    242 H242       -7.0292  -17.3506  -55.8776 H         1 UNK         0.3800 
    243 H243       -5.9435  -18.6452  -55.4322 H         1 UNK         0.3800 
    244 H244       -3.7025  -16.0672  -53.3332 H         1 UNK         0.0800 
    245 H245       -3.9990  -17.7759  -53.1038 H         1 UNK         0.0800 
    246 H246       -1.5613  -15.4568  -51.6857 H         1 UNK         0.0800 
    247 H247       -2.5403  -16.7680  -51.0670 H         1 UNK         0.0800 
@<TRIPOS>BOND
     1    1    2 1    
     2    1  127 1    
     3    1  128 1    
     4    1  129 1    
     5    2    3 2    
     6    2    4 am   BACKBONE|DICT|INTERRES
     7    4    5 1    
     8    4  130 1    
     9    5    6 1    
    10    5   65 1    
    11    5  131 1    
    12    6    7 1    
    13    6  132 1    
    14    6  133 1    
    15    7    8 1    
    16    8    9 1    
    17    8  134 1    
    18    8  135 1    
    19    9   10 ar   
    20    9   14 ar   
    21   10   11 ar   
    22   10  136 1    
    23   11   12 ar   
    24   11  126 1    
    25   12   13 ar   
    26   12  137 1    
    27   13   14 ar   
    28   13   15 1    
    29   14  138 1    
    30   15   16 1    
    31   15  139 1    
    32   15  140 1    
    33   16   17 1    
    34   17   18 1    
    35   17  141 1    
    36   17  142 1    
    37   18   19 1    
    38   18   67 1    
    39   18  143 1    
    40   19   20 am   BACKBONE|DICT|INTERRES
    41   19  144 1    
    42   20   21 2    
    43   20   22 1    
    44   22   23 1    
    45   22   24 1    
    46   22  145 1    
    47   23  146 1    
    48   23  147 1    
    49   23  148 1    
    50   24   25 am   BACKBONE|DICT|INTERRES
    51   24  149 1    
    52   25   26 2    
    53   25   27 1    
    54   27   28 1    
    55   27   29 1    
    56   27  150 1    
    57   28  151 1    
    58   28  152 1    
    59   28  153 1    
    60   29   30 am   BACKBONE|DICT|INTERRES
    61   29  154 1    
    62   30   31 2    
    63   30   32 1    
    64   32   33 1    
    65   32   34 1    
    66   32  155 1    
    67   33  156 1    
    68   33  157 1    
    69   33  158 1    
    70   34   35 am   BACKBONE|DICT|INTERRES
    71   34  159 1    
    72   35   36 2    
    73   35   37 1    
    74   37   38 1    
    75   37   39 1    
    76   37  160 1    
    77   38  161 1    
    78   38  162 1    
    79   38  163 1    
    80   39   40 am   BACKBONE|DICT|INTERRES
    81   39  164 1    
    82   40   41 2    
    83   40   42 1    
    84   42   43 1    
    85   42   44 1    
    86   42  165 1    
    87   43  166 1    
    88   43  167 1    
    89   43  168 1    
    90   44   45 am   BACKBONE|DICT|INTERRES
    91   44  169 1    
    92   45   46 2    
    93   45   47 1    
    94   47   48 1    
    95   47   49 1    
    96   47  170 1    
    97   48  171 1    
    98   48  172 1    
    99   48  173 1    
   100   49   50 am   BACKBONE|DICT|INTERRES
   101   49  174 1    
   102   50   51 2    
   103   50   52 1    
   104   52   53 1    
   105   52   54 1    
   106   52  175 1    
   107   53  176 1    
   108   53  177 1    
   109   53  178 1    
   110   54   55 am   BACKBONE|DICT|INTERRES
   111   54  179 1    
   112   55   56 2    
   113   55   57 1    
   114   57   58 1    
   115   57   59 1    
   116   57  180 1    
   117   58  181 1    
   118   58  182 1    
   119   58  183 1    
   120   59   60 am   BACKBONE|DICT|INTERRES
   121   59  184 1    
   122   60   61 2    
   123   60   62 1    
   124   62   63 1    
   125   62   64 1    
   126   62  185 1    
   127   63  186 1    
   128   63  187 1    
   129   63  188 1    
   130   64   65 am   BACKBONE|DICT|INTERRES
   131   64  189 1    
   132   65   66 2    
   133   67   68 2    
   134   67   69 am   BACKBONE|DICT|INTERRES
   135   69   70 1    
   136   69  190 1    
   137   70   71 1    
   138   70   72 1    
   139   70  191 1    
   140   71  192 1    
   141   71  193 1    
   142   71  194 1    
   143   72   73 2    
   144   72   74 am   BACKBONE|DICT|INTERRES
   145   74   75 1    
   146   74  195 1    
   147   75   76 1    
   148   75   77 1    
   149   75  196 1    
   150   76  197 1    
   151   76  198 1    
   152   76  199 1    
   153   77   78 2    
   154   77   79 am   BACKBONE|DICT|INTERRES
   155   79   80 1    
   156   79  200 1    
   157   80   81 1    
   158   80   82 1    
   159   80  201 1    
   160   81  202 1    
   161   81  203 1    
   162   81  204 1    
   163   82   83 2    
   164   82   84 am   BACKBONE|DICT|INTERRES
   165   84   85 1    
   166   84  205 1    
   167   85   86 1    
   168   85   87 1    
   169   85  206 1    
   170   86  207 1    
   171   86  208 1    
   172   86  209 1    
   173   87   88 2    
   174   87   89 am   BACKBONE|DICT|INTERRES
   175   89   90 1    
   176   89  210 1    
   177   90   91 1    
   178   90   92 1    
   179   90  211 1    
   180   91  212 1    
   181   91  213 1    
   182   91  214 1    
   183   92   93 2    
   184   92   94 am   BACKBONE|DICT|INTERRES
   185   94   95 1    
   186   94  215 1    
   187   95   96 1    
   188   95   97 1    
   189   95  216 1    
   190   96  217 1    
   191   96  218 1    
   192   96  219 1    
   193   97   98 2    
   194   97   99 am   BACKBONE|DICT|INTERRES
   195   99  100 1    
   196   99  220 1    
   197  100  101 1    
   198  100  102 1    
   199  100  221 1    
   200  101  222 1    
   201  101  223 1    
   202  101  224 1    
   203  102  103 2    
   204  102  104 am   BACKBONE|DICT|INTERRES
   205  104  105 1    
   206  104  225 1    
   207  105  106 1    
   208  105  107 1    
   209  105  226 1    
   210  106  227 1    
   211  106  228 1    
   212  106  229 1    
   213  107  108 2    
   214  107  109 am   BACKBONE|DICT|INTERRES
   215  109  110 1    
   216  109  230 1    
   217  110  111 1    
   218  110  112 1    
   219  110  231 1    
   220  111  232 1    
   221  111  233 1    
   222  111  234 1    
   223  112  113 2    
   224  112  114 am   BACKBONE|DICT|INTERRES
   225  114  115 1    
   226  114  235 1    
   227  115  116 1    
   228  115  117 1    
   229  115  236 1    
   230  116  237 1    
   231  116  238 1    
   232  116  239 1    
   233  117  118 2    
   234  117  119 am   BACKBONE|DICT|INTERRES
   235  119  120 1    
   236  119  240 1    
   237  120  121 1    
   238  120  124 1    
   239  120  241 1    
   240  121  122 am   BACKBONE|DICT|INTERRES
   241  121  123 2    
   242  122  242 1    
   243  122  243 1    
   244  124  125 1    
   245  124  244 1    
   246  124  245 1    
   247  125  126 1    
   248  126  246 1    
   249  126  247 1    
@<TRIPOS>SUBSTRUCTURE
     1 UNK         1 GROUP             0       ****    0 ROOT    
