@<TRIPOS>MOLECULE
3R540
247   249    1
SMALL
USER_CHARGES


@<TRIPOS>ATOM
      1 CA          5.6700  -15.2966  -47.9161 C.3       0 UNK        -0.1800 
      2 C           4.2116  -15.5810  -47.5871 C.2       0 UNK         0.5000 
      3 O           3.7909  -16.7363  -47.6234 O.2       0 UNK        -0.5000 
      4 N           3.4501  -14.5351  -47.2582 N.am      1 UNK        -0.5000 
      5 CA          2.0465  -14.5717  -46.8531 C.3       1 UNK         0.1400 
      6 C6          1.0886  -15.1018  -47.9602 C.3       23 UNK        -0.0398 
      7 S7          1.0519  -14.0823  -49.4788 S.3       23 UNK        -0.2404 
      8 C8         -0.6579  -14.3423  -50.0453 C.3       23 UNK        -0.0205 
      9 C9         -0.8319  -15.7001  -50.7102 C.ar      23 UNK        -0.0193 
     10 C10        -0.7012  -15.8220  -52.0980 C.ar      23 UNK        -0.1150 
     11 C11        -0.8898  -17.0584  -52.7248 C.ar      23 UNK        -0.0193 
     12 C12        -1.1783  -18.1806  -51.9449 C.ar      23 UNK        -0.1150 
     13 C13        -1.2957  -18.0767  -50.5578 C.ar      23 UNK        -0.0193 
     14 C14        -1.1336  -16.8318  -49.9447 C.ar      23 UNK        -0.1150 
     15 C15        -1.5928  -19.3190  -49.7366 C.3       23 UNK        -0.0205 
     16 S16        -0.0846  -20.3125  -49.5060 S.3       23 UNK        -0.2404 
     17 C17         0.1196  -20.3208  -47.6965 C.3       23 UNK        -0.0398 
     18 CA         -0.0155  -21.7304  -47.0677 C.3       11 UNK         0.1400 
     19 N           0.5672  -21.7570  -45.7224 N.am      11 UNK        -0.5000 
     20 C           0.7319  -22.8463  -44.9600 C.2       10 UNK         0.5000 
     21 O           0.4520  -23.9854  -45.3274 O.2       10 UNK        -0.5000 
     22 CA          1.2448  -22.6193  -43.5250 C.3       10 UNK         0.1400 
     23 CB          2.7727  -22.4672  -43.5019 C.3       10 UNK        -0.1800 
     24 N           0.6172  -21.4631  -42.8811 N.am      10 UNK        -0.5000 
     25 C          -0.6917  -21.3777  -42.6012 C.2       9 UNK         0.5000 
     26 O          -1.4911  -22.2909  -42.8017 O.2       9 UNK        -0.5000 
     27 CA         -1.2091  -20.0340  -42.0587 C.3       9 UNK         0.1400 
     28 CB         -0.9545  -19.9166  -40.5489 C.3       9 UNK        -0.1800 
     29 N          -0.6270  -18.8853  -42.7529 N.am      9 UNK        -0.5000 
     30 C          -0.7984  -18.6156  -44.0551 C.2       8 UNK         0.5000 
     31 O          -1.5126  -19.2833  -44.8031 O.2       8 UNK        -0.5000 
     32 CA          0.0088  -17.4361  -44.6304 C.3       8 UNK         0.1400 
     33 CB         -0.6605  -16.0973  -44.2854 C.3       8 UNK        -0.1800 
     34 N           1.3960  -17.4325  -44.1618 N.am      8 UNK        -0.5000 
     35 C           2.2846  -18.4065  -44.4091 C.2       7 UNK         0.5000 
     36 O           2.0444  -19.3816  -45.1186 O.2       7 UNK        -0.5000 
     37 CA          3.6396  -18.3178  -43.6857 C.3       7 UNK         0.1400 
     38 CB          4.6303  -17.4296  -44.4490 C.3       7 UNK        -0.1800 
     39 N           3.4876  -17.8230  -42.3193 N.am      7 UNK        -0.5000 
     40 C           2.9612  -18.5385  -41.3162 C.2       6 UNK         0.5000 
     41 O           2.5856  -19.7050  -41.4335 O.2       6 UNK        -0.5000 
     42 CA          2.7893  -17.8119  -39.9694 C.3       6 UNK         0.1400 
     43 CB          4.0918  -17.8601  -39.1571 C.3       6 UNK        -0.1800 
     44 N           2.3706  -16.4184  -40.1355 N.am      6 UNK        -0.5000 
     45 C           1.1761  -16.0453  -40.6153 C.2       5 UNK         0.5000 
     46 O           0.2903  -16.8398  -40.9269 O.2       5 UNK        -0.5000 
     47 CA          0.9484  -14.5378  -40.8273 C.3       5 UNK         0.1400 
     48 CB          0.4073  -13.8868  -39.5464 C.3       5 UNK        -0.1800 
     49 N           2.1413  -13.8127  -41.2710 N.am      5 UNK        -0.5000 
     50 C           2.8106  -14.0489  -42.4064 C.2       4 UNK         0.5000 
     51 O           2.5356  -14.9653  -43.1830 O.2       4 UNK        -0.5000 
     52 CA          3.9349  -13.0540  -42.7443 C.3       4 UNK         0.1400 
     53 CB          4.9193  -13.6019  -43.7916 C.3       4 UNK        -0.1800 
     54 N           3.3298  -11.8240  -43.2464 N.am      4 UNK        -0.5000 
     55 C           2.8463  -10.8432  -42.4706 C.2       3 UNK         0.5000 
     56 O           3.0070  -10.8000  -41.2498 O.2       3 UNK        -0.5000 
     57 CA          1.9992   -9.7568  -43.1617 C.3       3 UNK         0.1400 
     58 CB          2.8798   -8.5704  -43.5816 C.3       3 UNK        -0.1800 
     59 N           1.2729  -10.2536  -44.3322 N.am      3 UNK        -0.5000 
     60 C           0.3126  -11.1891  -44.3097 C.2       2 UNK         0.5000 
     61 O          -0.1264  -11.6980  -43.2777 O.2       2 UNK        -0.5000 
     62 CA         -0.2359  -11.6609  -45.6705 C.3       2 UNK         0.1400 
     63 CB         -0.1276  -10.5997  -46.7885 C.3       2 UNK        -0.1800 
     64 N           0.3710  -12.9250  -46.1018 N.am      2 UNK        -0.5000 
     65 C           1.6733  -13.1710  -46.3168 C.2       1 UNK         0.5000 
     66 O           2.5673  -12.3404  -46.1191 O.2       1 UNK        -0.5000 
     67 C          -1.4742  -22.2438  -47.0764 C.2       11 UNK         0.5000 
     68 O          -1.8405  -23.0465  -47.9388 O.2       11 UNK        -0.5000 
     69 N          -2.2663  -21.8127  -46.0845 N.am      12 UNK        -0.5000 
     70 CA         -3.6294  -22.2850  -45.8510 C.3       12 UNK         0.1400 
     71 CB         -4.3188  -21.3908  -44.8104 C.3       12 UNK        -0.1800 
     72 C          -3.6817  -23.7681  -45.4415 C.2       12 UNK         0.5000 
     73 O          -4.4779  -24.5182  -46.0057 O.2       12 UNK        -0.5000 
     74 N          -2.8113  -24.1776  -44.5070 N.am      13 UNK        -0.5000 
     75 CA         -2.6848  -25.5576  -44.0246 C.3       13 UNK         0.1400 
     76 CB         -1.7185  -25.5988  -42.8316 C.3       13 UNK        -0.1800 
     77 C          -2.2409  -26.5511  -45.1160 C.2       13 UNK         0.5000 
     78 O          -2.7088  -27.6900  -45.1290 O.2       13 UNK        -0.5000 
     79 N          -1.3811  -26.0903  -46.0340 N.am      14 UNK        -0.5000 
     80 CA         -0.9384  -26.8185  -47.2251 C.3       14 UNK         0.1400 
     81 CB          0.3233  -26.1348  -47.7775 C.3       14 UNK        -0.1800 
     82 C          -2.0150  -26.9226  -48.3266 C.2       14 UNK         0.5000 
     83 O          -1.7970  -27.6356  -49.3065 O.2       14 UNK        -0.5000 
     84 N          -3.1346  -26.2000  -48.1648 N.am      15 UNK        -0.5000 
     85 CA         -4.2712  -26.0763  -49.0831 C.3       15 UNK         0.1400 
     86 CB         -4.9491  -27.4384  -49.3368 C.3       15 UNK        -0.1800 
     87 C          -3.9375  -25.3251  -50.3877 C.2       15 UNK         0.5000 
     88 O          -4.7245  -25.3672  -51.3335 O.2       15 UNK        -0.5000 
     89 N          -2.8168  -24.5899  -50.4093 N.am      16 UNK        -0.5000 
     90 CA         -2.4148  -23.7290  -51.5240 C.3       16 UNK         0.1400 
     91 CB         -0.9313  -23.3684  -51.3761 C.3       16 UNK        -0.1800 
     92 C          -3.2999  -22.4733  -51.6441 C.2       16 UNK         0.5000 
     93 O          -3.3999  -21.8974  -52.7265 O.2       16 UNK        -0.5000 
     94 N          -3.9846  -22.1095  -50.5511 N.am      17 UNK        -0.5000 
     95 CA         -5.0286  -21.0839  -50.5163 C.3       17 UNK         0.1400 
     96 CB         -5.3305  -20.7404  -49.0498 C.3       17 UNK        -0.1800 
     97 C          -6.3222  -21.4933  -51.2564 C.2       17 UNK         0.5000 
     98 O          -7.1467  -20.6266  -51.5464 O.2       17 UNK        -0.5000 
     99 N          -6.4874  -22.7941  -51.5402 N.am      18 UNK        -0.5000 
    100 CA        -7.6317  -23.3684  -52.2511 C.3       18 UNK         0.1400 
    101 CB        -8.1070  -24.6187  -51.4897 C.3       18 UNK        -0.1800 
    102 C         -7.3042  -23.6948  -53.7239 C.2       18 UNK         0.5000 
    103 O         -8.1121  -24.3467  -54.3887 O.2       18 UNK        -0.5000 
    104 N         -6.1372  -23.2535  -54.2162 N.am      19 UNK        -0.5000 
    105 CA        -5.7078  -23.3927  -55.6095 C.3       19 UNK         0.1400 
    106 CB        -4.2002  -23.1003  -55.6898 C.3       19 UNK        -0.1800 
    107 C         -6.5002  -22.4796  -56.5710 C.2       19 UNK         0.5000 
    108 O         -7.2735  -21.6255  -56.1319 O.2       19 UNK        -0.5000 
    109 N         -6.2793  -22.6723  -57.8791 N.am      20 UNK        -0.5000 
    110 CA        -6.9213  -21.9132  -58.9591 C.3       20 UNK         0.1400 
    111 CB        -6.6604  -22.6297  -60.2934 C.3       20 UNK        -0.1800 
    112 C         -6.4759  -20.4375  -59.0442 C.2       20 UNK         0.5000 
    113 O         -7.2273  -19.6109  -59.5643 O.2       20 UNK        -0.5000 
    114 N         -5.2717  -20.1381  -58.5389 N.am      21 UNK        -0.5000 
    115 CA        -4.7328  -18.7875  -58.3759 C.3       21 UNK         0.1400 
    116 CB        -3.2136  -18.8301  -58.6409 C.3       21 UNK        -0.1800 
    117 C         -5.1067  -18.2461  -56.9778 C.2       21 UNK         0.5000 
    118 O         -6.2412  -18.4342  -56.5348 O.2       21 UNK        -0.5000 
    119 N         -4.1592  -17.5939  -56.2927 N.am      22 UNK        -0.5000 
    120 CA        -4.2799  -17.2132  -54.8745 C.3       22 UNK         0.1400 
    121 C         -4.1341  -18.3970  -53.8737 C.2       22 UNK         0.5000 
    122 N         -3.6217  -19.5519  -54.2835 N.am      22 UNK        -0.7600 
    123 O         -4.5119  -18.2634  -52.7143 O.2       22 UNK        -0.5000 
    124 C124       -3.3767  -16.0077  -54.4915 C.3       23 UNK        -0.0398 
    125 S125       -1.6934  -15.9841  -55.2137 S.3       23 UNK        -0.2404 
    126 C126       -0.7616  -17.2131  -54.2364 C.3       23 UNK        -0.0205 
    127 H127        6.3204  -15.8390  -47.2298 H         1 UNK         0.0600 
    128 H128        5.9035  -14.2344  -47.8380 H         1 UNK         0.0600 
    129 H129        5.8958  -15.6215  -48.9317 H         1 UNK         0.0600 
    130 H130        3.8442  -13.6027  -47.2134 H         1 UNK         0.3000 
    131 H131        1.9855  -15.2480  -45.9990 H         1 UNK         0.0600 
    132 H132        0.0790  -15.1965  -47.5606 H         1 UNK         0.0800 
    133 H133        1.3673  -16.1158  -48.2475 H         1 UNK         0.0800 
    134 H134       -1.3533  -14.2325  -49.2119 H         1 UNK         0.0800 
    135 H135       -0.9125  -13.5512  -50.7522 H         1 UNK         0.0800 
    136 H136       -0.4640  -14.9515  -52.6934 H         1 UNK         0.1150 
    137 H137       -1.3122  -19.1448  -52.4158 H         1 UNK         0.1150 
    138 H138       -1.2348  -16.7476  -48.8725 H         1 UNK         0.1150 
    139 H139       -2.0514  -19.0520  -48.7841 H         1 UNK         0.0800 
    140 H140       -2.3280  -19.9245  -50.2635 H         1 UNK         0.0800 
    141 H141        1.1228  -19.9352  -47.5123 H         1 UNK         0.0800 
    142 H142       -0.5556  -19.6087  -47.2232 H         1 UNK         0.0800 
    143 H143        0.5719  -22.4267  -47.6700 H         1 UNK         0.0600 
    144 H144        0.8892  -20.8646  -45.3569 H         1 UNK         0.3000 
    145 H145        0.9887  -23.5033  -42.9379 H         1 UNK         0.0600 
    146 H146        3.1424  -22.3564  -42.4823 H         1 UNK         0.0600 
    147 H147        3.2569  -23.3455  -43.9304 H         1 UNK         0.0600 
    148 H148        3.1032  -21.6006  -44.0733 H         1 UNK         0.0600 
    149 H149        1.2239  -20.6880  -42.6369 H         1 UNK         0.3000 
    150 H150       -2.2884  -20.0062  -42.2216 H         1 UNK         0.0600 
    151 H151       -1.3998  -20.7549  -40.0117 H         1 UNK         0.0600 
    152 H152       -1.3919  -19.0030  -40.1461 H         1 UNK         0.0600 
    153 H153        0.1106  -19.9068  -40.3178 H         1 UNK         0.0600 
    154 H154       -0.0748  -18.2459  -42.1882 H         1 UNK         0.3000 
    155 H155        0.0300  -17.5378  -45.7174 H         1 UNK         0.0600 
    156 H156       -0.8267  -15.9918  -43.2138 H         1 UNK         0.0600 
    157 H157       -1.6318  -16.0128  -44.7740 H         1 UNK         0.0600 
    158 H158       -0.0549  -15.2522  -44.6061 H         1 UNK         0.0600 
    159 H159        1.6956  -16.6375  -43.6045 H         1 UNK         0.3000 
    160 H160        4.0622  -19.3236  -43.6384 H         1 UNK         0.0600 
    161 H161        4.2291  -16.4317  -44.6232 H         1 UNK         0.0600 
    162 H162        4.8622  -17.8647  -45.4213 H         1 UNK         0.0600 
    163 H163        5.5713  -17.3262  -43.9089 H         1 UNK         0.0600 
    164 H164        3.7108  -16.8516  -42.1610 H         1 UNK         0.3000 
    165 H165        2.0152  -18.3360  -39.4048 H         1 UNK         0.0600 
    166 H166        4.9020  -17.3306  -39.6599 H         1 UNK         0.0600 
    167 H167        3.9584  -17.4129  -38.1719 H         1 UNK         0.0600 
    168 H168        4.4175  -18.8899  -39.0041 H         1 UNK         0.0600 
    169 H169        3.0428  -15.7027  -39.9014 H         1 UNK         0.3000 
    170 H170        0.1931  -14.4269  -41.6078 H         1 UNK         0.0600 
    171 H171       -0.4968  -14.3917  -39.2032 H         1 UNK         0.0600 
    172 H172        1.1351  -13.9267  -38.7351 H         1 UNK         0.0600 
    173 H173        0.1493  -12.8410  -39.7160 H         1 UNK         0.0600 
    174 H174        2.4046  -13.0017  -40.7263 H         1 UNK         0.3000 
    175 H175        4.4996  -12.8483  -41.8325 H         1 UNK         0.0600 
    176 H176        5.4031  -14.5106  -43.4323 H         1 UNK         0.0600 
    177 H177        4.4228  -13.8433  -44.7303 H         1 UNK         0.0600 
    178 H178        5.7056  -12.8788  -44.0080 H         1 UNK         0.0600 
    179 H179        3.1058  -11.8110  -44.2368 H         1 UNK         0.3000 
    180 H180        1.2643   -9.4006  -42.4370 H         1 UNK         0.0600 
    181 H181        2.2802   -7.7633  -44.0030 H         1 UNK         0.0600 
    182 H182        3.4178   -8.1614  -42.7253 H         1 UNK         0.0600 
    183 H183        3.6211   -8.8634  -44.3261 H         1 UNK         0.0600 
    184 H184        1.5936   -9.9278  -45.2326 H         1 UNK         0.3000 
    185 H185       -1.2972  -11.8626  -45.5171 H         1 UNK         0.0600 
    186 H186       -0.6471  -10.9320  -47.6874 H         1 UNK         0.0600 
    187 H187       -0.5864   -9.6588  -46.4817 H         1 UNK         0.0600 
    188 H188        0.9049  -10.3898  -47.0689 H         1 UNK         0.0600 
    189 H189       -0.2898  -13.6701  -46.2614 H         1 UNK         0.3000 
    190 H190       -1.9075  -21.1141  -45.4404 H         1 UNK         0.3000 
    191 H191       -4.1773  -22.1891  -46.7887 H         1 UNK         0.0600 
    192 H192       -5.3506  -21.7049  -44.6487 H         1 UNK         0.0600 
    193 H193       -4.3420  -20.3517  -45.1397 H         1 UNK         0.0600 
    194 H194       -3.8107  -21.4232  -43.8468 H         1 UNK         0.0600 
    195 H195       -2.2167  -23.4858  -44.0564 H         1 UNK         0.3000 
    196 H196       -3.6691  -25.8743  -43.6739 H         1 UNK         0.0600 
    197 H197       -1.6336  -26.6100  -42.4317 H         1 UNK         0.0600 
    198 H198       -2.0640  -24.9566  -42.0213 H         1 UNK         0.0600 
    199 H199       -0.7178  -25.2724  -43.1147 H         1 UNK         0.0600 
    200 H200       -0.9770  -25.1678  -45.8963 H         1 UNK         0.3000 
    201 H201       -0.6755  -27.8361  -46.9295 H         1 UNK         0.0600 
    202 H202        0.1234  -25.1048  -48.0756 H         1 UNK         0.0600 
    203 H203        0.7081  -26.6615  -48.6516 H         1 UNK         0.0600 
    204 H204        1.1202  -26.1190  -47.0338 H         1 UNK         0.0600 
    205 H205       -3.2153  -25.6451  -47.3207 H         1 UNK         0.3000 
    206 H206       -4.9977  -25.4490  -48.5651 H         1 UNK         0.0600 
    207 H207       -5.1737  -27.9475  -48.3995 H         1 UNK         0.0600 
    208 H208       -5.8924  -27.3111  -49.8693 H         1 UNK         0.0600 
    209 H209       -4.3249  -28.0991  -49.9385 H         1 UNK         0.0600 
    210 H210       -2.2569  -24.5335  -49.5672 H         1 UNK         0.3000 
    211 H211       -2.5320  -24.2895  -52.4539 H         1 UNK         0.0600 
    212 H212       -0.7192  -22.9462  -50.3957 H         1 UNK         0.0600 
    213 H213       -0.6224  -22.6399  -52.1270 H         1 UNK         0.0600 
    214 H214       -0.3018  -24.2499  -51.4975 H         1 UNK         0.0600 
    215 H215       -3.8131  -22.6190  -49.6961 H         1 UNK         0.3000 
    216 H216       -4.6416  -20.1885  -51.0028 H         1 UNK         0.0600 
    217 H217       -6.0554  -19.9282  -48.9817 H         1 UNK         0.0600 
    218 H218       -4.4316  -20.4150  -48.5258 H         1 UNK         0.0600 
    219 H219       -5.7465  -21.5954  -48.5159 H         1 UNK         0.0600 
    220 H220       -5.7538  -23.4492  -51.2992 H         1 UNK         0.3000 
    221 H221       -8.4593  -22.6565  -52.2649 H         1 UNK         0.0600 
    222 H222       -7.3625  -25.4145  -51.5124 H         1 UNK         0.0600 
    223 H223       -8.3204  -24.3883  -50.4458 H         1 UNK         0.0600 
    224 H224       -9.0236  -25.0179  -51.9253 H         1 UNK         0.0600 
    225 H225       -5.5413  -22.7000  -53.6168 H         1 UNK         0.3000 
    226 H226       -5.8756  -24.4276  -55.9146 H         1 UNK         0.0600 
    227 H227       -3.6392  -23.7256  -54.9948 H         1 UNK         0.0600 
    228 H228       -3.8073  -23.2986  -56.6873 H         1 UNK         0.0600 
    229 H229       -3.9818  -22.0597  -55.4526 H         1 UNK         0.0600 
    230 H230       -5.6348  -23.3954  -58.1650 H         1 UNK         0.3000 
    231 H231       -7.9982  -21.9163  -58.7776 H         1 UNK         0.0600 
    232 H232       -7.1496  -22.1101  -61.1184 H         1 UNK         0.0600 
    233 H233       -7.0490  -23.6482  -60.2778 H         1 UNK         0.0600 
    234 H234       -5.5951  -22.6786  -60.5224 H         1 UNK         0.0600 
    235 H235       -4.7457  -20.8855  -58.1124 H         1 UNK         0.3000 
    236 H236       -5.1822  -18.1174  -59.1114 H         1 UNK         0.0600 
    237 H237       -2.6872  -19.4358  -57.9021 H         1 UNK         0.0600 
    238 H238       -3.0028  -19.2531  -59.6234 H         1 UNK         0.0600 
    239 H239       -2.7781  -17.8302  -58.6298 H         1 UNK         0.0600 
    240 H240       -3.2519  -17.4463  -56.7107 H         1 UNK         0.3000 
    241 H241       -5.3055  -16.8679  -54.7275 H         1 UNK         0.0600 
    242 H242       -3.3101  -19.6635  -55.2319 H         1 UNK         0.3800 
    243 H243       -3.5455  -20.3329  -53.6354 H         1 UNK         0.3800 
    244 H244       -3.3171  -15.8794  -53.4095 H         1 UNK         0.0800 
    245 H245       -3.8627  -15.0984  -54.8472 H         1 UNK         0.0800 
    246 H246        0.2934  -17.1385  -54.5020 H         1 UNK         0.0800 
    247 H247       -1.0804  -18.2085  -54.5481 H         1 UNK         0.0800 
@<TRIPOS>BOND
     1    1    2 1    
     2    1  127 1    
     3    1  128 1    
     4    1  129 1    
     5    2    3 2    
     6    2    4 am   BACKBONE|DICT|INTERRES
     7    4    5 1    
     8    4  130 1    
     9    5    6 1    
    10    5   65 1    
    11    5  131 1    
    12    6    7 1    
    13    6  132 1    
    14    6  133 1    
    15    7    8 1    
    16    8    9 1    
    17    8  134 1    
    18    8  135 1    
    19    9   10 ar   
    20    9   14 ar   
    21   10   11 ar   
    22   10  136 1    
    23   11   12 ar   
    24   11  126 1    
    25   12   13 ar   
    26   12  137 1    
    27   13   14 ar   
    28   13   15 1    
    29   14  138 1    
    30   15   16 1    
    31   15  139 1    
    32   15  140 1    
    33   16   17 1    
    34   17   18 1    
    35   17  141 1    
    36   17  142 1    
    37   18   19 1    
    38   18   67 1    
    39   18  143 1    
    40   19   20 am   BACKBONE|DICT|INTERRES
    41   19  144 1    
    42   20   21 2    
    43   20   22 1    
    44   22   23 1    
    45   22   24 1    
    46   22  145 1    
    47   23  146 1    
    48   23  147 1    
    49   23  148 1    
    50   24   25 am   BACKBONE|DICT|INTERRES
    51   24  149 1    
    52   25   26 2    
    53   25   27 1    
    54   27   28 1    
    55   27   29 1    
    56   27  150 1    
    57   28  151 1    
    58   28  152 1    
    59   28  153 1    
    60   29   30 am   BACKBONE|DICT|INTERRES
    61   29  154 1    
    62   30   31 2    
    63   30   32 1    
    64   32   33 1    
    65   32   34 1    
    66   32  155 1    
    67   33  156 1    
    68   33  157 1    
    69   33  158 1    
    70   34   35 am   BACKBONE|DICT|INTERRES
    71   34  159 1    
    72   35   36 2    
    73   35   37 1    
    74   37   38 1    
    75   37   39 1    
    76   37  160 1    
    77   38  161 1    
    78   38  162 1    
    79   38  163 1    
    80   39   40 am   BACKBONE|DICT|INTERRES
    81   39  164 1    
    82   40   41 2    
    83   40   42 1    
    84   42   43 1    
    85   42   44 1    
    86   42  165 1    
    87   43  166 1    
    88   43  167 1    
    89   43  168 1    
    90   44   45 am   BACKBONE|DICT|INTERRES
    91   44  169 1    
    92   45   46 2    
    93   45   47 1    
    94   47   48 1    
    95   47   49 1    
    96   47  170 1    
    97   48  171 1    
    98   48  172 1    
    99   48  173 1    
   100   49   50 am   BACKBONE|DICT|INTERRES
   101   49  174 1    
   102   50   51 2    
   103   50   52 1    
   104   52   53 1    
   105   52   54 1    
   106   52  175 1    
   107   53  176 1    
   108   53  177 1    
   109   53  178 1    
   110   54   55 am   BACKBONE|DICT|INTERRES
   111   54  179 1    
   112   55   56 2    
   113   55   57 1    
   114   57   58 1    
   115   57   59 1    
   116   57  180 1    
   117   58  181 1    
   118   58  182 1    
   119   58  183 1    
   120   59   60 am   BACKBONE|DICT|INTERRES
   121   59  184 1    
   122   60   61 2    
   123   60   62 1    
   124   62   63 1    
   125   62   64 1    
   126   62  185 1    
   127   63  186 1    
   128   63  187 1    
   129   63  188 1    
   130   64   65 am   BACKBONE|DICT|INTERRES
   131   64  189 1    
   132   65   66 2    
   133   67   68 2    
   134   67   69 am   BACKBONE|DICT|INTERRES
   135   69   70 1    
   136   69  190 1    
   137   70   71 1    
   138   70   72 1    
   139   70  191 1    
   140   71  192 1    
   141   71  193 1    
   142   71  194 1    
   143   72   73 2    
   144   72   74 am   BACKBONE|DICT|INTERRES
   145   74   75 1    
   146   74  195 1    
   147   75   76 1    
   148   75   77 1    
   149   75  196 1    
   150   76  197 1    
   151   76  198 1    
   152   76  199 1    
   153   77   78 2    
   154   77   79 am   BACKBONE|DICT|INTERRES
   155   79   80 1    
   156   79  200 1    
   157   80   81 1    
   158   80   82 1    
   159   80  201 1    
   160   81  202 1    
   161   81  203 1    
   162   81  204 1    
   163   82   83 2    
   164   82   84 am   BACKBONE|DICT|INTERRES
   165   84   85 1    
   166   84  205 1    
   167   85   86 1    
   168   85   87 1    
   169   85  206 1    
   170   86  207 1    
   171   86  208 1    
   172   86  209 1    
   173   87   88 2    
   174   87   89 am   BACKBONE|DICT|INTERRES
   175   89   90 1    
   176   89  210 1    
   177   90   91 1    
   178   90   92 1    
   179   90  211 1    
   180   91  212 1    
   181   91  213 1    
   182   91  214 1    
   183   92   93 2    
   184   92   94 am   BACKBONE|DICT|INTERRES
   185   94   95 1    
   186   94  215 1    
   187   95   96 1    
   188   95   97 1    
   189   95  216 1    
   190   96  217 1    
   191   96  218 1    
   192   96  219 1    
   193   97   98 2    
   194   97   99 am   BACKBONE|DICT|INTERRES
   195   99  100 1    
   196   99  220 1    
   197  100  101 1    
   198  100  102 1    
   199  100  221 1    
   200  101  222 1    
   201  101  223 1    
   202  101  224 1    
   203  102  103 2    
   204  102  104 am   BACKBONE|DICT|INTERRES
   205  104  105 1    
   206  104  225 1    
   207  105  106 1    
   208  105  107 1    
   209  105  226 1    
   210  106  227 1    
   211  106  228 1    
   212  106  229 1    
   213  107  108 2    
   214  107  109 am   BACKBONE|DICT|INTERRES
   215  109  110 1    
   216  109  230 1    
   217  110  111 1    
   218  110  112 1    
   219  110  231 1    
   220  111  232 1    
   221  111  233 1    
   222  111  234 1    
   223  112  113 2    
   224  112  114 am   BACKBONE|DICT|INTERRES
   225  114  115 1    
   226  114  235 1    
   227  115  116 1    
   228  115  117 1    
   229  115  236 1    
   230  116  237 1    
   231  116  238 1    
   232  116  239 1    
   233  117  118 2    
   234  117  119 am   BACKBONE|DICT|INTERRES
   235  119  120 1    
   236  119  240 1    
   237  120  121 1    
   238  120  124 1    
   239  120  241 1    
   240  121  122 am   BACKBONE|DICT|INTERRES
   241  121  123 2    
   242  122  242 1    
   243  122  243 1    
   244  124  125 1    
   245  124  244 1    
   246  124  245 1    
   247  125  126 1    
   248  126  246 1    
   249  126  247 1    
@<TRIPOS>SUBSTRUCTURE
     1 UNK         1 GROUP             0       ****    0 ROOT    
