@<TRIPOS>MOLECULE
3R540
247   249    1
SMALL
USER_CHARGES


@<TRIPOS>ATOM
      1 CA          0.9538  -19.2900  -42.4719 C.3       0 UNK        -0.1800 
      2 C           0.5205  -17.8335  -42.4278 C.2       0 UNK         0.5000 
      3 O           0.6979  -17.1730  -41.4037 O.2       0 UNK        -0.5000 
      4 N          -0.0462  -17.3247  -43.5277 N.am      1 UNK        -0.5000 
      5 CA         -0.6486  -15.9920  -43.6490 C.3       1 UNK         0.1400 
      6 C6         -1.7799  -15.9763  -44.7107 C.3       23 UNK        -0.0398 
      7 S7         -3.1294  -14.8516  -44.2192 S.3       23 UNK        -0.2404 
      8 C8         -3.1501  -13.6606  -45.5993 C.3       23 UNK        -0.0205 
      9 C9         -3.7720  -14.1798  -46.8951 C.ar      23 UNK        -0.0193 
     10 C10        -3.3655  -13.6218  -48.1105 C.ar      23 UNK        -0.1150 
     11 C11        -3.9472  -14.0259  -49.3157 C.ar      23 UNK        -0.0193 
     12 C12        -4.9584  -14.9908  -49.2976 C.ar      23 UNK        -0.1150 
     13 C13        -5.3642  -15.5777  -48.0949 C.ar      23 UNK        -0.0193 
     14 C14        -4.7744  -15.1579  -46.8996 C.ar      23 UNK        -0.1150 
     15 C15        -6.4512  -16.6465  -48.0637 C.3       23 UNK        -0.0205 
     16 S16        -6.2145  -17.9322  -49.3334 S.3       23 UNK        -0.2404 
     17 C17        -7.1842  -19.3175  -48.6462 C.3       23 UNK        -0.0398 
     18 CA         -6.2992  -20.5704  -48.4273 C.3       11 UNK         0.1400 
     19 N          -5.1767  -20.3114  -47.5108 N.am      11 UNK        -0.5000 
     20 C          -3.9000  -20.5864  -47.7964 C.2       10 UNK         0.5000 
     21 O          -3.5435  -21.1670  -48.8194 O.2       10 UNK        -0.5000 
     22 CA         -2.8472  -20.1909  -46.7562 C.3       10 UNK         0.1400 
     23 CB         -2.5885  -21.3697  -45.7995 C.3       10 UNK        -0.1800 
     24 N          -1.6330  -19.8132  -47.4719 N.am      10 UNK        -0.5000 
     25 C          -0.5280  -19.2880  -46.9395 C.2       9 UNK         0.5000 
     26 O          -0.3825  -19.0556  -45.7377 O.2       9 UNK        -0.5000 
     27 CA          0.5747  -18.8875  -47.9293 C.3       9 UNK         0.1400 
     28 CB          0.4627  -17.3898  -48.2498 C.3       9 UNK        -0.1800 
     29 N           1.9036  -19.1623  -47.3857 N.am      9 UNK        -0.5000 
     30 C           2.5220  -20.3492  -47.4746 C.2       8 UNK         0.5000 
     31 O           2.0098  -21.3419  -47.9911 O.2       8 UNK        -0.5000 
     32 CA          3.9658  -20.4586  -46.9414 C.3       8 UNK         0.1400 
     33 CB          4.9641  -20.4669  -48.1104 C.3       8 UNK        -0.1800 
     34 N           4.3272  -19.3723  -46.0335 N.am      8 UNK        -0.5000 
     35 C           4.0579  -19.3544  -44.7225 C.2       7 UNK         0.5000 
     36 O           3.5703  -20.3088  -44.1180 O.2       7 UNK        -0.5000 
     37 CA          4.3832  -18.0548  -43.9527 C.3       7 UNK         0.1400 
     38 CB          5.6235  -18.2460  -43.0669 C.3       7 UNK        -0.1800 
     39 N           4.5848  -16.8741  -44.8021 N.am      7 UNK        -0.5000 
     40 C           3.6438  -16.3257  -45.5795 C.2       6 UNK         0.5000 
     41 O           2.5073  -16.7867  -45.6994 O.2       6 UNK        -0.5000 
     42 CA          4.0529  -15.0907  -46.3898 C.3       6 UNK         0.1400 
     43 CB          4.9403  -15.4862  -47.5830 C.3       6 UNK        -0.1800 
     44 N           2.8436  -14.4414  -46.8801 N.am      6 UNK        -0.5000 
     45 C           2.6986  -13.1376  -47.1309 C.2       5 UNK         0.5000 
     46 O           3.5912  -12.3077  -46.9518 O.2       5 UNK        -0.5000 
     47 CA          1.3384  -12.6703  -47.6756 C.3       5 UNK         0.1400 
     48 CB          0.4372  -13.8071  -48.1974 C.3       5 UNK        -0.1800 
     49 N           0.6336  -11.9508  -46.6196 N.am      5 UNK        -0.5000 
     50 C           0.3302  -10.6468  -46.6575 C.2       4 UNK         0.5000 
     51 O           0.5940   -9.9164  -47.6140 O.2       4 UNK        -0.5000 
     52 CA         -0.3857  -10.0300  -45.4441 C.3       4 UNK         0.1400 
     53 CB         -1.8990   -9.9177  -45.6947 C.3       4 UNK        -0.1800 
     54 N          -0.1386  -10.7463  -44.1890 N.am      4 UNK        -0.5000 
     55 C          -0.0141  -10.1391  -42.9989 C.2       3 UNK         0.5000 
     56 O          -0.1154   -8.9213  -42.8410 O.2       3 UNK        -0.5000 
     57 CA          0.2669  -11.0222  -41.7655 C.3       3 UNK         0.1400 
     58 CB         -1.0355  -11.2916  -40.9957 C.3       3 UNK        -0.1800 
     59 N           0.8952  -12.3033  -42.0824 N.am      3 UNK        -0.5000 
     60 C           2.1223  -12.4683  -42.5943 C.2       2 UNK         0.5000 
     61 O           2.9068  -11.5413  -42.7953 O.2       2 UNK        -0.5000 
     62 CA          2.5400  -13.9069  -42.9619 C.3       2 UNK         0.1400 
     63 CB          3.6229  -14.4246  -42.0032 C.3       2 UNK        -0.1800 
     64 N           1.4374  -14.8732  -42.9892 N.am      2 UNK        -0.5000 
     65 C           0.3957  -14.8634  -43.8308 C.2       1 UNK         0.5000 
     66 O           0.2388  -13.9866  -44.6842 O.2       1 UNK        -0.5000 
     67 C          -7.1219  -21.8018  -47.9879 C.2       11 UNK         0.5000 
     68 O          -8.2544  -21.9701  -48.4418 O.2       11 UNK        -0.5000 
     69 N          -6.5421  -22.6530  -47.1318 N.am      12 UNK        -0.5000 
     70 CA         -7.1285  -23.9133  -46.6839 C.3       12 UNK         0.1400 
     71 CB         -8.0594  -23.6840  -45.4796 C.3       12 UNK        -0.1800 
     72 C          -6.0163  -24.9186  -46.3663 C.2       12 UNK         0.5000 
     73 O          -5.9757  -25.9898  -46.9742 O.2       12 UNK        -0.5000 
     74 N          -5.1122  -24.5424  -45.4492 N.am      13 UNK        -0.5000 
     75 CA         -3.9820  -25.3635  -45.0055 C.3       13 UNK         0.1400 
     76 CB         -3.2306  -24.6358  -43.8808 C.3       13 UNK        -0.1800 
     77 C          -3.0197  -25.7310  -46.1508 C.2       13 UNK         0.5000 
     78 O          -2.8122  -24.9262  -47.0632 O.2       13 UNK        -0.5000 
     79 N          -2.4709  -26.9523  -46.0790 N.am      14 UNK        -0.5000 
     80 CA         -1.5817  -27.5760  -47.0673 C.3       14 UNK         0.1400 
     81 CB         -0.2091  -26.8704  -47.0802 C.3       14 UNK        -0.1800 
     82 C          -2.2222  -27.6755  -48.4693 C.2       14 UNK         0.5000 
     83 O          -1.5434  -27.4515  -49.4717 O.2       14 UNK        -0.5000 
     84 N          -3.5316  -27.9733  -48.5044 N.am      15 UNK        -0.5000 
     85 CA         -4.3986  -27.9994  -49.6897 C.3       15 UNK         0.1400 
     86 CB         -4.0126  -29.1631  -50.6272 C.3       15 UNK        -0.1800 
     87 C          -4.4262  -26.6319  -50.4027 C.2       15 UNK         0.5000 
     88 O          -4.1861  -26.5520  -51.6081 O.2       15 UNK        -0.5000 
     89 N          -4.6642  -25.5755  -49.6122 N.am      16 UNK        -0.5000 
     90 CA         -4.5919  -24.1583  -49.9810 C.3       16 UNK         0.1400 
     91 CB         -5.7683  -23.7719  -50.9004 C.3       16 UNK        -0.1800 
     92 C          -3.2155  -23.7819  -50.5640 C.2       16 UNK         0.5000 
     93 O          -3.1387  -23.2343  -51.6659 O.2       16 UNK        -0.5000 
     94 N          -2.1566  -24.1344  -49.8192 N.am      17 UNK        -0.5000 
     95 CA         -0.7422  -23.9543  -50.1609 C.3       17 UNK         0.1400 
     96 CB         -0.3711  -22.4581  -50.1036 C.3       17 UNK        -0.1800 
     97 C          -0.3786  -24.6121  -51.5092 C.2       17 UNK         0.5000 
     98 O           0.1760  -23.9542  -52.3890 O.2       17 UNK        -0.5000 
     99 N          -0.7545  -25.8899  -51.6668 N.am      18 UNK        -0.5000 
    100 CA        -0.6623  -26.6927  -52.8929 C.3       18 UNK         0.1400 
    101 CB         0.8086  -27.0314  -53.2105 C.3       18 UNK        -0.1800 
    102 C         -1.4071  -26.0408  -54.0798 C.2       18 UNK         0.5000 
    103 O         -0.8839  -25.9846  -55.1940 O.2       18 UNK        -0.5000 
    104 N         -2.6104  -25.5288  -53.7885 N.am      19 UNK        -0.5000 
    105 CA        -3.5239  -24.7779  -54.6534 C.3       19 UNK         0.1400 
    106 CB        -4.0063  -25.6516  -55.8297 C.3       19 UNK        -0.1800 
    107 C         -3.0036  -23.3988  -55.1203 C.2       19 UNK         0.5000 
    108 O         -3.6362  -22.7881  -55.9841 O.2       19 UNK        -0.5000 
    109 N         -1.8909  -22.9080  -54.5543 N.am      20 UNK        -0.5000 
    110 CA        -1.3176  -21.6006  -54.8821 C.3       20 UNK         0.1400 
    111 CB         0.1916  -21.6118  -54.5972 C.3       20 UNK        -0.1800 
    112 C         -1.9873  -20.4392  -54.1253 C.2       20 UNK         0.5000 
    113 O         -1.8568  -19.2967  -54.5694 O.2       20 UNK        -0.5000 
    114 N         -2.6679  -20.7358  -53.0061 N.am      21 UNK        -0.5000 
    115 CA        -3.3002  -19.8067  -52.0646 C.3       21 UNK         0.1400 
    116 CB        -4.5026  -19.0877  -52.7139 C.3       21 UNK        -0.1800 
    117 C         -2.2739  -18.8433  -51.4352 C.2       21 UNK         0.5000 
    118 O         -1.6986  -19.1574  -50.3931 O.2       21 UNK        -0.5000 
    119 N         -2.0416  -17.7098  -52.1009 N.am      22 UNK        -0.5000 
    120 CA        -1.0264  -16.7018  -51.7724 C.3       22 UNK         0.1400 
    121 C         -0.1687  -16.2734  -52.9992 C.2       22 UNK         0.5000 
    122 N         -0.2603  -16.9386  -54.1461 N.am      22 UNK        -0.7600 
    123 O          0.6184  -15.3354  -52.9070 O.2       22 UNK        -0.5000 
    124 C124       -1.6301  -15.5048  -50.9913 C.3       23 UNK        -0.0398 
    125 S125       -2.9888  -14.6538  -51.8689 S.3       23 UNK        -0.2404 
    126 C126       -3.4890  -13.4094  -50.6324 C.3       23 UNK        -0.0205 
    127 H127        0.9641  -19.6767  -43.4909 H         1 UNK         0.0600 
    128 H128        0.2707  -19.9009  -41.8824 H         1 UNK         0.0600 
    129 H129        1.9546  -19.4003  -42.0552 H         1 UNK         0.0600 
    130 H130       -0.1177  -17.9160  -44.3561 H         1 UNK         0.3000 
    131 H131       -1.1147  -15.7918  -42.6817 H         1 UNK         0.0600 
    132 H132       -1.4060  -15.7394  -45.7084 H         1 UNK         0.0800 
    133 H133       -2.2284  -16.9669  -44.7992 H         1 UNK         0.0800 
    134 H134       -3.7214  -12.7885  -45.2807 H         1 UNK         0.0800 
    135 H135       -2.1308  -13.3174  -45.7808 H         1 UNK         0.0800 
    136 H136       -2.6033  -12.8557  -48.1144 H         1 UNK         0.1150 
    137 H137       -5.4172  -15.2978  -50.2268 H         1 UNK         0.1150 
    138 H138       -5.1119  -15.5891  -45.9685 H         1 UNK         0.1150 
    139 H139       -6.4731  -17.1197  -47.0810 H         1 UNK         0.0800 
    140 H140       -7.4237  -16.1742  -48.2066 H         1 UNK         0.0800 
    141 H141       -7.9863  -19.5298  -49.3552 H         1 UNK         0.0800 
    142 H142       -7.6715  -19.0212  -47.7164 H         1 UNK         0.0800 
    143 H143       -5.9111  -20.8391  -49.4120 H         1 UNK         0.0600 
    144 H144       -5.4076  -19.8533  -46.6408 H         1 UNK         0.3000 
    145 H145       -3.2038  -19.3258  -46.1937 H         1 UNK         0.0600 
    146 H146       -1.8819  -21.1079  -45.0124 H         1 UNK         0.0600 
    147 H147       -3.5112  -21.6790  -45.3083 H         1 UNK         0.0600 
    148 H148       -2.1911  -22.2354  -46.3318 H         1 UNK         0.0600 
    149 H149       -1.7002  -19.9153  -48.4832 H         1 UNK         0.3000 
    150 H150        0.4478  -19.4485  -48.8576 H         1 UNK         0.0600 
    151 H151       -0.5029  -17.1656  -48.7018 H         1 UNK         0.0600 
    152 H152        1.2379  -17.0705  -48.9463 H         1 UNK         0.0600 
    153 H153        0.5399  -16.7822  -47.3494 H         1 UNK         0.0600 
    154 H154        2.3223  -18.4161  -46.8419 H         1 UNK         0.3000 
    155 H155        4.0518  -21.4127  -46.4169 H         1 UNK         0.0600 
    156 H156        4.7511  -21.2840  -48.8011 H         1 UNK         0.0600 
    157 H157        5.9860  -20.6018  -47.7556 H         1 UNK         0.0600 
    158 H158        4.9253  -19.5374  -48.6800 H         1 UNK         0.0600 
    159 H159        4.7469  -18.5537  -46.4472 H         1 UNK         0.3000 
    160 H160        3.5315  -17.8477  -43.3024 H         1 UNK         0.0600 
    161 H161        6.5175  -18.4331  -43.6630 H         1 UNK         0.0600 
    162 H162        5.4958  -19.0932  -42.3917 H         1 UNK         0.0600 
    163 H163        5.8078  -17.3669  -42.4492 H         1 UNK         0.0600 
    164 H164        5.5038  -16.4559  -44.7723 H         1 UNK         0.3000 
    165 H165        4.5992  -14.4131  -45.7306 H         1 UNK         0.0600 
    166 H166        5.2309  -14.6110  -48.1644 H         1 UNK         0.0600 
    167 H167        5.8591  -15.9707  -47.2508 H         1 UNK         0.0600 
    168 H168        4.4265  -16.1760  -48.2541 H         1 UNK         0.0600 
    169 H169        2.0447  -15.0583  -46.9512 H         1 UNK         0.3000 
    170 H170        1.5596  -12.0165  -48.5216 H         1 UNK         0.0600 
    171 H171        0.9658  -14.4375  -48.9136 H         1 UNK         0.0600 
    172 H172        0.0653  -14.4402  -47.3921 H         1 UNK         0.0600 
    173 H173       -0.4272  -13.3972  -48.7173 H         1 UNK         0.0600 
    174 H174        0.4115  -12.5163  -45.8059 H         1 UNK         0.3000 
    175 H175        0.0139   -9.0170  -45.3587 H         1 UNK         0.0600 
    176 H176       -2.3988   -9.3986  -44.8768 H         1 UNK         0.0600 
    177 H177       -2.1036   -9.3567  -46.6075 H         1 UNK         0.0600 
    178 H178       -2.3612  -10.8968  -45.8034 H         1 UNK         0.0600 
    179 H179       -0.0349  -11.7508  -44.2345 H         1 UNK         0.3000 
    180 H180        0.9445  -10.4680  -41.1127 H         1 UNK         0.0600 
    181 H181       -1.7453  -11.8639  -41.5947 H         1 UNK         0.0600 
    182 H182       -1.5230  -10.3577  -40.7126 H         1 UNK         0.0600 
    183 H183       -0.8444  -11.8474  -40.0775 H         1 UNK         0.0600 
    184 H184        0.3316  -13.1281  -41.9418 H         1 UNK         0.3000 
    185 H185        2.9637  -13.8580  -43.9648 H         1 UNK         0.0600 
    186 H186        4.4867  -13.7587  -41.9891 H         1 UNK         0.0600 
    187 H187        3.2491  -14.5013  -40.9815 H         1 UNK         0.0600 
    188 H188        3.9792  -15.4097  -42.3034 H         1 UNK         0.0600 
    189 H189        1.4602  -15.6164  -42.2971 H         1 UNK         0.3000 
    190 H190       -5.5918  -22.4697  -46.8446 H         1 UNK         0.3000 
    191 H191       -7.7185  -24.3425  -47.4971 H         1 UNK         0.0600 
    192 H192       -8.9095  -23.0596  -45.7545 H         1 UNK         0.0600 
    193 H193       -8.4587  -24.6289  -45.1088 H         1 UNK         0.0600 
    194 H194       -7.5428  -23.1960  -44.6526 H         1 UNK         0.0600 
    195 H195       -5.2250  -23.6547  -44.9845 H         1 UNK         0.3000 
    196 H196       -4.3988  -26.2859  -44.5955 H         1 UNK         0.0600 
    197 H197       -2.4355  -25.2628  -43.4754 H         1 UNK         0.0600 
    198 H198       -3.8965  -24.3851  -43.0549 H         1 UNK         0.0600 
    199 H199       -2.7673  -23.7149  -44.2324 H         1 UNK         0.0600 
    200 H200       -2.7073  -27.5352  -45.2877 H         1 UNK         0.3000 
    201 H201       -1.4202  -28.6031  -46.7373 H         1 UNK         0.0600 
    202 H202        0.2362  -26.8608  -46.0855 H         1 UNK         0.0600 
    203 H203       -0.2860  -25.8379  -47.4199 H         1 UNK         0.0600 
    204 H204        0.4906  -27.3823  -47.7419 H         1 UNK         0.0600 
    205 H205       -4.0035  -28.1076  -47.6211 H         1 UNK         0.3000 
    206 H206       -5.4131  -28.1827  -49.3325 H         1 UNK         0.0600 
    207 H207       -4.0193  -30.1150  -50.0966 H         1 UNK         0.0600 
    208 H208       -4.7195  -29.2469  -51.4535 H         1 UNK         0.0600 
    209 H209       -3.0212  -29.0278  -51.0604 H         1 UNK         0.0600 
    210 H210       -4.8474  -25.7608  -48.6316 H         1 UNK         0.3000 
    211 H211       -4.6930  -23.5944  -49.0545 H         1 UNK         0.0600 
    212 H212       -5.7332  -24.3049  -51.8507 H         1 UNK         0.0600 
    213 H213       -5.7531  -22.7047  -51.1241 H         1 UNK         0.0600 
    214 H214       -6.7252  -23.9917  -50.4271 H         1 UNK         0.0600 
    215 H215       -2.3403  -24.5576  -48.9132 H         1 UNK         0.3000 
    216 H216       -0.1636  -24.4711  -49.3952 H         1 UNK         0.0600 
    217 H217        0.6958  -22.3117  -50.2737 H         1 UNK         0.0600 
    218 H218       -0.6054  -22.0336  -49.1275 H         1 UNK         0.0600 
    219 H219       -0.9047  -21.8761  -50.8552 H         1 UNK         0.0600 
    220 H220       -1.1831  -26.3645  -50.8728 H         1 UNK         0.3000 
    221 H221       -1.1809  -27.6293  -52.6829 H         1 UNK         0.0600 
    222 H222        1.3826  -26.1418  -53.4714 H         1 UNK         0.0600 
    223 H223        1.2951  -27.5069  -52.3590 H         1 UNK         0.0600 
    224 H224        0.8771  -27.7230  -54.0509 H         1 UNK         0.0600 
    225 H225       -2.9599  -25.6691  -52.8440 H         1 UNK         0.3000 
    226 H226       -4.3934  -24.5637  -54.0307 H         1 UNK         0.0600 
    227 H227       -4.3918  -26.6083  -55.4773 H         1 UNK         0.0600 
    228 H228       -4.8122  -25.1622  -56.3776 H         1 UNK         0.0600 
    229 H229       -3.2050  -25.8526  -56.5410 H         1 UNK         0.0600 
    230 H230       -1.4241  -23.4441  -53.8317 H         1 UNK         0.3000 
    231 H231       -1.4489  -21.4174  -55.9506 H         1 UNK         0.0600 
    232 H232        0.3995  -21.6434  -53.5275 H         1 UNK         0.0600 
    233 H233        0.6658  -20.7118  -54.9904 H         1 UNK         0.0600 
    234 H234        0.6795  -22.4685  -55.0627 H         1 UNK         0.0600 
    235 H235       -2.7027  -21.7099  -52.7126 H         1 UNK         0.3000 
    236 H236       -3.6937  -20.4184  -51.2538 H         1 UNK         0.0600 
    237 H237       -5.2782  -19.8030  -52.9870 H         1 UNK         0.0600 
    238 H238       -4.9501  -18.3747  -52.0213 H         1 UNK         0.0600 
    239 H239       -4.2298  -18.5388  -53.6149 H         1 UNK         0.0600 
    240 H240       -2.5383  -17.5537  -52.9664 H         1 UNK         0.3000 
    241 H241       -0.2922  -17.1692  -51.1153 H         1 UNK         0.0600 
    242 H242        0.3084  -16.6487  -54.9255 H         1 UNK         0.3800 
    243 H243       -0.8605  -17.7541  -54.2457 H         1 UNK         0.3800 
    244 H244       -2.0160  -15.8667  -50.0379 H         1 UNK         0.0800 
    245 H245       -0.8580  -14.7757  -50.7436 H         1 UNK         0.0800 
    246 H246       -2.6560  -12.7233  -50.4710 H         1 UNK         0.0800 
    247 H247       -4.3046  -12.8131  -51.0431 H         1 UNK         0.0800 
@<TRIPOS>BOND
     1    1    2 1    
     2    1  127 1    
     3    1  128 1    
     4    1  129 1    
     5    2    3 2    
     6    2    4 am   BACKBONE|DICT|INTERRES
     7    4    5 1    
     8    4  130 1    
     9    5    6 1    
    10    5   65 1    
    11    5  131 1    
    12    6    7 1    
    13    6  132 1    
    14    6  133 1    
    15    7    8 1    
    16    8    9 1    
    17    8  134 1    
    18    8  135 1    
    19    9   10 ar   
    20    9   14 ar   
    21   10   11 ar   
    22   10  136 1    
    23   11   12 ar   
    24   11  126 1    
    25   12   13 ar   
    26   12  137 1    
    27   13   14 ar   
    28   13   15 1    
    29   14  138 1    
    30   15   16 1    
    31   15  139 1    
    32   15  140 1    
    33   16   17 1    
    34   17   18 1    
    35   17  141 1    
    36   17  142 1    
    37   18   19 1    
    38   18   67 1    
    39   18  143 1    
    40   19   20 am   BACKBONE|DICT|INTERRES
    41   19  144 1    
    42   20   21 2    
    43   20   22 1    
    44   22   23 1    
    45   22   24 1    
    46   22  145 1    
    47   23  146 1    
    48   23  147 1    
    49   23  148 1    
    50   24   25 am   BACKBONE|DICT|INTERRES
    51   24  149 1    
    52   25   26 2    
    53   25   27 1    
    54   27   28 1    
    55   27   29 1    
    56   27  150 1    
    57   28  151 1    
    58   28  152 1    
    59   28  153 1    
    60   29   30 am   BACKBONE|DICT|INTERRES
    61   29  154 1    
    62   30   31 2    
    63   30   32 1    
    64   32   33 1    
    65   32   34 1    
    66   32  155 1    
    67   33  156 1    
    68   33  157 1    
    69   33  158 1    
    70   34   35 am   BACKBONE|DICT|INTERRES
    71   34  159 1    
    72   35   36 2    
    73   35   37 1    
    74   37   38 1    
    75   37   39 1    
    76   37  160 1    
    77   38  161 1    
    78   38  162 1    
    79   38  163 1    
    80   39   40 am   BACKBONE|DICT|INTERRES
    81   39  164 1    
    82   40   41 2    
    83   40   42 1    
    84   42   43 1    
    85   42   44 1    
    86   42  165 1    
    87   43  166 1    
    88   43  167 1    
    89   43  168 1    
    90   44   45 am   BACKBONE|DICT|INTERRES
    91   44  169 1    
    92   45   46 2    
    93   45   47 1    
    94   47   48 1    
    95   47   49 1    
    96   47  170 1    
    97   48  171 1    
    98   48  172 1    
    99   48  173 1    
   100   49   50 am   BACKBONE|DICT|INTERRES
   101   49  174 1    
   102   50   51 2    
   103   50   52 1    
   104   52   53 1    
   105   52   54 1    
   106   52  175 1    
   107   53  176 1    
   108   53  177 1    
   109   53  178 1    
   110   54   55 am   BACKBONE|DICT|INTERRES
   111   54  179 1    
   112   55   56 2    
   113   55   57 1    
   114   57   58 1    
   115   57   59 1    
   116   57  180 1    
   117   58  181 1    
   118   58  182 1    
   119   58  183 1    
   120   59   60 am   BACKBONE|DICT|INTERRES
   121   59  184 1    
   122   60   61 2    
   123   60   62 1    
   124   62   63 1    
   125   62   64 1    
   126   62  185 1    
   127   63  186 1    
   128   63  187 1    
   129   63  188 1    
   130   64   65 am   BACKBONE|DICT|INTERRES
   131   64  189 1    
   132   65   66 2    
   133   67   68 2    
   134   67   69 am   BACKBONE|DICT|INTERRES
   135   69   70 1    
   136   69  190 1    
   137   70   71 1    
   138   70   72 1    
   139   70  191 1    
   140   71  192 1    
   141   71  193 1    
   142   71  194 1    
   143   72   73 2    
   144   72   74 am   BACKBONE|DICT|INTERRES
   145   74   75 1    
   146   74  195 1    
   147   75   76 1    
   148   75   77 1    
   149   75  196 1    
   150   76  197 1    
   151   76  198 1    
   152   76  199 1    
   153   77   78 2    
   154   77   79 am   BACKBONE|DICT|INTERRES
   155   79   80 1    
   156   79  200 1    
   157   80   81 1    
   158   80   82 1    
   159   80  201 1    
   160   81  202 1    
   161   81  203 1    
   162   81  204 1    
   163   82   83 2    
   164   82   84 am   BACKBONE|DICT|INTERRES
   165   84   85 1    
   166   84  205 1    
   167   85   86 1    
   168   85   87 1    
   169   85  206 1    
   170   86  207 1    
   171   86  208 1    
   172   86  209 1    
   173   87   88 2    
   174   87   89 am   BACKBONE|DICT|INTERRES
   175   89   90 1    
   176   89  210 1    
   177   90   91 1    
   178   90   92 1    
   179   90  211 1    
   180   91  212 1    
   181   91  213 1    
   182   91  214 1    
   183   92   93 2    
   184   92   94 am   BACKBONE|DICT|INTERRES
   185   94   95 1    
   186   94  215 1    
   187   95   96 1    
   188   95   97 1    
   189   95  216 1    
   190   96  217 1    
   191   96  218 1    
   192   96  219 1    
   193   97   98 2    
   194   97   99 am   BACKBONE|DICT|INTERRES
   195   99  100 1    
   196   99  220 1    
   197  100  101 1    
   198  100  102 1    
   199  100  221 1    
   200  101  222 1    
   201  101  223 1    
   202  101  224 1    
   203  102  103 2    
   204  102  104 am   BACKBONE|DICT|INTERRES
   205  104  105 1    
   206  104  225 1    
   207  105  106 1    
   208  105  107 1    
   209  105  226 1    
   210  106  227 1    
   211  106  228 1    
   212  106  229 1    
   213  107  108 2    
   214  107  109 am   BACKBONE|DICT|INTERRES
   215  109  110 1    
   216  109  230 1    
   217  110  111 1    
   218  110  112 1    
   219  110  231 1    
   220  111  232 1    
   221  111  233 1    
   222  111  234 1    
   223  112  113 2    
   224  112  114 am   BACKBONE|DICT|INTERRES
   225  114  115 1    
   226  114  235 1    
   227  115  116 1    
   228  115  117 1    
   229  115  236 1    
   230  116  237 1    
   231  116  238 1    
   232  116  239 1    
   233  117  118 2    
   234  117  119 am   BACKBONE|DICT|INTERRES
   235  119  120 1    
   236  119  240 1    
   237  120  121 1    
   238  120  124 1    
   239  120  241 1    
   240  121  122 am   BACKBONE|DICT|INTERRES
   241  121  123 2    
   242  122  242 1    
   243  122  243 1    
   244  124  125 1    
   245  124  244 1    
   246  124  245 1    
   247  125  126 1    
   248  126  246 1    
   249  126  247 1    
@<TRIPOS>SUBSTRUCTURE
     1 UNK         1 GROUP             0       ****    0 ROOT    
