@<TRIPOS>MOLECULE
3R540
247   249    1
SMALL
USER_CHARGES


@<TRIPOS>ATOM
      1 CA          3.2866  -17.8222  -50.4124 C.3       0 UNK        -0.1800 
      2 C           2.7783  -17.5913  -48.9986 C.2       0 UNK         0.5000 
      3 O           3.4195  -18.0293  -48.0458 O.2       0 UNK        -0.5000 
      4 N           1.6360  -16.9046  -48.8638 N.am      1 UNK        -0.5000 
      5 CA          1.0392  -16.4704  -47.5949 C.3       1 UNK         0.1400 
      6 C6         -0.3260  -15.7745  -47.8201 C.3       23 UNK        -0.0398 
      7 S7         -1.6672  -16.9617  -48.1611 S.3       23 UNK        -0.2404 
      8 C8         -2.0353  -16.6679  -49.9209 C.3       23 UNK        -0.0205 
      9 C9         -1.0582  -17.3766  -50.8474 C.ar      23 UNK        -0.0193 
     10 C10        -0.3118  -16.6535  -51.7837 C.ar      23 UNK        -0.1150 
     11 C11         0.5521  -17.3138  -52.6638 C.ar      23 UNK        -0.0193 
     12 C12         0.6619  -18.7061  -52.6006 C.ar      23 UNK        -0.1150 
     13 C13        -0.0770  -19.4391  -51.6704 C.ar      23 UNK        -0.0193 
     14 C14        -0.9322  -18.7681  -50.7943 C.ar      23 UNK        -0.1150 
     15 C15         0.0107  -20.9564  -51.6529 C.3       23 UNK        -0.0205 
     16 S16         1.6390  -21.5845  -51.1368 S.3       23 UNK        -0.2404 
     17 C17         1.6571  -21.2168  -49.3521 C.3       23 UNK        -0.0398 
     18 CA          1.1155  -22.3916  -48.4883 C.3       11 UNK         0.1400 
     19 N           1.9600  -22.6516  -47.3175 N.am      11 UNK        -0.5000 
     20 C           1.8232  -23.6941  -46.4828 C.2       10 UNK         0.5000 
     21 O           1.0008  -24.5953  -46.6412 O.2       10 UNK        -0.5000 
     22 CA          2.7315  -23.7055  -45.2369 C.3       10 UNK         0.1400 
     23 CB          4.0377  -24.4581  -45.5298 C.3       10 UNK        -0.1800 
     24 N           3.0460  -22.3599  -44.7484 N.am      10 UNK        -0.5000 
     25 C           2.1433  -21.4967  -44.2639 C.2       9 UNK         0.5000 
     26 O           0.9436  -21.7538  -44.1434 O.2       9 UNK        -0.5000 
     27 CA          2.6568  -20.0758  -43.9877 C.3       9 UNK         0.1400 
     28 CB          2.4530  -19.2228  -45.2432 C.3       9 UNK        -0.1800 
     29 N           1.9724  -19.4424  -42.8636 N.am      9 UNK        -0.5000 
     30 C           2.2229  -19.7251  -41.5775 C.2       8 UNK         0.5000 
     31 O           3.0921  -20.5198  -41.2152 O.2       8 UNK        -0.5000 
     32 CA          1.3825  -18.9973  -40.5072 C.3       8 UNK         0.1400 
     33 CB          2.1881  -17.8497  -39.8787 C.3       8 UNK        -0.1800 
     34 N           0.1150  -18.4707  -41.0159 N.am      8 UNK        -0.5000 
     35 C          -0.9230  -19.2338  -41.3868 C.2       7 UNK         0.5000 
     36 O          -0.9388  -20.4587  -41.2625 O.2       7 UNK        -0.5000 
     37 CA         -2.1565  -18.5355  -41.9942 C.3       7 UNK         0.1400 
     38 CB         -3.3120  -18.5219  -40.9810 C.3       7 UNK        -0.1800 
     39 N          -1.9473  -17.1671  -42.4727 N.am      7 UNK        -0.5000 
     40 C          -1.0722  -16.7515  -43.3990 C.2       6 UNK         0.5000 
     41 O          -0.2303  -17.4627  -43.9504 O.2       6 UNK        -0.5000 
     42 CA         -1.1188  -15.2506  -43.7256 C.3       6 UNK         0.1400 
     43 CB         -2.3839  -14.9242  -44.5355 C.3       6 UNK        -0.1800 
     44 N          -1.0247  -14.3322  -42.5846 N.am      6 UNK        -0.5000 
     45 C          -0.3292  -14.4630  -41.4415 C.2       5 UNK         0.5000 
     46 O           0.2199  -15.5024  -41.0749 O.2       5 UNK        -0.5000 
     47 CA         -0.2132  -13.1952  -40.5732 C.3       5 UNK         0.1400 
     48 CB          0.9937  -13.2504  -39.6189 C.3       5 UNK        -0.1800 
     49 N          -0.0810  -12.0123  -41.4242 N.am      5 UNK        -0.5000 
     50 C          -1.0337  -11.0979  -41.6457 C.2       4 UNK         0.5000 
     51 O          -2.1440  -11.1303  -41.1146 O.2       4 UNK        -0.5000 
     52 CA         -0.7087   -9.9630  -42.6391 C.3       4 UNK         0.1400 
     53 CB         -0.3940   -8.6631  -41.8826 C.3       4 UNK        -0.1800 
     54 N           0.4057  -10.2634  -43.5417 N.am      4 UNK        -0.5000 
     55 C           0.3795  -11.1679  -44.5299 C.2       3 UNK         0.5000 
     56 O          -0.6106  -11.8492  -44.7997 O.2       3 UNK        -0.5000 
     57 CA          1.6735  -11.3617  -45.3511 C.3       3 UNK         0.1400 
     58 CB          2.8309  -10.4214  -44.9446 C.3       3 UNK        -0.1800 
     59 N           2.1318  -12.7539  -45.3378 N.am      3 UNK        -0.5000 
     60 C           2.4010  -13.5157  -44.2690 C.2       2 UNK         0.5000 
     61 O           2.2738  -13.1229  -43.1074 O.2       2 UNK        -0.5000 
     62 CA          2.8967  -14.9532  -44.5573 C.3       2 UNK         0.1400 
     63 CB          3.0672  -15.7908  -43.2764 C.3       2 UNK        -0.1800 
     64 N           2.0398  -15.6969  -45.4884 N.am      2 UNK        -0.5000 
     65 C           1.9893  -15.5327  -46.8172 C.2       1 UNK         0.5000 
     66 O           2.6220  -14.6623  -47.4207 O.2       1 UNK        -0.5000 
     67 C          -0.3475  -22.1444  -48.0695 C.2       11 UNK         0.5000 
     68 O          -1.2632  -22.7425  -48.6347 O.2       11 UNK        -0.5000 
     69 N          -0.5294  -21.2917  -47.0513 N.am      12 UNK        -0.5000 
     70 CA         -1.8255  -20.9531  -46.4697 C.3       12 UNK         0.1400 
     71 CB         -1.6657  -19.7518  -45.5352 C.3       12 UNK        -0.1800 
     72 C          -2.4578  -22.1418  -45.7296 C.2       12 UNK         0.5000 
     73 O          -3.6544  -22.3802  -45.8916 O.2       12 UNK        -0.5000 
     74 N          -1.6350  -22.8967  -44.9855 N.am      13 UNK        -0.5000 
     75 CA         -2.0214  -24.1198  -44.2745 C.3       13 UNK         0.1400 
     76 CB         -0.8408  -24.6105  -43.4249 C.3       13 UNK        -0.1800 
     77 C          -2.5257  -25.2443  -45.2027 C.2       13 UNK         0.5000 
     78 O          -3.3623  -26.0438  -44.7837 O.2       13 UNK        -0.5000 
     79 N          -2.0644  -25.2496  -46.4611 N.am      14 UNK        -0.5000 
     80 CA         -2.5391  -26.1098  -47.5484 C.3       14 UNK         0.1400 
     81 CB         -1.3904  -26.3111  -48.5533 C.3       14 UNK        -0.1800 
     82 C          -3.8148  -25.5635  -48.2337 C.2       14 UNK         0.5000 
     83 O          -4.0517  -25.8620  -49.4057 O.2       14 UNK        -0.5000 
     84 N          -4.6004  -24.7500  -47.5115 N.am      15 UNK        -0.5000 
     85 CA         -5.8178  -24.0561  -47.9426 C.3       15 UNK         0.1400 
     86 CB         -6.9448  -25.0640  -48.2524 C.3       15 UNK        -0.1800 
     87 C          -5.5431  -23.0808  -49.1024 C.2       15 UNK         0.5000 
     88 O          -6.2881  -23.0610  -50.0810 O.2       15 UNK        -0.5000 
     89 N          -4.4412  -22.3256  -48.9868 N.am      16 UNK        -0.5000 
     90 CA         -3.8733  -21.4389  -50.0102 C.3       16 UNK         0.1400 
     91 CB         -4.7899  -20.2273  -50.2628 C.3       16 UNK        -0.1800 
     92 C          -3.4994  -22.2054  -51.2975 C.2       16 UNK         0.5000 
     93 O          -3.7886  -21.7452  -52.4038 O.2       16 UNK        -0.5000 
     94 N          -2.8809  -23.3800  -51.1041 N.am      17 UNK        -0.5000 
     95 CA         -2.5487  -24.4006  -52.1028 C.3       17 UNK         0.1400 
     96 CB         -1.3841  -23.9368  -52.9978 C.3       17 UNK        -0.1800 
     97 C          -3.7891  -24.8540  -52.8983 C.2       17 UNK         0.5000 
     98 O          -3.8108  -24.7589  -54.1261 O.2       17 UNK        -0.5000 
     99 N          -4.8106  -25.3094  -52.1591 N.am      18 UNK        -0.5000 
    100 CA        -6.1314  -25.7306  -52.6385 C.3       18 UNK         0.1400 
    101 CB        -6.0246  -27.0377  -53.4514 C.3       18 UNK        -0.1800 
    102 C         -6.8768  -24.6044  -53.3884 C.2       18 UNK         0.5000 
    103 O         -7.3571  -24.8062  -54.5055 O.2       18 UNK        -0.5000 
    104 N         -6.9497  -23.4343  -52.7397 N.am      19 UNK        -0.5000 
    105 CA        -7.6099  -22.2002  -53.1721 C.3       19 UNK         0.1400 
    106 CB        -9.1376  -22.4004  -53.2576 C.3       19 UNK        -0.1800 
    107 C         -7.0094  -21.5748  -54.4487 C.2       19 UNK         0.5000 
    108 O         -7.7274  -20.9106  -55.1989 O.2       19 UNK        -0.5000 
    109 N         -5.7032  -21.7739  -54.6693 N.am      20 UNK        -0.5000 
    110 CA        -4.9499  -21.1382  -55.7479 C.3       20 UNK         0.1400 
    111 CB        -3.6762  -21.9453  -56.0410 C.3       20 UNK        -0.1800 
    112 C         -4.6126  -19.6825  -55.3891 C.2       20 UNK         0.5000 
    113 O         -4.9075  -18.7789  -56.1722 O.2       20 UNK        -0.5000 
    114 N         -4.0118  -19.4913  -54.2034 N.am      21 UNK        -0.5000 
    115 CA        -3.6875  -18.2136  -53.5518 C.3       21 UNK         0.1400 
    116 CB        -4.9848  -17.5705  -53.0188 C.3       21 UNK        -0.1800 
    117 C         -2.8646  -17.2188  -54.4057 C.2       21 UNK         0.5000 
    118 O         -2.9601  -16.0099  -54.1855 O.2       21 UNK        -0.5000 
    119 N         -2.1019  -17.7337  -55.3812 N.am      22 UNK        -0.5000 
    120 CA        -1.4247  -16.9649  -56.4433 C.3       22 UNK         0.1400 
    121 C         -2.3921  -16.1948  -57.4011 C.2       22 UNK         0.5000 
    122 N         -3.6658  -16.5581  -57.4964 N.am      22 UNK        -0.7600 
    123 O         -1.9820  -15.2734  -58.1026 O.2       22 UNK        -0.5000 
    124 C124       -0.2614  -16.0769  -55.9125 C.3       23 UNK        -0.0398 
    125 S125        1.1725  -17.0664  -55.3750 S.3       23 UNK        -0.2404 
    126 C126        1.4048  -16.5276  -53.6506 C.3       23 UNK        -0.0205 
    127 H127        2.9392  -17.0400  -51.0852 H         1 UNK         0.0600 
    128 H128        2.9440  -18.7859  -50.7868 H         1 UNK         0.0600 
    129 H129        4.3764  -17.8167  -50.4299 H         1 UNK         0.0600 
    130 H130        1.1496  -16.6032  -49.6954 H         1 UNK         0.3000 
    131 H131        0.8798  -17.3628  -46.9878 H         1 UNK         0.0600 
    132 H132       -0.6315  -15.2199  -46.9316 H         1 UNK         0.0800 
    133 H133       -0.2591  -15.0339  -48.6188 H         1 UNK         0.0800 
    134 H134       -3.0381  -17.0429  -50.1300 H         1 UNK         0.0800 
    135 H135       -2.0665  -15.5955  -50.1189 H         1 UNK         0.0800 
    136 H136       -0.4080  -15.5778  -51.8328 H         1 UNK         0.1150 
    137 H137        1.3277  -19.2225  -53.2780 H         1 UNK         0.1150 
    138 H138       -1.5122  -19.3244  -50.0735 H         1 UNK         0.1150 
    139 H139       -0.7548  -21.3860  -51.0094 H         1 UNK         0.0800 
    140 H140       -0.1961  -21.3167  -52.6604 H         1 UNK         0.0800 
    141 H141        1.1410  -20.2739  -49.1600 H         1 UNK         0.0800 
    142 H142        2.7010  -21.0173  -49.1056 H         1 UNK         0.0800 
    143 H143        1.1283  -23.3086  -49.0821 H         1 UNK         0.0600 
    144 H144        2.6775  -21.9728  -47.1131 H         1 UNK         0.3000 
    145 H145        2.2042  -24.2361  -44.4425 H         1 UNK         0.0600 
    146 H146        3.8340  -25.4732  -45.8735 H         1 UNK         0.0600 
    147 H147        4.6257  -23.9617  -46.3028 H         1 UNK         0.0600 
    148 H148        4.6562  -24.5377  -44.6356 H         1 UNK         0.0600 
    149 H149        4.0104  -22.0698  -44.8256 H         1 UNK         0.3000 
    150 H150        3.7260  -20.1211  -43.7696 H         1 UNK         0.0600 
    151 H151        2.9413  -18.2557  -45.1455 H         1 UNK         0.0600 
    152 H152        1.3959  -19.0570  -45.4487 H         1 UNK         0.0600 
    153 H153        2.8853  -19.7079  -46.1184 H         1 UNK         0.0600 
    154 H154        1.2087  -18.8148  -43.0872 H         1 UNK         0.3000 
    155 H155        1.1573  -19.7213  -39.7214 H         1 UNK         0.0600 
    156 H156        2.4589  -17.0962  -40.6184 H         1 UNK         0.0600 
    157 H157        3.1127  -18.2186  -39.4329 H         1 UNK         0.0600 
    158 H158        1.6213  -17.3542  -39.0902 H         1 UNK         0.0600 
    159 H159        0.0569  -17.4625  -41.1350 H         1 UNK         0.3000 
    160 H160       -2.4700  -19.1355  -42.8480 H         1 UNK         0.0600 
    161 H161       -3.5330  -19.5283  -40.6225 H         1 UNK         0.0600 
    162 H162       -4.2265  -18.1322  -41.4287 H         1 UNK         0.0600 
    163 H163       -3.0742  -17.9084  -40.1111 H         1 UNK         0.0600 
    164 H164       -2.5439  -16.4661  -42.0589 H         1 UNK         0.3000 
    165 H165       -0.2624  -15.0309  -44.3595 H         1 UNK         0.0600 
    166 H166       -2.3354  -13.9215  -44.9595 H         1 UNK         0.0600 
    167 H167       -2.5132  -15.6189  -45.3667 H         1 UNK         0.0600 
    168 H168       -3.2825  -14.9821  -43.9203 H         1 UNK         0.0600 
    169 H169       -1.4101  -13.4150  -42.7589 H         1 UNK         0.3000 
    170 H170       -1.1197  -13.1374  -39.9679 H         1 UNK         0.0600 
    171 H171        1.0667  -12.3406  -39.0229 H         1 UNK         0.0600 
    172 H172        0.9087  -14.0867  -38.9238 H         1 UNK         0.0600 
    173 H173        1.9302  -13.3698  -40.1657 H         1 UNK         0.0600 
    174 H174        0.7785  -11.9604  -41.9596 H         1 UNK         0.3000 
    175 H175       -1.6010   -9.7972  -43.2464 H         1 UNK         0.0600 
    176 H176        0.5011   -8.7625  -41.2673 H         1 UNK         0.0600 
    177 H177       -0.2386   -7.8326  -42.5717 H         1 UNK         0.0600 
    178 H178       -1.2168   -8.3851  -41.2225 H         1 UNK         0.0600 
    179 H179        1.2646   -9.7585  -43.3780 H         1 UNK         0.3000 
    180 H180        1.4108  -11.1341  -46.3851 H         1 UNK         0.0600 
    181 H181        3.6955  -10.5709  -45.5914 H         1 UNK         0.0600 
    182 H182        3.1582  -10.5903  -43.9180 H         1 UNK         0.0600 
    183 H183        2.5434   -9.3735  -45.0393 H         1 UNK         0.0600 
    184 H184        2.2581  -13.1881  -46.2478 H         1 UNK         0.3000 
    185 H185        3.8848  -14.8503  -45.0105 H         1 UNK         0.0600 
    186 H186        2.1053  -16.0215  -42.8208 H         1 UNK         0.0600 
    187 H187        3.5721  -16.7337  -43.4824 H         1 UNK         0.0600 
    188 H188        3.6685  -15.2669  -42.5323 H         1 UNK         0.0600 
    189 H189        1.4607  -16.4121  -45.0663 H         1 UNK         0.3000 
    190 H190        0.2795  -20.8941  -46.5994 H         1 UNK         0.3000 
    191 H191       -2.4949  -20.6591  -47.2798 H         1 UNK         0.0600 
    192 H192       -1.0636  -19.9973  -44.6598 H         1 UNK         0.0600 
    193 H193       -2.6372  -19.4009  -45.1866 H         1 UNK         0.0600 
    194 H194       -1.1847  -18.9176  -46.0432 H         1 UNK         0.0600 
    195 H195       -0.6753  -22.5868  -44.8598 H         1 UNK         0.3000 
    196 H196       -2.8398  -23.8591  -43.6006 H         1 UNK         0.0600 
    197 H197       -1.1313  -25.4635  -42.8104 H         1 UNK         0.0600 
    198 H198       -0.4843  -23.8301  -42.7520 H         1 UNK         0.0600 
    199 H199       -0.0055  -24.9271  -44.0483 H         1 UNK         0.0600 
    200 H200       -1.3538  -24.5729  -46.7100 H         1 UNK         0.3000 
    201 H201       -2.7959  -27.0879  -47.1373 H         1 UNK         0.0600 
    202 H202       -0.5019  -26.7063  -48.0603 H         1 UNK         0.0600 
    203 H203       -1.1114  -25.3769  -49.0407 H         1 UNK         0.0600 
    204 H204       -1.6672  -27.0203  -49.3343 H         1 UNK         0.0600 
    205 H205       -4.2930  -24.5226  -46.5752 H         1 UNK         0.3000 
    206 H206       -6.1415  -23.4453  -47.0987 H         1 UNK         0.0600 
    207 H207       -7.8828  -24.5479  -48.4602 H         1 UNK         0.0600 
    208 H208       -6.7137  -25.6811  -49.1209 H         1 UNK         0.0600 
    209 H209       -7.1214  -25.7287  -47.4069 H         1 UNK         0.0600 
    210 H210       -3.8929  -22.4384  -48.1435 H         1 UNK         0.3000 
    211 H211       -2.9420  -21.0522  -49.6023 H         1 UNK         0.0600 
    212 H212       -5.7056  -20.5073  -50.7839 H         1 UNK         0.0600 
    213 H213       -4.2766  -19.4838  -50.8702 H         1 UNK         0.0600 
    214 H214       -5.0688  -19.7410  -49.3282 H         1 UNK         0.0600 
    215 H215       -2.6599  -23.6234  -50.1467 H         1 UNK         0.3000 
    216 H216       -2.2046  -25.2757  -51.5497 H         1 UNK         0.0600 
    217 H217       -1.1213  -24.7041  -53.7268 H         1 UNK         0.0600 
    218 H218       -0.4918  -23.7409  -52.4041 H         1 UNK         0.0600 
    219 H219       -1.6323  -23.0318  -53.5508 H         1 UNK         0.0600 
    220 H220       -4.6698  -25.3670  -51.1529 H         1 UNK         0.3000 
    221 H221       -6.7231  -25.9468  -51.7479 H         1 UNK         0.0600 
    222 H222       -5.4705  -26.8958  -54.3796 H         1 UNK         0.0600 
    223 H223       -5.5240  -27.8177  -52.8778 H         1 UNK         0.0600 
    224 H224       -7.0135  -27.4138  -53.7157 H         1 UNK         0.0600 
    225 H225       -6.5428  -23.3814  -51.8058 H         1 UNK         0.3000 
    226 H226       -7.4236  -21.4767  -52.3774 H         1 UNK         0.0600 
    227 H227       -9.5317  -22.8221  -52.3329 H         1 UNK         0.0600 
    228 H228       -9.6492  -21.4514  -53.4221 H         1 UNK         0.0600 
    229 H229       -9.4136  -23.0664  -54.0755 H         1 UNK         0.0600 
    230 H230       -5.1654  -22.2873  -53.9807 H         1 UNK         0.3000 
    231 H231       -5.5589  -21.1334  -56.6545 H         1 UNK         0.0600 
    232 H232       -3.0298  -22.0145  -55.1663 H         1 UNK         0.0600 
    233 H233       -3.9199  -22.9609  -56.3536 H         1 UNK         0.0600 
    234 H234       -3.0980  -21.4867  -56.8439 H         1 UNK         0.0600 
    235 H235       -3.8359  -20.3182  -53.6359 H         1 UNK         0.3000 
    236 H236       -3.0608  -18.4650  -52.6971 H         1 UNK         0.0600 
    237 H237       -5.6075  -17.1968  -53.8325 H         1 UNK         0.0600 
    238 H238       -5.5811  -18.2826  -52.4492 H         1 UNK         0.0600 
    239 H239       -4.7654  -16.7304  -52.3589 H         1 UNK         0.0600 
    240 H240       -2.0829  -18.7370  -55.4853 H         1 UNK         0.3000 
    241 H241       -0.9782  -17.7162  -57.0954 H         1 UNK         0.0600 
    242 H242       -4.2733  -16.0602  -58.1271 H         1 UNK         0.3800 
    243 H243       -4.0391  -17.3336  -56.9529 H         1 UNK         0.3800 
    244 H244        0.1145  -15.4137  -56.6927 H         1 UNK         0.0800 
    245 H245       -0.6010  -15.4229  -55.1094 H         1 UNK         0.0800 
    246 H246        2.4535  -16.6747  -53.3913 H         1 UNK         0.0800 
    247 H247        1.2214  -15.4552  -53.5690 H         1 UNK         0.0800 
@<TRIPOS>BOND
     1    1    2 1    
     2    1  127 1    
     3    1  128 1    
     4    1  129 1    
     5    2    3 2    
     6    2    4 am   BACKBONE|DICT|INTERRES
     7    4    5 1    
     8    4  130 1    
     9    5    6 1    
    10    5   65 1    
    11    5  131 1    
    12    6    7 1    
    13    6  132 1    
    14    6  133 1    
    15    7    8 1    
    16    8    9 1    
    17    8  134 1    
    18    8  135 1    
    19    9   10 ar   
    20    9   14 ar   
    21   10   11 ar   
    22   10  136 1    
    23   11   12 ar   
    24   11  126 1    
    25   12   13 ar   
    26   12  137 1    
    27   13   14 ar   
    28   13   15 1    
    29   14  138 1    
    30   15   16 1    
    31   15  139 1    
    32   15  140 1    
    33   16   17 1    
    34   17   18 1    
    35   17  141 1    
    36   17  142 1    
    37   18   19 1    
    38   18   67 1    
    39   18  143 1    
    40   19   20 am   BACKBONE|DICT|INTERRES
    41   19  144 1    
    42   20   21 2    
    43   20   22 1    
    44   22   23 1    
    45   22   24 1    
    46   22  145 1    
    47   23  146 1    
    48   23  147 1    
    49   23  148 1    
    50   24   25 am   BACKBONE|DICT|INTERRES
    51   24  149 1    
    52   25   26 2    
    53   25   27 1    
    54   27   28 1    
    55   27   29 1    
    56   27  150 1    
    57   28  151 1    
    58   28  152 1    
    59   28  153 1    
    60   29   30 am   BACKBONE|DICT|INTERRES
    61   29  154 1    
    62   30   31 2    
    63   30   32 1    
    64   32   33 1    
    65   32   34 1    
    66   32  155 1    
    67   33  156 1    
    68   33  157 1    
    69   33  158 1    
    70   34   35 am   BACKBONE|DICT|INTERRES
    71   34  159 1    
    72   35   36 2    
    73   35   37 1    
    74   37   38 1    
    75   37   39 1    
    76   37  160 1    
    77   38  161 1    
    78   38  162 1    
    79   38  163 1    
    80   39   40 am   BACKBONE|DICT|INTERRES
    81   39  164 1    
    82   40   41 2    
    83   40   42 1    
    84   42   43 1    
    85   42   44 1    
    86   42  165 1    
    87   43  166 1    
    88   43  167 1    
    89   43  168 1    
    90   44   45 am   BACKBONE|DICT|INTERRES
    91   44  169 1    
    92   45   46 2    
    93   45   47 1    
    94   47   48 1    
    95   47   49 1    
    96   47  170 1    
    97   48  171 1    
    98   48  172 1    
    99   48  173 1    
   100   49   50 am   BACKBONE|DICT|INTERRES
   101   49  174 1    
   102   50   51 2    
   103   50   52 1    
   104   52   53 1    
   105   52   54 1    
   106   52  175 1    
   107   53  176 1    
   108   53  177 1    
   109   53  178 1    
   110   54   55 am   BACKBONE|DICT|INTERRES
   111   54  179 1    
   112   55   56 2    
   113   55   57 1    
   114   57   58 1    
   115   57   59 1    
   116   57  180 1    
   117   58  181 1    
   118   58  182 1    
   119   58  183 1    
   120   59   60 am   BACKBONE|DICT|INTERRES
   121   59  184 1    
   122   60   61 2    
   123   60   62 1    
   124   62   63 1    
   125   62   64 1    
   126   62  185 1    
   127   63  186 1    
   128   63  187 1    
   129   63  188 1    
   130   64   65 am   BACKBONE|DICT|INTERRES
   131   64  189 1    
   132   65   66 2    
   133   67   68 2    
   134   67   69 am   BACKBONE|DICT|INTERRES
   135   69   70 1    
   136   69  190 1    
   137   70   71 1    
   138   70   72 1    
   139   70  191 1    
   140   71  192 1    
   141   71  193 1    
   142   71  194 1    
   143   72   73 2    
   144   72   74 am   BACKBONE|DICT|INTERRES
   145   74   75 1    
   146   74  195 1    
   147   75   76 1    
   148   75   77 1    
   149   75  196 1    
   150   76  197 1    
   151   76  198 1    
   152   76  199 1    
   153   77   78 2    
   154   77   79 am   BACKBONE|DICT|INTERRES
   155   79   80 1    
   156   79  200 1    
   157   80   81 1    
   158   80   82 1    
   159   80  201 1    
   160   81  202 1    
   161   81  203 1    
   162   81  204 1    
   163   82   83 2    
   164   82   84 am   BACKBONE|DICT|INTERRES
   165   84   85 1    
   166   84  205 1    
   167   85   86 1    
   168   85   87 1    
   169   85  206 1    
   170   86  207 1    
   171   86  208 1    
   172   86  209 1    
   173   87   88 2    
   174   87   89 am   BACKBONE|DICT|INTERRES
   175   89   90 1    
   176   89  210 1    
   177   90   91 1    
   178   90   92 1    
   179   90  211 1    
   180   91  212 1    
   181   91  213 1    
   182   91  214 1    
   183   92   93 2    
   184   92   94 am   BACKBONE|DICT|INTERRES
   185   94   95 1    
   186   94  215 1    
   187   95   96 1    
   188   95   97 1    
   189   95  216 1    
   190   96  217 1    
   191   96  218 1    
   192   96  219 1    
   193   97   98 2    
   194   97   99 am   BACKBONE|DICT|INTERRES
   195   99  100 1    
   196   99  220 1    
   197  100  101 1    
   198  100  102 1    
   199  100  221 1    
   200  101  222 1    
   201  101  223 1    
   202  101  224 1    
   203  102  103 2    
   204  102  104 am   BACKBONE|DICT|INTERRES
   205  104  105 1    
   206  104  225 1    
   207  105  106 1    
   208  105  107 1    
   209  105  226 1    
   210  106  227 1    
   211  106  228 1    
   212  106  229 1    
   213  107  108 2    
   214  107  109 am   BACKBONE|DICT|INTERRES
   215  109  110 1    
   216  109  230 1    
   217  110  111 1    
   218  110  112 1    
   219  110  231 1    
   220  111  232 1    
   221  111  233 1    
   222  111  234 1    
   223  112  113 2    
   224  112  114 am   BACKBONE|DICT|INTERRES
   225  114  115 1    
   226  114  235 1    
   227  115  116 1    
   228  115  117 1    
   229  115  236 1    
   230  116  237 1    
   231  116  238 1    
   232  116  239 1    
   233  117  118 2    
   234  117  119 am   BACKBONE|DICT|INTERRES
   235  119  120 1    
   236  119  240 1    
   237  120  121 1    
   238  120  124 1    
   239  120  241 1    
   240  121  122 am   BACKBONE|DICT|INTERRES
   241  121  123 2    
   242  122  242 1    
   243  122  243 1    
   244  124  125 1    
   245  124  244 1    
   246  124  245 1    
   247  125  126 1    
   248  126  246 1    
   249  126  247 1    
@<TRIPOS>SUBSTRUCTURE
     1 UNK         1 GROUP             0       ****    0 ROOT    
