@<TRIPOS>MOLECULE
3R540
247   249    1
SMALL
USER_CHARGES


@<TRIPOS>ATOM
      1 CA          0.3187  -16.1112  -50.9642 C.3       0 UNK        -0.1800 
      2 C          -0.5162  -15.9657  -49.7000 C.2       0 UNK         0.5000 
      3 O          -1.5994  -15.3843  -49.7483 O.2       0 UNK        -0.5000 
      4 N          -0.0129  -16.4955  -48.5765 N.am      1 UNK        -0.5000 
      5 CA         -0.6401  -16.4749  -47.2454 C.3       1 UNK         0.1400 
      6 C6         -1.9471  -17.3103  -47.1438 C.3       23 UNK        -0.0398 
      7 S7         -1.6627  -19.0671  -47.5463 S.3       23 UNK        -0.2404 
      8 C8         -2.4284  -19.1936  -49.1882 C.3       23 UNK        -0.0205 
      9 C9         -3.8765  -19.6325  -49.1058 C.ar      23 UNK        -0.0193 
     10 C10        -4.9102  -18.7144  -49.2903 C.ar      23 UNK        -0.1150 
     11 C11        -6.2435  -19.1385  -49.2866 C.ar      23 UNK        -0.0193 
     12 C12        -6.5334  -20.4822  -49.0242 C.ar      23 UNK        -0.1150 
     13 C13        -5.5056  -21.4078  -48.8154 C.ar      23 UNK        -0.0193 
     14 C14        -4.1786  -20.9771  -48.8874 C.ar      23 UNK        -0.1150 
     15 C15        -5.8302  -22.8770  -48.5741 C.3       23 UNK        -0.0205 
     16 S16        -5.4486  -23.4110  -46.8721 S.3       23 UNK        -0.2404 
     17 C17        -3.6750  -23.8381  -46.9857 C.3       23 UNK        -0.0398 
     18 CA         -2.7721  -22.8699  -46.1800 C.3       11 UNK         0.1400 
     19 N          -3.0591  -22.9412  -44.7398 N.am      11 UNK        -0.5000 
     20 C          -2.7493  -21.9833  -43.8591 C.2       10 UNK         0.5000 
     21 O          -2.2466  -20.9079  -44.1898 O.2       10 UNK        -0.5000 
     22 CA         -3.0144  -22.2993  -42.3740 C.3       10 UNK         0.1400 
     23 CB         -2.3668  -23.6294  -41.9444 C.3       10 UNK        -0.1800 
     24 N          -2.4452  -21.2311  -41.5640 N.am      10 UNK        -0.5000 
     25 C          -3.0630  -20.5474  -40.5937 C.2       9 UNK         0.5000 
     26 O          -4.1767  -20.8366  -40.1542 O.2       9 UNK        -0.5000 
     27 CA         -2.3166  -19.3184  -40.0255 C.3       9 UNK         0.1400 
     28 CB         -1.6764  -19.6546  -38.6701 C.3       9 UNK        -0.1800 
     29 N          -1.2737  -18.8224  -40.9265 N.am      9 UNK        -0.5000 
     30 C          -1.4989  -18.2771  -42.1310 C.2       8 UNK         0.5000 
     31 O          -2.6152  -17.9249  -42.5135 O.2       8 UNK        -0.5000 
     32 CA         -0.2923  -18.1325  -43.0812 C.3       8 UNK         0.1400 
     33 CB         -0.0619  -16.6612  -43.4483 C.3       8 UNK        -0.1800 
     34 N           0.9570  -18.7031  -42.5630 N.am      8 UNK        -0.5000 
     35 C           1.2211  -20.0138  -42.4331 C.2       7 UNK         0.5000 
     36 O           0.4202  -20.8996  -42.7275 O.2       7 UNK        -0.5000 
     37 CA          2.5942  -20.4146  -41.8575 C.3       7 UNK         0.1400 
     38 CB          3.5083  -20.9679  -42.9617 C.3       7 UNK        -0.1800 
     39 N           3.2923  -19.3251  -41.1741 N.am      7 UNK        -0.5000 
     40 C           2.9270  -18.7809  -40.0047 C.2       6 UNK         0.5000 
     41 O           1.9457  -19.1476  -39.3574 O.2       6 UNK        -0.5000 
     42 CA          3.7890  -17.6064  -39.5000 C.3       6 UNK         0.1400 
     43 CB          4.9043  -18.1153  -38.5745 C.3       6 UNK        -0.1800 
     44 N           4.3847  -16.8298  -40.5941 N.am      6 UNK        -0.5000 
     45 C           3.6801  -16.0549  -41.4286 C.2       5 UNK         0.5000 
     46 O           2.4618  -15.8973  -41.3407 O.2       5 UNK        -0.5000 
     47 CA          4.4491  -15.3981  -42.5849 C.3       5 UNK         0.1400 
     48 CB          4.1823  -16.1499  -43.8995 C.3       5 UNK        -0.1800 
     49 N           4.0328  -14.0064  -42.7338 N.am      5 UNK        -0.5000 
     50 C           4.5732  -12.9835  -42.0557 C.2       4 UNK         0.5000 
     51 O           5.5361  -13.1052  -41.2967 O.2       4 UNK        -0.5000 
     52 CA          3.9451  -11.5870  -42.2481 C.3       4 UNK         0.1400 
     53 CB          4.7174  -10.7932  -43.3132 C.3       4 UNK        -0.1800 
     54 N           2.5337  -11.6344  -42.6267 N.am      4 UNK        -0.5000 
     55 C           1.5388  -12.0555  -41.8346 C.2       3 UNK         0.5000 
     56 O           1.6903  -12.3326  -40.6442 O.2       3 UNK        -0.5000 
     57 CA          0.1392  -12.1978  -42.4714 C.3       3 UNK         0.1400 
     58 CB         -0.8053  -11.1067  -41.9423 C.3       3 UNK        -0.1800 
     59 N           0.1046  -12.1748  -43.9404 N.am      3 UNK        -0.5000 
     60 C           0.6989  -13.0608  -44.7497 C.2       2 UNK         0.5000 
     61 O           1.4711  -13.9380  -44.3578 O.2       2 UNK        -0.5000 
     62 CA          0.4192  -12.9167  -46.2558 C.3       2 UNK         0.1400 
     63 CB          1.5680  -12.1653  -46.9453 C.3       2 UNK        -0.1800 
     64 N           0.2697  -14.2324  -46.8741 N.am      2 UNK        -0.5000 
     65 C          -0.7851  -15.0394  -46.6927 C.2       1 UNK         0.5000 
     66 O          -1.8138  -14.6925  -46.1092 O.2       1 UNK        -0.5000 
     67 C          -1.2791  -23.1277  -46.5056 C.2       11 UNK         0.5000 
     68 O          -0.8821  -23.0017  -47.6633 O.2       11 UNK        -0.5000 
     69 N          -0.4817  -23.5047  -45.4952 N.am      12 UNK        -0.5000 
     70 CA          0.9145  -23.9342  -45.5953 C.3       12 UNK         0.1400 
     71 CB          1.3871  -24.3721  -44.2000 C.3       12 UNK        -0.1800 
     72 C           1.8893  -22.8992  -46.1913 C.2       12 UNK         0.5000 
     73 O           2.9329  -23.2968  -46.7105 O.2       12 UNK        -0.5000 
     74 N           1.5507  -21.6048  -46.1105 N.am      13 UNK        -0.5000 
     75 CA          2.3601  -20.5120  -46.6548 C.3       13 UNK         0.1400 
     76 CB          1.8805  -19.1723  -46.0771 C.3       13 UNK        -0.1800 
     77 C           2.4133  -20.4678  -48.1960 C.2       13 UNK         0.5000 
     78 O           3.3940  -19.9529  -48.7350 O.2       13 UNK        -0.5000 
     79 N           1.3956  -21.0073  -48.8811 N.am      14 UNK        -0.5000 
     80 CA          1.3503  -21.1155  -50.3374 C.3       14 UNK         0.1400 
     81 CB          1.0398  -19.7516  -50.9862 C.3       14 UNK        -0.1800 
     82 C           0.3408  -22.2098  -50.7124 C.2       14 UNK         0.5000 
     83 O          -0.8669  -21.9656  -50.7183 O.2       14 UNK        -0.5000 
     84 N           0.8611  -23.4143  -50.9746 N.am      15 UNK        -0.5000 
     85 CA          0.1002  -24.6377  -51.2325 C.3       15 UNK         0.1400 
     86 CB          1.0931  -25.7895  -51.4554 C.3       15 UNK        -0.1800 
     87 C          -0.8875  -24.5475  -52.4144 C.2       15 UNK         0.5000 
     88 O          -0.7042  -23.7393  -53.3300 O.2       15 UNK        -0.5000 
     89 N          -1.9109  -25.4132  -52.3652 N.am      16 UNK        -0.5000 
     90 CA         -2.9831  -25.5724  -53.3545 C.3       16 UNK         0.1400 
     91 CB         -2.4224  -26.1428  -54.6750 C.3       16 UNK        -0.1800 
     92 C          -3.8032  -24.2825  -53.5572 C.2       16 UNK         0.5000 
     93 O          -4.1142  -23.9250  -54.6925 O.2       16 UNK        -0.5000 
     94 N          -4.1099  -23.5934  -52.4475 N.am      17 UNK        -0.5000 
     95 CA         -4.8125  -22.3057  -52.3848 C.3       17 UNK         0.1400 
     96 CB         -6.2845  -22.4581  -52.8235 C.3       17 UNK        -0.1800 
     97 C          -4.0614  -21.1943  -53.1430 C.2       17 UNK         0.5000 
     98 O          -4.6600  -20.4830  -53.9524 O.2       17 UNK        -0.5000 
     99 N          -2.7472  -21.1051  -52.8876 N.am      18 UNK        -0.5000 
    100 CA        -1.7762  -20.2423  -53.5629 C.3       18 UNK         0.1400 
    101 CB        -2.0266  -18.7602  -53.2136 C.3       18 UNK        -0.1800 
    102 C         -1.7150  -20.5143  -55.0786 C.2       18 UNK         0.5000 
    103 O         -1.8059  -19.5829  -55.8780 O.2       18 UNK        -0.5000 
    104 N         -1.6055  -21.8015  -55.4425 N.am      19 UNK        -0.5000 
    105 CA        -1.6701  -22.3308  -56.8114 C.3       19 UNK         0.1400 
    106 CB        -0.3995  -21.9530  -57.6001 C.3       19 UNK        -0.1800 
    107 C         -2.9775  -21.9269  -57.5313 C.2       19 UNK         0.5000 
    108 O         -2.9482  -21.4165  -58.6523 O.2       19 UNK        -0.5000 
    109 N         -4.0980  -22.1375  -56.8293 N.am      20 UNK        -0.5000 
    110 CA        -5.4875  -21.8333  -57.1788 C.3       20 UNK         0.1400 
    111 CB        -5.9100  -22.5699  -58.4661 C.3       20 UNK        -0.1800 
    112 C         -5.8491  -20.3336  -57.2282 C.2       20 UNK         0.5000 
    113 O         -7.0122  -20.0194  -57.4892 O.2       20 UNK        -0.5000 
    114 N         -4.9005  -19.4259  -56.9499 N.am      21 UNK        -0.5000 
    115 CA        -5.1138  -17.9745  -56.9756 C.3       21 UNK         0.1400 
    116 CB        -3.7686  -17.2473  -56.8419 C.3       21 UNK        -0.1800 
    117 C         -6.1032  -17.4731  -55.9059 C.2       21 UNK         0.5000 
    118 O         -6.7854  -16.4744  -56.1400 O.2       21 UNK        -0.5000 
    119 N         -6.1815  -18.1803  -54.7720 N.am      22 UNK        -0.5000 
    120 CA        -7.1551  -17.9418  -53.6960 C.3       22 UNK         0.1400 
    121 C         -8.5195  -18.6669  -53.9107 C.2       22 UNK         0.5000 
    122 N         -8.7356  -19.3859  -55.0075 N.am      22 UNK        -0.7600 
    123 O         -9.4114  -18.5684  -53.0731 O.2       22 UNK        -0.5000 
    124 C124       -6.5296  -18.2496  -52.3086 C.3       23 UNK        -0.0398 
    125 S125       -7.0350  -17.0640  -51.0122 S.3       23 UNK        -0.2404 
    126 C126       -7.3778  -18.1639  -49.5926 C.3       23 UNK        -0.0205 
    127 H127        1.3032  -16.5298  -50.7547 H         1 UNK         0.0600 
    128 H128        0.4589  -15.1386  -51.4359 H         1 UNK         0.0600 
    129 H129       -0.1868  -16.7656  -51.6737 H         1 UNK         0.0600 
    130 H130        0.8794  -16.9659  -48.6219 H         1 UNK         0.3000 
    131 H131        0.0831  -16.9414  -46.5779 H         1 UNK         0.0600 
    132 H132       -2.3385  -17.2811  -46.1254 H         1 UNK         0.0800 
    133 H133       -2.7306  -16.8957  -47.7794 H         1 UNK         0.0800 
    134 H134       -2.3348  -18.2528  -49.7300 H         1 UNK         0.0800 
    135 H135       -1.8825  -19.9308  -49.7684 H         1 UNK         0.0800 
    136 H136       -4.6746  -17.6762  -49.4778 H         1 UNK         0.1150 
    137 H137       -7.5623  -20.8133  -49.0052 H         1 UNK         0.1150 
    138 H138       -3.3690  -21.6835  -48.7816 H         1 UNK         0.1150 
    139 H139       -6.8913  -23.0575  -48.7525 H         1 UNK         0.0800 
    140 H140       -5.3007  -23.5001  -49.2954 H         1 UNK         0.0800 
    141 H141       -3.3822  -23.8654  -48.0362 H         1 UNK         0.0800 
    142 H142       -3.5498  -24.8599  -46.6235 H         1 UNK         0.0800 
    143 H143       -2.9824  -21.8516  -46.5109 H         1 UNK         0.0600 
    144 H144       -3.4973  -23.7909  -44.4148 H         1 UNK         0.3000 
    145 H145       -4.0956  -22.3553  -42.2338 H         1 UNK         0.0600 
    146 H146       -2.5114  -23.8071  -40.8785 H         1 UNK         0.0600 
    147 H147       -2.8036  -24.4790  -42.4698 H         1 UNK         0.0600 
    148 H148       -1.2930  -23.6336  -42.1375 H         1 UNK         0.0600 
    149 H149       -1.5555  -20.8859  -41.9099 H         1 UNK         0.3000 
    150 H150       -3.0496  -18.5232  -39.8762 H         1 UNK         0.0600 
    151 H151       -1.1955  -18.7794  -38.2327 H         1 UNK         0.0600 
    152 H152       -2.4260  -20.0034  -37.9587 H         1 UNK         0.0600 
    153 H153       -0.9228  -20.4376  -38.7653 H         1 UNK         0.0600 
    154 H154       -0.3204  -19.0472  -40.6772 H         1 UNK         0.3000 
    155 H155       -0.5495  -18.6692  -43.9968 H         1 UNK         0.0600 
    156 H156        0.1750  -16.0575  -42.5726 H         1 UNK         0.0600 
    157 H157       -0.9521  -16.2281  -43.9043 H         1 UNK         0.0600 
    158 H158        0.7535  -16.5563  -44.1628 H         1 UNK         0.0600 
    159 H159        1.6510  -18.0374  -42.2520 H         1 UNK         0.3000 
    160 H160        2.4159  -21.2119  -41.1329 H         1 UNK         0.0600 
    161 H161        3.7831  -20.1990  -43.6837 H         1 UNK         0.0600 
    162 H162        3.0220  -21.7751  -43.5093 H         1 UNK         0.0600 
    163 H163        4.4285  -21.3745  -42.5418 H         1 UNK         0.0600 
    164 H164        4.1145  -18.9599  -41.6309 H         1 UNK         0.3000 
    165 H165        3.1405  -16.9446  -38.9218 H         1 UNK         0.0600 
    166 H166        5.4772  -17.2878  -38.1554 H         1 UNK         0.0600 
    167 H167        4.4897  -18.6785  -37.7373 H         1 UNK         0.0600 
    168 H168        5.5978  -18.7724  -39.1008 H         1 UNK         0.0600 
    169 H169        5.3841  -16.9113  -40.7167 H         1 UNK         0.3000 
    170 H170        5.5208  -15.4425  -42.3794 H         1 UNK         0.0600 
    171 H171        4.4953  -17.1921  -43.8271 H         1 UNK         0.0600 
    172 H172        3.1241  -16.1432  -44.1617 H         1 UNK         0.0600 
    173 H173        4.7319  -15.7015  -44.7272 H         1 UNK         0.0600 
    174 H174        3.1914  -13.8514  -43.2809 H         1 UNK         0.3000 
    175 H175        4.0255  -11.0546  -41.2981 H         1 UNK         0.0600 
    176 H176        4.6565  -11.2697  -44.2926 H         1 UNK         0.0600 
    177 H177        4.3301   -9.7785  -43.4077 H         1 UNK         0.0600 
    178 H178        5.7734  -10.7136  -43.0517 H         1 UNK         0.0600 
    179 H179        2.3144  -11.4267  -43.5892 H         1 UNK         0.3000 
    180 H180       -0.2498  -13.1677  -42.1543 H         1 UNK         0.0600 
    181 H181       -0.4830  -10.1122  -42.2535 H         1 UNK         0.0600 
    182 H182       -0.8425  -11.1132  -40.8521 H         1 UNK         0.0600 
    183 H183       -1.8242  -11.2582  -42.2993 H         1 UNK         0.0600 
    184 H184       -0.4876  -11.4681  -44.3525 H         1 UNK         0.3000 
    185 H185       -0.5055  -12.3540  -46.4007 H         1 UNK         0.0600 
    186 H186        1.6887  -11.1657  -46.5259 H         1 UNK         0.0600 
    187 H187        2.5191  -12.6871  -46.8289 H         1 UNK         0.0600 
    188 H188        1.3781  -12.0482  -48.0124 H         1 UNK         0.0600 
    189 H189        1.0809  -14.5989  -47.3491 H         1 UNK         0.3000 
    190 H190       -0.8910  -23.5490  -44.5748 H         1 UNK         0.3000 
    191 H191        0.9382  -24.8056  -46.2526 H         1 UNK         0.0600 
    192 H192        0.7941  -25.2072  -43.8266 H         1 UNK         0.0600 
    193 H193        2.4278  -24.6986  -44.2198 H         1 UNK         0.0600 
    194 H194        1.3108  -23.5586  -43.4774 H         1 UNK         0.0600 
    195 H195        0.6784  -21.3600  -45.6630 H         1 UNK         0.3000 
    196 H196        3.3887  -20.6601  -46.3184 H         1 UNK         0.0600 
    197 H197        2.3004  -18.3251  -46.6210 H         1 UNK         0.0600 
    198 H198        2.1878  -19.0612  -45.0400 H         1 UNK         0.0600 
    199 H199        0.7970  -19.0897  -46.1109 H         1 UNK         0.0600 
    200 H200        0.6276  -21.4460  -48.3835 H         1 UNK         0.3000 
    201 H201        2.3342  -21.4318  -50.6909 H         1 UNK         0.0600 
    202 H202        1.0532  -19.8282  -52.0725 H         1 UNK         0.0600 
    203 H203        1.7869  -19.0056  -50.7180 H         1 UNK         0.0600 
    204 H204        0.0683  -19.3631  -50.6890 H         1 UNK         0.0600 
    205 H205        1.8645  -23.5186  -50.9562 H         1 UNK         0.3000 
    206 H206       -0.4766  -24.8461  -50.3288 H         1 UNK         0.0600 
    207 H207        1.7463  -25.9215  -50.5925 H         1 UNK         0.0600 
    208 H208        0.5737  -26.7357  -51.6127 H         1 UNK         0.0600 
    209 H209        1.7215  -25.6123  -52.3293 H         1 UNK         0.0600 
    210 H210       -1.9653  -26.0382  -51.5728 H         1 UNK         0.3000 
    211 H211       -3.6759  -26.3098  -52.9468 H         1 UNK         0.0600 
    212 H212       -1.7493  -25.4413  -55.1683 H         1 UNK         0.0600 
    213 H213       -3.2264  -26.3712  -55.3756 H         1 UNK         0.0600 
    214 H214       -1.8725  -27.0678  -54.5019 H         1 UNK         0.0600 
    215 H215       -3.7780  -23.9576  -51.5663 H         1 UNK         0.3000 
    216 H216       -4.8127  -22.0039  -51.3418 H         1 UNK         0.0600 
    217 H217       -6.8364  -21.5301  -52.6767 H         1 UNK         0.0600 
    218 H218       -6.7896  -23.2286  -52.2414 H         1 UNK         0.0600 
    219 H219       -6.3713  -22.7228  -53.8773 H         1 UNK         0.0600 
    220 H220       -2.3416  -21.7269  -52.1958 H         1 UNK         0.3000 
    221 H221       -0.7995  -20.5208  -53.1719 H         1 UNK         0.0600 
    222 H222       -2.9861  -18.4083  -53.5929 H         1 UNK         0.0600 
    223 H223       -2.0176  -18.6043  -52.1359 H         1 UNK         0.0600 
    224 H224       -1.2522  -18.1225  -53.6407 H         1 UNK         0.0600 
    225 H225       -1.5080  -22.4956  -54.7066 H         1 UNK         0.3000 
    226 H226       -1.6923  -23.4176  -56.7208 H         1 UNK         0.0600 
    227 H227        0.4993  -22.2789  -57.0767 H         1 UNK         0.0600 
    228 H228       -0.3942  -22.4289  -58.5813 H         1 UNK         0.0600 
    229 H229       -0.3239  -20.8768  -57.7584 H         1 UNK         0.0600 
    230 H230       -3.9978  -22.6032  -55.9284 H         1 UNK         0.3000 
    231 H231       -6.0799  -22.2461  -56.3614 H         1 UNK         0.0600 
    232 H232       -5.4086  -22.1694  -59.3473 H         1 UNK         0.0600 
    233 H233       -6.9835  -22.4781  -58.6350 H         1 UNK         0.0600 
    234 H234       -5.6835  -23.6344  -58.4037 H         1 UNK         0.0600 
    235 H235       -3.9734  -19.7464  -56.6998 H         1 UNK         0.3000 
    236 H236       -5.5338  -17.7244  -57.9520 H         1 UNK         0.0600 
    237 H237       -3.0565  -17.5870  -57.5943 H         1 UNK         0.0600 
    238 H238       -3.8932  -16.1717  -56.9725 H         1 UNK         0.0600 
    239 H239       -3.3232  -17.4059  -55.8597 H         1 UNK         0.0600 
    240 H240       -5.5903  -19.0016  -54.6592 H         1 UNK         0.3000 
    241 H241       -7.3963  -16.8776  -53.7162 H         1 UNK         0.0600 
    242 H242       -8.0361  -19.4626  -55.7354 H         1 UNK         0.3800 
    243 H243       -9.6274  -19.8391  -55.1280 H         1 UNK         0.3800 
    244 H244       -6.7484  -19.2719  -51.9989 H         1 UNK         0.0800 
    245 H245       -5.4410  -18.1920  -52.3598 H         1 UNK         0.0800 
    246 H246       -7.5664  -17.5536  -48.7088 H         1 UNK         0.0800 
    247 H247       -8.3019  -18.7061  -49.7994 H         1 UNK         0.0800 
@<TRIPOS>BOND
     1    1    2 1    
     2    1  127 1    
     3    1  128 1    
     4    1  129 1    
     5    2    3 2    
     6    2    4 am   BACKBONE|DICT|INTERRES
     7    4    5 1    
     8    4  130 1    
     9    5    6 1    
    10    5   65 1    
    11    5  131 1    
    12    6    7 1    
    13    6  132 1    
    14    6  133 1    
    15    7    8 1    
    16    8    9 1    
    17    8  134 1    
    18    8  135 1    
    19    9   10 ar   
    20    9   14 ar   
    21   10   11 ar   
    22   10  136 1    
    23   11   12 ar   
    24   11  126 1    
    25   12   13 ar   
    26   12  137 1    
    27   13   14 ar   
    28   13   15 1    
    29   14  138 1    
    30   15   16 1    
    31   15  139 1    
    32   15  140 1    
    33   16   17 1    
    34   17   18 1    
    35   17  141 1    
    36   17  142 1    
    37   18   19 1    
    38   18   67 1    
    39   18  143 1    
    40   19   20 am   BACKBONE|DICT|INTERRES
    41   19  144 1    
    42   20   21 2    
    43   20   22 1    
    44   22   23 1    
    45   22   24 1    
    46   22  145 1    
    47   23  146 1    
    48   23  147 1    
    49   23  148 1    
    50   24   25 am   BACKBONE|DICT|INTERRES
    51   24  149 1    
    52   25   26 2    
    53   25   27 1    
    54   27   28 1    
    55   27   29 1    
    56   27  150 1    
    57   28  151 1    
    58   28  152 1    
    59   28  153 1    
    60   29   30 am   BACKBONE|DICT|INTERRES
    61   29  154 1    
    62   30   31 2    
    63   30   32 1    
    64   32   33 1    
    65   32   34 1    
    66   32  155 1    
    67   33  156 1    
    68   33  157 1    
    69   33  158 1    
    70   34   35 am   BACKBONE|DICT|INTERRES
    71   34  159 1    
    72   35   36 2    
    73   35   37 1    
    74   37   38 1    
    75   37   39 1    
    76   37  160 1    
    77   38  161 1    
    78   38  162 1    
    79   38  163 1    
    80   39   40 am   BACKBONE|DICT|INTERRES
    81   39  164 1    
    82   40   41 2    
    83   40   42 1    
    84   42   43 1    
    85   42   44 1    
    86   42  165 1    
    87   43  166 1    
    88   43  167 1    
    89   43  168 1    
    90   44   45 am   BACKBONE|DICT|INTERRES
    91   44  169 1    
    92   45   46 2    
    93   45   47 1    
    94   47   48 1    
    95   47   49 1    
    96   47  170 1    
    97   48  171 1    
    98   48  172 1    
    99   48  173 1    
   100   49   50 am   BACKBONE|DICT|INTERRES
   101   49  174 1    
   102   50   51 2    
   103   50   52 1    
   104   52   53 1    
   105   52   54 1    
   106   52  175 1    
   107   53  176 1    
   108   53  177 1    
   109   53  178 1    
   110   54   55 am   BACKBONE|DICT|INTERRES
   111   54  179 1    
   112   55   56 2    
   113   55   57 1    
   114   57   58 1    
   115   57   59 1    
   116   57  180 1    
   117   58  181 1    
   118   58  182 1    
   119   58  183 1    
   120   59   60 am   BACKBONE|DICT|INTERRES
   121   59  184 1    
   122   60   61 2    
   123   60   62 1    
   124   62   63 1    
   125   62   64 1    
   126   62  185 1    
   127   63  186 1    
   128   63  187 1    
   129   63  188 1    
   130   64   65 am   BACKBONE|DICT|INTERRES
   131   64  189 1    
   132   65   66 2    
   133   67   68 2    
   134   67   69 am   BACKBONE|DICT|INTERRES
   135   69   70 1    
   136   69  190 1    
   137   70   71 1    
   138   70   72 1    
   139   70  191 1    
   140   71  192 1    
   141   71  193 1    
   142   71  194 1    
   143   72   73 2    
   144   72   74 am   BACKBONE|DICT|INTERRES
   145   74   75 1    
   146   74  195 1    
   147   75   76 1    
   148   75   77 1    
   149   75  196 1    
   150   76  197 1    
   151   76  198 1    
   152   76  199 1    
   153   77   78 2    
   154   77   79 am   BACKBONE|DICT|INTERRES
   155   79   80 1    
   156   79  200 1    
   157   80   81 1    
   158   80   82 1    
   159   80  201 1    
   160   81  202 1    
   161   81  203 1    
   162   81  204 1    
   163   82   83 2    
   164   82   84 am   BACKBONE|DICT|INTERRES
   165   84   85 1    
   166   84  205 1    
   167   85   86 1    
   168   85   87 1    
   169   85  206 1    
   170   86  207 1    
   171   86  208 1    
   172   86  209 1    
   173   87   88 2    
   174   87   89 am   BACKBONE|DICT|INTERRES
   175   89   90 1    
   176   89  210 1    
   177   90   91 1    
   178   90   92 1    
   179   90  211 1    
   180   91  212 1    
   181   91  213 1    
   182   91  214 1    
   183   92   93 2    
   184   92   94 am   BACKBONE|DICT|INTERRES
   185   94   95 1    
   186   94  215 1    
   187   95   96 1    
   188   95   97 1    
   189   95  216 1    
   190   96  217 1    
   191   96  218 1    
   192   96  219 1    
   193   97   98 2    
   194   97   99 am   BACKBONE|DICT|INTERRES
   195   99  100 1    
   196   99  220 1    
   197  100  101 1    
   198  100  102 1    
   199  100  221 1    
   200  101  222 1    
   201  101  223 1    
   202  101  224 1    
   203  102  103 2    
   204  102  104 am   BACKBONE|DICT|INTERRES
   205  104  105 1    
   206  104  225 1    
   207  105  106 1    
   208  105  107 1    
   209  105  226 1    
   210  106  227 1    
   211  106  228 1    
   212  106  229 1    
   213  107  108 2    
   214  107  109 am   BACKBONE|DICT|INTERRES
   215  109  110 1    
   216  109  230 1    
   217  110  111 1    
   218  110  112 1    
   219  110  231 1    
   220  111  232 1    
   221  111  233 1    
   222  111  234 1    
   223  112  113 2    
   224  112  114 am   BACKBONE|DICT|INTERRES
   225  114  115 1    
   226  114  235 1    
   227  115  116 1    
   228  115  117 1    
   229  115  236 1    
   230  116  237 1    
   231  116  238 1    
   232  116  239 1    
   233  117  118 2    
   234  117  119 am   BACKBONE|DICT|INTERRES
   235  119  120 1    
   236  119  240 1    
   237  120  121 1    
   238  120  124 1    
   239  120  241 1    
   240  121  122 am   BACKBONE|DICT|INTERRES
   241  121  123 2    
   242  122  242 1    
   243  122  243 1    
   244  124  125 1    
   245  124  244 1    
   246  124  245 1    
   247  125  126 1    
   248  126  246 1    
   249  126  247 1    
@<TRIPOS>SUBSTRUCTURE
     1 UNK         1 GROUP             0       ****    0 ROOT    
