@<TRIPOS>MOLECULE
3R540
247   249    1
SMALL
USER_CHARGES


@<TRIPOS>ATOM
      1 CA         -2.0849  -18.2803  -48.8038 C.3       0 UNK        -0.1800 
      2 C          -1.3979  -16.9317  -48.9546 C.2       0 UNK         0.5000 
      3 O          -1.9553  -16.0333  -49.5850 O.2       0 UNK        -0.5000 
      4 N          -0.1914  -16.7895  -48.3893 N.am      1 UNK        -0.5000 
      5 CA          0.5955  -15.5548  -48.4216 C.3       1 UNK         0.1400 
      6 C6          2.0827  -15.8039  -48.0528 C.3       23 UNK        -0.0398 
      7 S7          3.2005  -14.7921  -49.0845 S.3       23 UNK        -0.2404 
      8 C8          3.8823  -16.0136  -50.2647 C.3       23 UNK        -0.0205 
      9 C9          2.8257  -16.9476  -50.8450 C.ar      23 UNK        -0.0193 
     10 C10         1.7342  -16.4360  -51.5505 C.ar      23 UNK        -0.1150 
     11 C11         0.7135  -17.2825  -51.9898 C.ar      23 UNK        -0.0193 
     12 C12         0.8114  -18.6599  -51.7664 C.ar      23 UNK        -0.1150 
     13 C13         1.9190  -19.1894  -51.0973 C.ar      23 UNK        -0.0193 
     14 C14         2.9205  -18.3269  -50.6397 C.ar      23 UNK        -0.1150 
     15 C15         2.0551  -20.6902  -50.8795 C.3       23 UNK        -0.0205 
     16 S16         2.0472  -21.1322  -49.1112 S.3       23 UNK        -0.2404 
     17 C17         0.2810  -21.4392  -48.7688 C.3       23 UNK        -0.0398 
     18 CA          0.1098  -22.5722  -47.7256 C.3       11 UNK         0.1400 
     19 N           0.5958  -22.1850  -46.4035 N.am      11 UNK        -0.5000 
     20 C           1.5623  -22.8182  -45.7276 C.2       10 UNK         0.5000 
     21 O           2.2357  -23.7368  -46.1955 O.2       10 UNK        -0.5000 
     22 CA          1.8277  -22.3745  -44.2733 C.3       10 UNK         0.1400 
     23 CB          3.1384  -21.5760  -44.1947 C.3       10 UNK        -0.1800 
     24 N           0.7533  -21.5944  -43.6501 N.am      10 UNK        -0.5000 
     25 C          -0.5186  -21.9902  -43.4984 C.2       9 UNK         0.5000 
     26 O          -0.9495  -23.0760  -43.8856 O.2       9 UNK        -0.5000 
     27 CA         -1.4974  -20.9693  -42.8911 C.3       9 UNK         0.1400 
     28 CB         -1.4386  -21.0089  -41.3577 C.3       9 UNK        -0.1800 
     29 N          -1.2832  -19.5961  -43.3557 N.am      9 UNK        -0.5000 
     30 C          -1.2931  -19.2010  -44.6381 C.2       8 UNK         0.5000 
     31 O          -1.4289  -19.9640  -45.5945 O.2       8 UNK        -0.5000 
     32 CA         -1.0462  -17.7090  -44.8983 C.3       8 UNK         0.1400 
     33 CB         -2.1990  -16.8437  -44.3637 C.3       8 UNK        -0.1800 
     34 N           0.2272  -17.2888  -44.3234 N.am      8 UNK        -0.5000 
     35 C           1.4273  -17.7215  -44.7351 C.2       7 UNK         0.5000 
     36 O           1.5979  -18.4015  -45.7472 O.2       7 UNK        -0.5000 
     37 CA          2.6364  -17.3665  -43.8485 C.3       7 UNK         0.1400 
     38 CB          3.3014  -16.0608  -44.3094 C.3       7 UNK        -0.1800 
     39 N           2.2787  -17.2571  -42.4326 N.am      7 UNK        -0.5000 
     40 C           1.9368  -18.2926  -41.6521 C.2       6 UNK         0.5000 
     41 O           1.9027  -19.4594  -42.0386 O.2       6 UNK        -0.5000 
     42 CA          1.5217  -17.9595  -40.2079 C.3       6 UNK         0.1400 
     43 CB          2.7581  -17.7731  -39.3160 C.3       6 UNK        -0.1800 
     44 N           0.6857  -16.7611  -40.1378 N.am      6 UNK        -0.5000 
     45 C          -0.5596  -16.6806  -40.6277 C.2       5 UNK         0.5000 
     46 O          -1.1581  -17.6333  -41.1276 O.2       5 UNK        -0.5000 
     47 CA         -1.2210  -15.2880  -40.6030 C.3       5 UNK         0.1400 
     48 CB         -1.9502  -15.0594  -39.2709 C.3       5 UNK        -0.1800 
     49 N          -0.2665  -14.1963  -40.8318 N.am      5 UNK        -0.5000 
     50 C           0.4237  -14.0292  -41.9673 C.2       4 UNK         0.5000 
     51 O           0.3066  -14.7657  -42.9481 O.2       4 UNK        -0.5000 
     52 CA          1.4641  -12.9034  -41.9911 C.3       4 UNK         0.1400 
     53 CB          2.7198  -13.3309  -41.2028 C.3       4 UNK        -0.1800 
     54 N           1.8059  -12.6211  -43.3829 N.am      4 UNK        -0.5000 
     55 C           2.5327  -11.5885  -43.8232 C.2       3 UNK         0.5000 
     56 O           2.9989  -10.7170  -43.0879 O.2       3 UNK        -0.5000 
     57 CA          2.7883  -11.5059  -45.3415 C.3       3 UNK         0.1400 
     58 CB          4.0675  -12.2736  -45.7110 C.3       3 UNK        -0.1800 
     59 N           1.6901  -11.9915  -46.1809 N.am      3 UNK        -0.5000 
     60 C           0.4531  -11.4753  -46.2291 C.2       2 UNK         0.5000 
     61 O           0.0672  -10.5633  -45.4969 O.2       2 UNK        -0.5000 
     62 CA         -0.5091  -12.0378  -47.2974 C.3       2 UNK         0.1400 
     63 CB         -0.8505  -10.9581  -48.3375 C.3       2 UNK        -0.1800 
     64 N           0.0174  -13.2089  -48.0045 N.am      2 UNK        -0.5000 
     65 C          -0.0258  -14.4599  -47.5318 C.2       1 UNK         0.5000 
     66 O          -0.4915  -14.7537  -46.4318 O.2       1 UNK        -0.5000 
     67 C          -1.3541  -23.0340  -47.6081 C.2       11 UNK         0.5000 
     68 O          -1.6640  -24.1583  -48.0086 O.2       11 UNK        -0.5000 
     69 N          -2.2250  -22.1753  -47.0587 N.am      12 UNK        -0.5000 
     70 CA         -3.6819  -22.3294  -47.0554 C.3       12 UNK         0.1400 
     71 CB         -4.3259  -21.0091  -46.6042 C.3       12 UNK        -0.1800 
     72 C          -4.2094  -23.4923  -46.1984 C.2       12 UNK         0.5000 
     73 O          -5.2209  -24.0912  -46.5625 O.2       12 UNK        -0.5000 
     74 N          -3.5393  -23.7917  -45.0780 N.am      13 UNK        -0.5000 
     75 CA         -3.8777  -24.9338  -44.2245 C.3       13 UNK         0.1400 
     76 CB         -3.6535  -24.5638  -42.7488 C.3       13 UNK        -0.1800 
     77 C          -3.0612  -26.1802  -44.6086 C.2       13 UNK         0.5000 
     78 O          -3.4660  -27.2929  -44.2698 O.2       13 UNK        -0.5000 
     79 N          -1.9289  -25.9777  -45.2964 N.am      14 UNK        -0.5000 
     80 CA         -1.0185  -27.0327  -45.7247 C.3       14 UNK         0.1400 
     81 CB          0.3617  -26.4326  -46.0264 C.3       14 UNK        -0.1800 
     82 C          -1.5533  -27.8213  -46.9303 C.2       14 UNK         0.5000 
     83 O          -1.6008  -29.0507  -46.8608 O.2       14 UNK        -0.5000 
     84 N          -1.9342  -27.1205  -48.0099 N.am      15 UNK        -0.5000 
     85 CA         -2.3505  -27.7565  -49.2656 C.3       15 UNK         0.1400 
     86 CB         -1.1299  -28.3768  -49.9789 C.3       15 UNK        -0.1800 
     87 C          -3.0923  -26.8302  -50.2436 C.2       15 UNK         0.5000 
     88 O          -3.8557  -27.3397  -51.0663 O.2       15 UNK        -0.5000 
     89 N          -2.8415  -25.5147  -50.1984 N.am      16 UNK        -0.5000 
     90 CA         -3.3909  -24.5571  -51.1594 C.3       16 UNK         0.1400 
     91 CB         -2.5946  -23.2441  -51.0832 C.3       16 UNK        -0.1800 
     92 C          -4.8876  -24.2936  -50.9224 C.2       16 UNK         0.5000 
     93 O          -5.3350  -24.2519  -49.7747 O.2       16 UNK        -0.5000 
     94 N          -5.6279  -24.0655  -52.0136 N.am      17 UNK        -0.5000 
     95 CA         -7.0250  -23.6285  -52.0166 C.3       17 UNK         0.1400 
     96 CB         -7.6318  -23.9318  -53.3982 C.3       17 UNK        -0.1800 
     97 C          -7.1231  -22.1347  -51.6441 C.2       17 UNK         0.5000 
     98 O          -7.3884  -21.2946  -52.5072 O.2       17 UNK        -0.5000 
     99 N          -6.8367  -21.8341  -50.3699 N.am      18 UNK        -0.5000 
    100 CA        -6.6413  -20.5009  -49.7982 C.3       18 UNK         0.1400 
    101 CB        -7.9624  -19.6986  -49.7863 C.3       18 UNK        -0.1800 
    102 C         -5.4624  -19.7943  -50.4971 C.2       18 UNK         0.5000 
    103 O         -4.3331  -20.2716  -50.3856 O.2       18 UNK        -0.5000 
    104 N         -5.7417  -18.7054  -51.2245 N.am      19 UNK        -0.5000 
    105 CA        -4.7752  -17.9872  -52.0567 C.3       19 UNK         0.1400 
    106 CB        -5.3891  -16.6411  -52.4713 C.3       19 UNK        -0.1800 
    107 C         -4.3328  -18.7827  -53.3022 C.2       19 UNK         0.5000 
    108 O         -3.2303  -18.5518  -53.7980 O.2       19 UNK        -0.5000 
    109 N         -5.1891  -19.6990  -53.7829 N.am      20 UNK        -0.5000 
    110 CA        -4.9827  -20.5917  -54.9266 C.3       20 UNK         0.1400 
    111 CB        -4.0372  -21.7422  -54.5191 C.3       20 UNK        -0.1800 
    112 C         -4.5360  -19.8322  -56.1949 C.2       20 UNK         0.5000 
    113 O         -5.2945  -19.0034  -56.7028 O.2       20 UNK        -0.5000 
    114 N         -3.3067  -20.0971  -56.6584 N.am      21 UNK        -0.5000 
    115 CA        -2.6674  -19.4742  -57.8188 C.3       21 UNK         0.1400 
    116 CB        -1.3183  -20.1659  -58.0691 C.3       21 UNK        -0.1800 
    117 C         -2.4761  -17.9481  -57.7039 C.2       21 UNK         0.5000 
    118 O         -2.3580  -17.2853  -58.7358 O.2       21 UNK        -0.5000 
    119 N         -2.4659  -17.4122  -56.4755 N.am      22 UNK        -0.5000 
    120 CA        -2.4480  -15.9650  -56.2109 C.3       22 UNK         0.1400 
    121 C         -3.8235  -15.2670  -56.4388 C.2       22 UNK         0.5000 
    122 N         -4.9228  -15.9873  -56.6381 N.am      22 UNK        -0.7600 
    123 O         -3.8937  -14.0411  -56.4404 O.2       22 UNK        -0.5000 
    124 C124       -1.8996  -15.6222  -54.8023 C.3       23 UNK        -0.0398 
    125 S125       -0.2824  -16.3779  -54.4188 S.3       23 UNK        -0.2404 
    126 C126       -0.5228  -16.6944  -52.6448 C.3       23 UNK        -0.0205 
    127 H127       -3.1553  -18.1450  -48.6484 H         1 UNK         0.0600 
    128 H128       -1.9444  -18.8764  -49.7057 H         1 UNK         0.0600 
    129 H129       -1.6931  -18.8380  -47.9562 H         1 UNK         0.0600 
    130 H130        0.2144  -17.5526  -47.8659 H         1 UNK         0.3000 
    131 H131        0.5417  -15.1971  -49.4509 H         1 UNK         0.0600 
    132 H132        2.3478  -16.8552  -48.1717 H         1 UNK         0.0800 
    133 H133        2.2797  -15.5848  -47.0034 H         1 UNK         0.0800 
    134 H134        4.3749  -15.4823  -51.0800 H         1 UNK         0.0800 
    135 H135        4.6609  -16.5848  -49.7570 H         1 UNK         0.0800 
    136 H136        1.6535  -15.3701  -51.7118 H         1 UNK         0.1150 
    137 H137        0.0227  -19.3154  -52.1089 H         1 UNK         0.1150 
    138 H138        3.7664  -18.7347  -50.1042 H         1 UNK         0.1150 
    139 H139        1.2802  -21.2413  -51.4139 H         1 UNK         0.0800 
    140 H140        3.0036  -21.0141  -51.3097 H         1 UNK         0.0800 
    141 H141       -0.2254  -21.6959  -49.7004 H         1 UNK         0.0800 
    142 H142       -0.1667  -20.5112  -48.4150 H         1 UNK         0.0800 
    143 H143        0.6657  -23.4374  -48.0934 H         1 UNK         0.0600 
    144 H144        0.0981  -21.4345  -45.9403 H         1 UNK         0.3000 
    145 H145        1.9476  -23.2850  -43.6833 H         1 UNK         0.0600 
    146 H146        3.4186  -21.3763  -43.1606 H         1 UNK         0.0600 
    147 H147        3.9634  -22.1254  -44.6499 H         1 UNK         0.0600 
    148 H148        3.0545  -20.6205  -44.7134 H         1 UNK         0.0600 
    149 H149        1.0260  -20.6965  -43.2599 H         1 UNK         0.3000 
    150 H150       -2.5037  -21.2603  -43.1989 H         1 UNK         0.0600 
    151 H151       -1.6201  -22.0179  -40.9849 H         1 UNK         0.0600 
    152 H152       -2.1946  -20.3585  -40.9176 H         1 UNK         0.0600 
    153 H153       -0.4650  -20.6889  -40.9850 H         1 UNK         0.0600 
    154 H154       -1.1513  -18.8945  -42.6323 H         1 UNK         0.3000 
    155 H155       -0.9933  -17.5585  -45.9743 H         1 UNK         0.0600 
    156 H156       -2.3716  -16.9916  -43.2994 H         1 UNK         0.0600 
    157 H157       -3.1295  -17.0829  -44.8796 H         1 UNK         0.0600 
    158 H158       -2.0045  -15.7830  -44.5206 H         1 UNK         0.0600 
    159 H159        0.1876  -16.6250  -43.5574 H         1 UNK         0.3000 
    160 H160        3.3683  -18.1710  -43.9469 H         1 UNK         0.0600 
    161 H161        4.1084  -15.7663  -43.6385 H         1 UNK         0.0600 
    162 H162        2.5879  -15.2387  -44.3594 H         1 UNK         0.0600 
    163 H163        3.7391  -16.1811  -45.3004 H         1 UNK         0.0600 
    164 H164        2.2308  -16.3264  -42.0489 H         1 UNK         0.3000 
    165 H165        0.9454  -18.8030  -39.8218 H         1 UNK         0.0600 
    166 H166        2.4727  -17.6084  -38.2768 H         1 UNK         0.0600 
    167 H167        3.3933  -18.6596  -39.3408 H         1 UNK         0.0600 
    168 H168        3.3649  -16.9251  -39.6362 H         1 UNK         0.0600 
    169 H169        1.0995  -15.9351  -39.7325 H         1 UNK         0.3000 
    170 H170       -1.9607  -15.2611  -41.4060 H         1 UNK         0.0600 
    171 H171       -2.6807  -15.8482  -39.0860 H         1 UNK         0.0600 
    172 H172       -1.2581  -15.0486  -38.4280 H         1 UNK         0.0600 
    173 H173       -2.4906  -14.1126  -39.2747 H         1 UNK         0.0600 
    174 H174       -0.1177  -13.5571  -40.0640 H         1 UNK         0.3000 
    175 H175        1.0244  -12.0104  -41.5428 H         1 UNK         0.0600 
    176 H176        3.2071  -14.1925  -41.6602 H         1 UNK         0.0600 
    177 H177        3.4531  -12.5266  -41.1485 H         1 UNK         0.0600 
    178 H178        2.4715  -13.5997  -40.1755 H         1 UNK         0.0600 
    179 H179        1.4096  -13.2777  -44.0447 H         1 UNK         0.3000 
    180 H180        2.9430  -10.4530  -45.5858 H         1 UNK         0.0600 
    181 H181        3.9608  -13.3441  -45.5330 H         1 UNK         0.0600 
    182 H182        4.9171  -11.9261  -45.1217 H         1 UNK         0.0600 
    183 H183        4.3236  -12.1333  -46.7615 H         1 UNK         0.0600 
    184 H184        1.9148  -12.7285  -46.8316 H         1 UNK         0.3000 
    185 H185       -1.4325  -12.3178  -46.7856 H         1 UNK         0.0600 
    186 H186       -1.2917  -10.0805  -47.8630 H         1 UNK         0.0600 
    187 H187        0.0360  -10.6270  -48.8798 H         1 UNK         0.0600 
    188 H188       -1.5727  -11.3268  -49.0662 H         1 UNK         0.0600 
    189 H189        0.4299  -13.0365  -48.9105 H         1 UNK         0.3000 
    190 H190       -1.8837  -21.3002  -46.6647 H         1 UNK         0.3000 
    191 H191       -3.9949  -22.5185  -48.0838 H         1 UNK         0.0600 
    192 H192       -4.0227  -20.7397  -45.5920 H         1 UNK         0.0600 
    193 H193       -5.4138  -21.0823  -46.6059 H         1 UNK         0.0600 
    194 H194       -4.0516  -20.1893  -47.2681 H         1 UNK         0.0600 
    195 H195       -2.6972  -23.2804  -44.8357 H         1 UNK         0.3000 
    196 H196       -4.9344  -25.1855  -44.3372 H         1 UNK         0.0600 
    197 H197       -2.5973  -24.4465  -42.5093 H         1 UNK         0.0600 
    198 H198       -4.0445  -25.3436  -42.0943 H         1 UNK         0.0600 
    199 H199       -4.1640  -23.6362  -42.4896 H         1 UNK         0.0600 
    200 H200       -1.6772  -25.0306  -45.5375 H         1 UNK         0.3000 
    201 H201       -0.8965  -27.7339  -44.8961 H         1 UNK         0.0600 
    202 H202        0.3216  -25.7078  -46.8393 H         1 UNK         0.0600 
    203 H203        1.0703  -27.2093  -46.3163 H         1 UNK         0.0600 
    204 H204        0.7710  -25.9307  -45.1495 H         1 UNK         0.0600 
    205 H205       -1.9017  -26.1062  -47.9808 H         1 UNK         0.3000 
    206 H206       -3.0509  -28.5583  -49.0216 H         1 UNK         0.0600 
    207 H207       -1.4129  -28.8143  -50.9373 H         1 UNK         0.0600 
    208 H208       -0.3614  -27.6281  -50.1745 H         1 UNK         0.0600 
    209 H209       -0.6773  -29.1743  -49.3902 H         1 UNK         0.0600 
    210 H210       -2.2691  -25.1216  -49.4582 H         1 UNK         0.3000 
    211 H211       -3.2608  -24.9714  -52.1617 H         1 UNK         0.0600 
    212 H212       -2.7569  -22.7279  -50.1381 H         1 UNK         0.0600 
    213 H213       -2.8951  -22.5556  -51.8724 H         1 UNK         0.0600 
    214 H214       -1.5247  -23.4194  -51.1955 H         1 UNK         0.0600 
    215 H215       -5.1835  -24.1163  -52.9180 H         1 UNK         0.3000 
    216 H216       -7.5821  -24.1992  -51.2705 H         1 UNK         0.0600 
    217 H217       -8.6763  -23.6205  -53.4420 H         1 UNK         0.0600 
    218 H218       -7.6030  -24.9998  -53.6149 H         1 UNK         0.0600 
    219 H219       -7.1006  -23.4133  -54.1976 H         1 UNK         0.0600 
    220 H220       -6.5304  -22.6062  -49.7859 H         1 UNK         0.3000 
    221 H221       -6.3386  -20.6494  -48.7621 H         1 UNK         0.0600 
    222 H222       -8.3549  -19.5190  -50.7875 H         1 UNK         0.0600 
    223 H223       -8.7311  -20.2304  -49.2256 H         1 UNK         0.0600 
    224 H224       -7.8281  -18.7303  -49.3026 H         1 UNK         0.0600 
    225 H225       -6.7007  -18.3936  -51.2731 H         1 UNK         0.3000 
    226 H226       -3.8839  -17.7895  -51.4569 H         1 UNK         0.0600 
    227 H227       -4.6965  -16.0599  -53.0790 H         1 UNK         0.0600 
    228 H228       -6.2991  -16.7774  -53.0570 H         1 UNK         0.0600 
    229 H229       -5.6372  -16.0361  -51.5990 H         1 UNK         0.0600 
    230 H230       -6.0662  -19.8354  -53.2933 H         1 UNK         0.3000 
    231 H231       -5.9554  -21.0281  -55.1581 H         1 UNK         0.0600 
    232 H232       -4.4465  -22.2813  -53.6684 H         1 UNK         0.0600 
    233 H233       -3.0484  -21.3828  -54.2311 H         1 UNK         0.0600 
    234 H234       -3.9155  -22.4644  -55.3275 H         1 UNK         0.0600 
    235 H235       -2.7460  -20.7642  -56.1490 H         1 UNK         0.3000 
    236 H236       -3.3102  -19.6541  -58.6829 H         1 UNK         0.0600 
    237 H237       -0.8235  -19.7526  -58.9491 H         1 UNK         0.0600 
    238 H238       -0.6410  -20.0413  -57.2231 H         1 UNK         0.0600 
    239 H239       -1.4474  -21.2343  -58.2434 H         1 UNK         0.0600 
    240 H240       -2.5841  -18.0101  -55.6638 H         1 UNK         0.3000 
    241 H241       -1.7638  -15.5114  -56.9304 H         1 UNK         0.0600 
    242 H242       -5.7992  -15.5141  -56.7898 H         1 UNK         0.3800 
    243 H243       -4.8956  -17.0009  -56.6522 H         1 UNK         0.3800 
    244 H244       -1.7908  -14.5419  -54.6912 H         1 UNK         0.0800 
    245 H245       -2.6194  -15.9298  -54.0447 H         1 UNK         0.0800 
    246 H246       -0.7876  -15.7605  -52.1463 H         1 UNK         0.0800 
    247 H247       -1.3697  -17.3643  -52.4988 H         1 UNK         0.0800 
@<TRIPOS>BOND
     1    1    2 1    
     2    1  127 1    
     3    1  128 1    
     4    1  129 1    
     5    2    3 2    
     6    2    4 am   BACKBONE|DICT|INTERRES
     7    4    5 1    
     8    4  130 1    
     9    5    6 1    
    10    5   65 1    
    11    5  131 1    
    12    6    7 1    
    13    6  132 1    
    14    6  133 1    
    15    7    8 1    
    16    8    9 1    
    17    8  134 1    
    18    8  135 1    
    19    9   10 ar   
    20    9   14 ar   
    21   10   11 ar   
    22   10  136 1    
    23   11   12 ar   
    24   11  126 1    
    25   12   13 ar   
    26   12  137 1    
    27   13   14 ar   
    28   13   15 1    
    29   14  138 1    
    30   15   16 1    
    31   15  139 1    
    32   15  140 1    
    33   16   17 1    
    34   17   18 1    
    35   17  141 1    
    36   17  142 1    
    37   18   19 1    
    38   18   67 1    
    39   18  143 1    
    40   19   20 am   BACKBONE|DICT|INTERRES
    41   19  144 1    
    42   20   21 2    
    43   20   22 1    
    44   22   23 1    
    45   22   24 1    
    46   22  145 1    
    47   23  146 1    
    48   23  147 1    
    49   23  148 1    
    50   24   25 am   BACKBONE|DICT|INTERRES
    51   24  149 1    
    52   25   26 2    
    53   25   27 1    
    54   27   28 1    
    55   27   29 1    
    56   27  150 1    
    57   28  151 1    
    58   28  152 1    
    59   28  153 1    
    60   29   30 am   BACKBONE|DICT|INTERRES
    61   29  154 1    
    62   30   31 2    
    63   30   32 1    
    64   32   33 1    
    65   32   34 1    
    66   32  155 1    
    67   33  156 1    
    68   33  157 1    
    69   33  158 1    
    70   34   35 am   BACKBONE|DICT|INTERRES
    71   34  159 1    
    72   35   36 2    
    73   35   37 1    
    74   37   38 1    
    75   37   39 1    
    76   37  160 1    
    77   38  161 1    
    78   38  162 1    
    79   38  163 1    
    80   39   40 am   BACKBONE|DICT|INTERRES
    81   39  164 1    
    82   40   41 2    
    83   40   42 1    
    84   42   43 1    
    85   42   44 1    
    86   42  165 1    
    87   43  166 1    
    88   43  167 1    
    89   43  168 1    
    90   44   45 am   BACKBONE|DICT|INTERRES
    91   44  169 1    
    92   45   46 2    
    93   45   47 1    
    94   47   48 1    
    95   47   49 1    
    96   47  170 1    
    97   48  171 1    
    98   48  172 1    
    99   48  173 1    
   100   49   50 am   BACKBONE|DICT|INTERRES
   101   49  174 1    
   102   50   51 2    
   103   50   52 1    
   104   52   53 1    
   105   52   54 1    
   106   52  175 1    
   107   53  176 1    
   108   53  177 1    
   109   53  178 1    
   110   54   55 am   BACKBONE|DICT|INTERRES
   111   54  179 1    
   112   55   56 2    
   113   55   57 1    
   114   57   58 1    
   115   57   59 1    
   116   57  180 1    
   117   58  181 1    
   118   58  182 1    
   119   58  183 1    
   120   59   60 am   BACKBONE|DICT|INTERRES
   121   59  184 1    
   122   60   61 2    
   123   60   62 1    
   124   62   63 1    
   125   62   64 1    
   126   62  185 1    
   127   63  186 1    
   128   63  187 1    
   129   63  188 1    
   130   64   65 am   BACKBONE|DICT|INTERRES
   131   64  189 1    
   132   65   66 2    
   133   67   68 2    
   134   67   69 am   BACKBONE|DICT|INTERRES
   135   69   70 1    
   136   69  190 1    
   137   70   71 1    
   138   70   72 1    
   139   70  191 1    
   140   71  192 1    
   141   71  193 1    
   142   71  194 1    
   143   72   73 2    
   144   72   74 am   BACKBONE|DICT|INTERRES
   145   74   75 1    
   146   74  195 1    
   147   75   76 1    
   148   75   77 1    
   149   75  196 1    
   150   76  197 1    
   151   76  198 1    
   152   76  199 1    
   153   77   78 2    
   154   77   79 am   BACKBONE|DICT|INTERRES
   155   79   80 1    
   156   79  200 1    
   157   80   81 1    
   158   80   82 1    
   159   80  201 1    
   160   81  202 1    
   161   81  203 1    
   162   81  204 1    
   163   82   83 2    
   164   82   84 am   BACKBONE|DICT|INTERRES
   165   84   85 1    
   166   84  205 1    
   167   85   86 1    
   168   85   87 1    
   169   85  206 1    
   170   86  207 1    
   171   86  208 1    
   172   86  209 1    
   173   87   88 2    
   174   87   89 am   BACKBONE|DICT|INTERRES
   175   89   90 1    
   176   89  210 1    
   177   90   91 1    
   178   90   92 1    
   179   90  211 1    
   180   91  212 1    
   181   91  213 1    
   182   91  214 1    
   183   92   93 2    
   184   92   94 am   BACKBONE|DICT|INTERRES
   185   94   95 1    
   186   94  215 1    
   187   95   96 1    
   188   95   97 1    
   189   95  216 1    
   190   96  217 1    
   191   96  218 1    
   192   96  219 1    
   193   97   98 2    
   194   97   99 am   BACKBONE|DICT|INTERRES
   195   99  100 1    
   196   99  220 1    
   197  100  101 1    
   198  100  102 1    
   199  100  221 1    
   200  101  222 1    
   201  101  223 1    
   202  101  224 1    
   203  102  103 2    
   204  102  104 am   BACKBONE|DICT|INTERRES
   205  104  105 1    
   206  104  225 1    
   207  105  106 1    
   208  105  107 1    
   209  105  226 1    
   210  106  227 1    
   211  106  228 1    
   212  106  229 1    
   213  107  108 2    
   214  107  109 am   BACKBONE|DICT|INTERRES
   215  109  110 1    
   216  109  230 1    
   217  110  111 1    
   218  110  112 1    
   219  110  231 1    
   220  111  232 1    
   221  111  233 1    
   222  111  234 1    
   223  112  113 2    
   224  112  114 am   BACKBONE|DICT|INTERRES
   225  114  115 1    
   226  114  235 1    
   227  115  116 1    
   228  115  117 1    
   229  115  236 1    
   230  116  237 1    
   231  116  238 1    
   232  116  239 1    
   233  117  118 2    
   234  117  119 am   BACKBONE|DICT|INTERRES
   235  119  120 1    
   236  119  240 1    
   237  120  121 1    
   238  120  124 1    
   239  120  241 1    
   240  121  122 am   BACKBONE|DICT|INTERRES
   241  121  123 2    
   242  122  242 1    
   243  122  243 1    
   244  124  125 1    
   245  124  244 1    
   246  124  245 1    
   247  125  126 1    
   248  126  246 1    
   249  126  247 1    
@<TRIPOS>SUBSTRUCTURE
     1 UNK         1 GROUP             0       ****    0 ROOT    
