@<TRIPOS>MOLECULE
3R540
247   249    1
SMALL
USER_CHARGES


@<TRIPOS>ATOM
      1 CA          4.7858  -16.1860  -48.4365 C.3       0 UNK        -0.1800 
      2 C           3.7712  -16.5398  -47.3508 C.2       0 UNK         0.5000 
      3 O           4.0530  -17.4161  -46.5386 O.2       0 UNK        -0.5000 
      4 N           2.5885  -15.9083  -47.2829 N.am      1 UNK        -0.5000 
      5 CA          2.0696  -14.8240  -48.1326 C.3       1 UNK         0.1400 
      6 C6          1.9796  -15.2024  -49.6385 C.3       23 UNK        -0.0398 
      7 S7          0.5239  -14.4737  -50.4658 S.3       23 UNK        -0.2404 
      8 C8          0.2571  -15.6383  -51.8413 C.3       23 UNK        -0.0205 
      9 C9         -0.2551  -16.9826  -51.3495 C.ar      23 UNK        -0.0193 
     10 C10        -1.5810  -17.1125  -50.9281 C.ar      23 UNK        -0.1150 
     11 C11        -2.0552  -18.3332  -50.4412 C.ar      23 UNK        -0.0193 
     12 C12        -1.1875  -19.4271  -50.3776 C.ar      23 UNK        -0.1150 
     13 C13         0.1351  -19.3157  -50.8135 C.ar      23 UNK        -0.0193 
     14 C14         0.5946  -18.0920  -51.3054 C.ar      23 UNK        -0.1150 
     15 C15         1.0611  -20.5209  -50.7619 C.3       23 UNK        -0.0205 
     16 S16         2.3170  -20.3962  -49.4448 S.3       23 UNK        -0.2404 
     17 C17         1.3194  -20.1947  -47.9285 C.3       23 UNK        -0.0398 
     18 CA          0.9705  -21.5316  -47.2284 C.3       11 UNK         0.1400 
     19 N           0.7290  -21.3532  -45.7956 N.am      11 UNK        -0.5000 
     20 C           0.5272  -22.3436  -44.9149 C.2       10 UNK         0.5000 
     21 O           0.6022  -23.5395  -45.1985 O.2       10 UNK        -0.5000 
     22 CA          0.1112  -21.9242  -43.4926 C.3       10 UNK         0.1400 
     23 CB          1.3345  -21.5269  -42.6534 C.3       10 UNK        -0.1800 
     24 N          -0.8642  -20.8311  -43.5010 N.am      10 UNK        -0.5000 
     25 C          -2.1044  -20.9360  -44.0005 C.2       9 UNK         0.5000 
     26 O          -2.5737  -21.9890  -44.4325 O.2       9 UNK        -0.5000 
     27 CA         -2.9454  -19.6469  -44.0728 C.3       9 UNK         0.1400 
     28 CB         -3.5967  -19.3399  -42.7166 C.3       9 UNK        -0.1800 
     29 N          -2.1717  -18.4879  -44.5221 N.am      9 UNK        -0.5000 
     30 C          -1.6255  -18.3638  -45.7399 C.2       8 UNK         0.5000 
     31 O          -1.7617  -19.1951  -46.6343 O.2       8 UNK        -0.5000 
     32 CA         -0.7266  -17.1376  -45.9858 C.3       8 UNK         0.1400 
     33 CB         -1.5634  -15.9077  -46.3680 C.3       8 UNK        -0.1800 
     34 N           0.1244  -16.8287  -44.8332 N.am      8 UNK        -0.5000 
     35 C           1.0725  -17.6508  -44.3568 C.2       7 UNK         0.5000 
     36 O           1.3686  -18.7213  -44.8821 O.2       7 UNK        -0.5000 
     37 CA          1.7626  -17.2340  -43.0485 C.3       7 UNK         0.1400 
     38 CB          2.8619  -16.1988  -43.3168 C.3       7 UNK        -0.1800 
     39 N           0.8018  -16.6981  -42.0858 N.am      7 UNK        -0.5000 
     40 C          -0.1056  -17.4484  -41.4428 C.2       6 UNK         0.5000 
     41 O          -0.1887  -18.6700  -41.5672 O.2       6 UNK        -0.5000 
     42 CA         -1.1184  -16.7097  -40.5465 C.3       6 UNK         0.1400 
     43 CB         -0.5649  -16.5570  -39.1221 C.3       6 UNK        -0.1800 
     44 N          -1.4849  -15.3906  -41.0633 N.am      6 UNK        -0.5000 
     45 C          -2.0927  -15.1668  -42.2374 C.2       5 UNK         0.5000 
     46 O          -2.4757  -16.0657  -42.9845 O.2       5 UNK        -0.5000 
     47 CA         -2.2536  -13.6973  -42.6743 C.3       5 UNK         0.1400 
     48 CB         -3.6666  -13.1922  -42.3484 C.3       5 UNK        -0.1800 
     49 N          -1.2665  -12.7978  -42.0668 N.am      5 UNK        -0.5000 
     50 C           0.0538  -12.8508  -42.2874 C.2       4 UNK         0.5000 
     51 O           0.5884  -13.6585  -43.0509 O.2       4 UNK        -0.5000 
     52 CA          0.9125  -11.8913  -41.4554 C.3       4 UNK         0.1400 
     53 CB          1.1636  -12.4782  -40.0534 C.3       4 UNK        -0.1800 
     54 N           2.1871  -11.6485  -42.1235 N.am      4 UNK        -0.5000 
     55 C           2.9672  -10.5810  -41.9247 C.2       3 UNK         0.5000 
     56 O           2.6730   -9.6648  -41.1552 O.2       3 UNK        -0.5000 
     57 CA          4.2939  -10.4945  -42.7066 C.3       3 UNK         0.1400 
     58 CB          5.4108  -11.2800  -41.9915 C.3       3 UNK        -0.1800 
     59 N           4.2091  -10.8488  -44.1309 N.am      3 UNK        -0.5000 
     60 C           3.9876  -12.0470  -44.6846 C.2       2 UNK         0.5000 
     61 O           3.7754  -13.0781  -44.0438 O.2       2 UNK        -0.5000 
     62 CA          4.0234  -12.0995  -46.2170 C.3       2 UNK         0.1400 
     63 CB          5.4738  -12.1321  -46.7336 C.3       2 UNK        -0.1800 
     64 N           3.3145  -13.2927  -46.6636 N.am      2 UNK        -0.5000 
     65 C           2.7658  -13.4659  -47.8710 C.2       1 UNK         0.5000 
     66 O           2.8086  -12.6096  -48.7553 O.2       1 UNK        -0.5000 
     67 C          -0.2129  -22.2479  -47.9109 C.2       11 UNK         0.5000 
     68 O           0.0107  -23.2112  -48.6411 O.2       11 UNK        -0.5000 
     69 N          -1.4480  -21.8067  -47.6251 N.am      12 UNK        -0.5000 
     70 CA         -2.6891  -22.4076  -48.1180 C.3       12 UNK         0.1400 
     71 CB         -3.9027  -21.5978  -47.6394 C.3       12 UNK        -0.1800 
     72 C          -2.8454  -23.8756  -47.6994 C.2       12 UNK         0.5000 
     73 O          -3.2019  -24.7007  -48.5384 O.2       12 UNK        -0.5000 
     74 N          -2.5455  -24.1780  -46.4293 N.am      13 UNK        -0.5000 
     75 CA         -2.5583  -25.5319  -45.8774 C.3       13 UNK         0.1400 
     76 CB         -2.3540  -25.4686  -44.3562 C.3       13 UNK        -0.1800 
     77 C          -1.5160  -26.4543  -46.5370 C.2       13 UNK         0.5000 
     78 O          -1.8326  -27.6057  -46.8373 O.2       13 UNK        -0.5000 
     79 N          -0.3071  -25.9270  -46.7754 N.am      14 UNK        -0.5000 
     80 CA          0.7856  -26.6306  -47.4475 C.3       14 UNK         0.1400 
     81 CB          2.0930  -25.8475  -47.2503 C.3       14 UNK        -0.1800 
     82 C           0.5121  -26.8707  -48.9445 C.2       14 UNK         0.5000 
     83 O           0.7611  -27.9703  -49.4401 O.2       14 UNK        -0.5000 
     84 N           0.0034  -25.8419  -49.6346 N.am      15 UNK        -0.5000 
     85 CA         -0.2916  -25.8593  -51.0684 C.3       15 UNK         0.1400 
     86 CB         -0.3275  -24.4094  -51.5819 C.3       15 UNK        -0.1800 
     87 C          -1.6097  -26.5708  -51.4249 C.2       15 UNK         0.5000 
     88 O          -1.8337  -26.8440  -52.6029 O.2       15 UNK        -0.5000 
     89 N          -2.4772  -26.8049  -50.4295 N.am      16 UNK        -0.5000 
     90 CA         -3.8671  -27.2629  -50.5573 C.3       16 UNK         0.1400 
     91 CB         -3.9366  -28.6990  -51.1171 C.3       16 UNK        -0.1800 
     92 C          -4.7303  -26.2512  -51.3450 C.2       16 UNK         0.5000 
     93 O          -5.5298  -26.6375  -52.1989 O.2       16 UNK        -0.5000 
     94 N          -4.5127  -24.9614  -51.0452 N.am      17 UNK        -0.5000 
     95 CA         -5.1377  -23.7667  -51.6258 C.3       17 UNK         0.1400 
     96 CB         -6.6360  -23.7093  -51.2673 C.3       17 UNK        -0.1800 
     97 C          -4.8851  -23.5689  -53.1384 C.2       17 UNK         0.5000 
     98 O          -5.5981  -22.7909  -53.7753 O.2       17 UNK        -0.5000 
     99 N          -3.8574  -24.2332  -53.6915 N.am      18 UNK        -0.5000 
    100 CA        -3.5048  -24.2219  -55.1181 C.3       18 UNK         0.1400 
    101 CB        -2.4067  -25.2634  -55.3775 C.3       18 UNK        -0.1800 
    102 C         -3.0856  -22.8464  -55.6773 C.2       18 UNK         0.5000 
    103 O         -3.0980  -22.6626  -56.8950 O.2       18 UNK        -0.5000 
    104 N         -2.7511  -21.8988  -54.7904 N.am      19 UNK        -0.5000 
    105 CA        -2.4917  -20.4959  -55.1191 C.3       19 UNK         0.1400 
    106 CB        -1.8263  -19.8190  -53.9116 C.3       19 UNK        -0.1800 
    107 C         -3.7551  -19.7185  -55.5506 C.2       19 UNK         0.5000 
    108 O         -3.6193  -18.6252  -56.1000 O.2       19 UNK        -0.5000 
    109 N         -4.9513  -20.2717  -55.2859 N.am      20 UNK        -0.5000 
    110 CA        -6.2982  -19.8071  -55.6562 C.3       20 UNK         0.1400 
    111 CB        -6.4462  -19.6831  -57.1843 C.3       20 UNK        -0.1800 
    112 C         -6.7747  -18.5235  -54.9462 C.2       20 UNK         0.5000 
    113 O         -7.9712  -18.3873  -54.6872 O.2       20 UNK        -0.5000 
    114 N         -5.8430  -17.6275  -54.5995 N.am      21 UNK        -0.5000 
    115 CA        -6.0620  -16.3887  -53.8466 C.3       21 UNK         0.1400 
    116 CB        -4.7519  -15.5844  -53.8502 C.3       21 UNK        -0.1800 
    117 C         -6.5456  -16.6113  -52.3978 C.2       21 UNK         0.5000 
    118 O         -7.0305  -15.6709  -51.7676 O.2       21 UNK        -0.5000 
    119 N         -6.3919  -17.8423  -51.8976 N.am      22 UNK        -0.5000 
    120 CA        -6.7501  -18.2854  -50.5432 C.3       22 UNK         0.1400 
    121 C         -8.2792  -18.3506  -50.2555 C.2       22 UNK         0.5000 
    122 N         -9.1479  -18.2934  -51.2584 N.am      22 UNK        -0.7600 
    123 O         -8.6823  -18.4552  -49.1007 O.2       22 UNK        -0.5000 
    124 C124       -6.0727  -19.6376  -50.1803 C.3       23 UNK        -0.0398 
    125 S125       -4.3615  -19.8417  -50.7908 S.3       23 UNK        -0.2404 
    126 C126       -3.4970  -18.4597  -49.9724 C.3       23 UNK        -0.0205 
    127 H127        5.7676  -16.5820  -48.1759 H         1 UNK         0.0600 
    128 H128        4.8973  -15.1110  -48.5653 H         1 UNK         0.0600 
    129 H129        4.4939  -16.6296  -49.3881 H         1 UNK         0.0600 
    130 H130        1.9593  -16.1931  -46.5471 H         1 UNK         0.3000 
    131 H131        1.0506  -14.6830  -47.7720 H         1 UNK         0.0600 
    132 H132        2.8787  -14.9161  -50.1863 H         1 UNK         0.0800 
    133 H133        1.9086  -16.2853  -49.7310 H         1 UNK         0.0800 
    134 H134        1.1841  -15.7559  -52.4047 H         1 UNK         0.0800 
    135 H135       -0.4689  -15.2087  -52.5330 H         1 UNK         0.0800 
    136 H136       -2.2374  -16.2545  -50.9680 H         1 UNK         0.1150 
    137 H137       -1.5504  -20.3701  -49.9984 H         1 UNK         0.1150 
    138 H138        1.6197  -18.0018  -51.6364 H         1 UNK         0.1150 
    139 H139        0.4893  -21.4406  -50.6376 H         1 UNK         0.0800 
    140 H140        1.5714  -20.6174  -51.7211 H         1 UNK         0.0800 
    141 H141        0.4333  -19.5900  -48.1185 H         1 UNK         0.0800 
    142 H142        1.9371  -19.5901  -47.2639 H         1 UNK         0.0800 
    143 H143        1.8376  -22.1908  -47.3073 H         1 UNK         0.0600 
    144 H144        0.7126  -20.3947  -45.4569 H         1 UNK         0.3000 
    145 H145       -0.3583  -22.7877  -43.0167 H         1 UNK         0.0600 
    146 H146        1.0483  -21.2905  -41.6284 H         1 UNK         0.0600 
    147 H147        2.0583  -22.3416  -42.6101 H         1 UNK         0.0600 
    148 H148        1.8444  -20.6567  -43.0664 H         1 UNK         0.0600 
    149 H149       -0.5644  -19.9463  -43.1054 H         1 UNK         0.3000 
    150 H150       -3.7430  -19.8131  -44.7997 H         1 UNK         0.0600 
    151 H151       -4.2251  -20.1694  -42.3900 H         1 UNK         0.0600 
    152 H152       -4.2296  -18.4541  -42.7743 H         1 UNK         0.0600 
    153 H153       -2.8514  -19.1684  -41.9404 H         1 UNK         0.0600 
    154 H154       -2.0743  -17.7186  -43.8655 H         1 UNK         0.3000 
    155 H155       -0.0729  -17.3730  -46.8284 H         1 UNK         0.0600 
    156 H156       -2.2946  -15.6579  -45.5995 H         1 UNK         0.0600 
    157 H157       -2.1122  -16.0886  -47.2933 H         1 UNK         0.0600 
    158 H158       -0.9371  -15.0308  -46.5278 H         1 UNK         0.0600 
    159 H159       -0.0851  -15.9840  -44.3196 H         1 UNK         0.3000 
    160 H160        2.2301  -18.1193  -42.6121 H         1 UNK         0.0600 
    161 H161        2.4720  -15.3300  -43.8455 H         1 UNK         0.0600 
    162 H162        3.6551  -16.6248  -43.9316 H         1 UNK         0.0600 
    163 H163        3.3196  -15.8509  -42.3908 H         1 UNK         0.0600 
    164 H164        0.7801  -15.6928  -41.9783 H         1 UNK         0.3000 
    165 H165       -2.0254  -17.3155  -40.4998 H         1 UNK         0.0600 
    166 H166       -1.3033  -16.1077  -38.4578 H         1 UNK         0.0600 
    167 H167       -0.2987  -17.5275  -38.7010 H         1 UNK         0.0600 
    168 H168        0.3298  -15.9333  -39.1017 H         1 UNK         0.0600 
    169 H169       -1.2150  -14.5939  -40.5068 H         1 UNK         0.3000 
    170 H170       -2.1185  -13.6632  -43.7574 H         1 UNK         0.0600 
    171 H171       -4.4242  -13.8278  -42.8090 H         1 UNK         0.0600 
    172 H172       -3.8539  -13.1840  -41.2740 H         1 UNK         0.0600 
    173 H173       -3.8209  -12.1809  -42.7251 H         1 UNK         0.0600 
    174 H174       -1.6272  -12.1124  -41.4184 H         1 UNK         0.3000 
    175 H175        0.3711  -10.9473  -41.3642 H         1 UNK         0.0600 
    176 H176        1.7128  -13.4193  -40.1064 H         1 UNK         0.0600 
    177 H177        1.7392  -11.7916  -39.4325 H         1 UNK         0.0600 
    178 H178        0.2261  -12.6722  -39.5312 H         1 UNK         0.0600 
    179 H179        2.4833  -12.3624  -42.7863 H         1 UNK         0.3000 
    180 H180        4.5869   -9.4434  -42.6931 H         1 UNK         0.0600 
    181 H181        5.1869  -12.3452  -41.9278 H         1 UNK         0.0600 
    182 H182        5.5470  -10.9175  -40.9719 H         1 UNK         0.0600 
    183 H183        6.3647  -11.1672  -42.5066 H         1 UNK         0.0600 
    184 H184        4.3437  -10.0679  -44.7583 H         1 UNK         0.3000 
    185 H185        3.5153  -11.2123  -46.6011 H         1 UNK         0.0600 
    186 H186        6.0315  -11.2567  -46.3990 H         1 UNK         0.0600 
    187 H187        6.0045  -13.0163  -46.3781 H         1 UNK         0.0600 
    188 H188        5.5076  -12.1383  -47.8231 H         1 UNK         0.0600 
    189 H189        3.2225  -14.0091  -45.9539 H         1 UNK         0.3000 
    190 H190       -1.5485  -20.9664  -47.0596 H         1 UNK         0.3000 
    191 H191       -2.6603  -22.3694  -49.2086 H         1 UNK         0.0600 
    192 H192       -4.0563  -21.6852  -46.5647 H         1 UNK         0.0600 
    193 H193       -4.8144  -21.9435  -48.1280 H         1 UNK         0.0600 
    194 H194       -3.7916  -20.5414  -47.8671 H         1 UNK         0.0600 
    195 H195       -2.3072  -23.4235  -45.7924 H         1 UNK         0.3000 
    196 H196       -3.5454  -25.9579  -46.0687 H         1 UNK         0.0600 
    197 H197       -2.3925  -26.4654  -43.9152 H         1 UNK         0.0600 
    198 H198       -3.1309  -24.8706  -43.8794 H         1 UNK         0.0600 
    199 H199       -1.3902  -25.0309  -44.0957 H         1 UNK         0.0600 
    200 H200       -0.1163  -24.9806  -46.4618 H         1 UNK         0.3000 
    201 H201        0.9028  -27.6059  -46.9705 H         1 UNK         0.0600 
    202 H202        2.3319  -25.7413  -46.1920 H         1 UNK         0.0600 
    203 H203        2.0334  -24.8469  -47.6797 H         1 UNK         0.0600 
    204 H204        2.9312  -26.3598  -47.7242 H         1 UNK         0.0600 
    205 H205       -0.1194  -24.9477  -49.1616 H         1 UNK         0.3000 
    206 H206        0.5147  -26.3838  -51.5852 H         1 UNK         0.0600 
    207 H207        0.6144  -23.8985  -51.3816 H         1 UNK         0.0600 
    208 H208       -0.4898  -24.3749  -52.6595 H         1 UNK         0.0600 
    209 H209       -1.1265  -23.8355  -51.1103 H         1 UNK         0.0600 
    210 H210       -2.2161  -26.4826  -49.5062 H         1 UNK         0.3000 
    211 H211       -4.2726  -27.2854  -49.5447 H         1 UNK         0.0600 
    212 H212       -3.6132  -28.7493  -52.1570 H         1 UNK         0.0600 
    213 H213       -4.9565  -29.0827  -51.0754 H         1 UNK         0.0600 
    214 H214       -3.3107  -29.3776  -50.5375 H         1 UNK         0.0600 
    215 H215       -3.8725  -24.7864  -50.2736 H         1 UNK         0.3000 
    216 H216       -4.6564  -22.9187  -51.1373 H         1 UNK         0.0600 
    217 H217       -7.0803  -22.7629  -51.5774 H         1 UNK         0.0600 
    218 H218       -6.7862  -23.7976  -50.1913 H         1 UNK         0.0600 
    219 H219       -7.1983  -24.5075  -51.7524 H         1 UNK         0.0600 
    220 H220       -3.3331  -24.8711  -53.1090 H         1 UNK         0.3000 
    221 H221       -4.3942  -24.5274  -55.6729 H         1 UNK         0.0600 
    222 H222       -1.5008  -25.0429  -54.8126 H         1 UNK         0.0600 
    223 H223       -2.7413  -26.2638  -55.1027 H         1 UNK         0.0600 
    224 H224       -2.1352  -25.2953  -56.4335 H         1 UNK         0.0600 
    225 H225       -2.7621  -22.1400  -53.8110 H         1 UNK         0.3000 
    226 H226       -1.7906  -20.4652  -55.9555 H         1 UNK         0.0600 
    227 H227       -1.5817  -18.7778  -54.1258 H         1 UNK         0.0600 
    228 H228       -2.4798  -19.8261  -53.0406 H         1 UNK         0.0600 
    229 H229       -0.8971  -20.3188  -53.6372 H         1 UNK         0.0600 
    230 H230       -4.9510  -21.1551  -54.7849 H         1 UNK         0.3000 
    231 H231       -6.9718  -20.6010  -55.3292 H         1 UNK         0.0600 
    232 H232       -6.1691  -20.6118  -57.6833 H         1 UNK         0.0600 
    233 H233       -5.8258  -18.8844  -57.5916 H         1 UNK         0.0600 
    234 H234       -7.4788  -19.4626  -57.4576 H         1 UNK         0.0600 
    235 H235       -4.8957  -17.8086  -54.9168 H         1 UNK         0.3000 
    236 H236       -6.8293  -15.8096  -54.3639 H         1 UNK         0.0600 
    237 H237       -4.8729  -14.6333  -53.3301 H         1 UNK         0.0600 
    238 H238       -3.9460  -16.1293  -53.3561 H         1 UNK         0.0600 
    239 H239       -4.4298  -15.3588  -54.8670 H         1 UNK         0.0600 
    240 H240       -5.9623  -18.5404  -52.4857 H         1 UNK         0.3000 
    241 H241       -6.3600  -17.5308  -49.8583 H         1 UNK         0.0600 
    242 H242       -8.8261  -18.2106  -52.2117 H         1 UNK         0.3800 
    243 H243      -10.1360  -18.3334  -51.0640 H         1 UNK         0.3800 
    244 H244       -6.0755  -19.7803  -49.0985 H         1 UNK         0.0800 
    245 H245       -6.6474  -20.4684  -50.5933 H         1 UNK         0.0800 
    246 H246       -4.0324  -17.5329  -50.1784 H         1 UNK         0.0800 
    247 H247       -3.5093  -18.5882  -48.8908 H         1 UNK         0.0800 
@<TRIPOS>BOND
     1    1    2 1    
     2    1  127 1    
     3    1  128 1    
     4    1  129 1    
     5    2    3 2    
     6    2    4 am   BACKBONE|DICT|INTERRES
     7    4    5 1    
     8    4  130 1    
     9    5    6 1    
    10    5   65 1    
    11    5  131 1    
    12    6    7 1    
    13    6  132 1    
    14    6  133 1    
    15    7    8 1    
    16    8    9 1    
    17    8  134 1    
    18    8  135 1    
    19    9   10 ar   
    20    9   14 ar   
    21   10   11 ar   
    22   10  136 1    
    23   11   12 ar   
    24   11  126 1    
    25   12   13 ar   
    26   12  137 1    
    27   13   14 ar   
    28   13   15 1    
    29   14  138 1    
    30   15   16 1    
    31   15  139 1    
    32   15  140 1    
    33   16   17 1    
    34   17   18 1    
    35   17  141 1    
    36   17  142 1    
    37   18   19 1    
    38   18   67 1    
    39   18  143 1    
    40   19   20 am   BACKBONE|DICT|INTERRES
    41   19  144 1    
    42   20   21 2    
    43   20   22 1    
    44   22   23 1    
    45   22   24 1    
    46   22  145 1    
    47   23  146 1    
    48   23  147 1    
    49   23  148 1    
    50   24   25 am   BACKBONE|DICT|INTERRES
    51   24  149 1    
    52   25   26 2    
    53   25   27 1    
    54   27   28 1    
    55   27   29 1    
    56   27  150 1    
    57   28  151 1    
    58   28  152 1    
    59   28  153 1    
    60   29   30 am   BACKBONE|DICT|INTERRES
    61   29  154 1    
    62   30   31 2    
    63   30   32 1    
    64   32   33 1    
    65   32   34 1    
    66   32  155 1    
    67   33  156 1    
    68   33  157 1    
    69   33  158 1    
    70   34   35 am   BACKBONE|DICT|INTERRES
    71   34  159 1    
    72   35   36 2    
    73   35   37 1    
    74   37   38 1    
    75   37   39 1    
    76   37  160 1    
    77   38  161 1    
    78   38  162 1    
    79   38  163 1    
    80   39   40 am   BACKBONE|DICT|INTERRES
    81   39  164 1    
    82   40   41 2    
    83   40   42 1    
    84   42   43 1    
    85   42   44 1    
    86   42  165 1    
    87   43  166 1    
    88   43  167 1    
    89   43  168 1    
    90   44   45 am   BACKBONE|DICT|INTERRES
    91   44  169 1    
    92   45   46 2    
    93   45   47 1    
    94   47   48 1    
    95   47   49 1    
    96   47  170 1    
    97   48  171 1    
    98   48  172 1    
    99   48  173 1    
   100   49   50 am   BACKBONE|DICT|INTERRES
   101   49  174 1    
   102   50   51 2    
   103   50   52 1    
   104   52   53 1    
   105   52   54 1    
   106   52  175 1    
   107   53  176 1    
   108   53  177 1    
   109   53  178 1    
   110   54   55 am   BACKBONE|DICT|INTERRES
   111   54  179 1    
   112   55   56 2    
   113   55   57 1    
   114   57   58 1    
   115   57   59 1    
   116   57  180 1    
   117   58  181 1    
   118   58  182 1    
   119   58  183 1    
   120   59   60 am   BACKBONE|DICT|INTERRES
   121   59  184 1    
   122   60   61 2    
   123   60   62 1    
   124   62   63 1    
   125   62   64 1    
   126   62  185 1    
   127   63  186 1    
   128   63  187 1    
   129   63  188 1    
   130   64   65 am   BACKBONE|DICT|INTERRES
   131   64  189 1    
   132   65   66 2    
   133   67   68 2    
   134   67   69 am   BACKBONE|DICT|INTERRES
   135   69   70 1    
   136   69  190 1    
   137   70   71 1    
   138   70   72 1    
   139   70  191 1    
   140   71  192 1    
   141   71  193 1    
   142   71  194 1    
   143   72   73 2    
   144   72   74 am   BACKBONE|DICT|INTERRES
   145   74   75 1    
   146   74  195 1    
   147   75   76 1    
   148   75   77 1    
   149   75  196 1    
   150   76  197 1    
   151   76  198 1    
   152   76  199 1    
   153   77   78 2    
   154   77   79 am   BACKBONE|DICT|INTERRES
   155   79   80 1    
   156   79  200 1    
   157   80   81 1    
   158   80   82 1    
   159   80  201 1    
   160   81  202 1    
   161   81  203 1    
   162   81  204 1    
   163   82   83 2    
   164   82   84 am   BACKBONE|DICT|INTERRES
   165   84   85 1    
   166   84  205 1    
   167   85   86 1    
   168   85   87 1    
   169   85  206 1    
   170   86  207 1    
   171   86  208 1    
   172   86  209 1    
   173   87   88 2    
   174   87   89 am   BACKBONE|DICT|INTERRES
   175   89   90 1    
   176   89  210 1    
   177   90   91 1    
   178   90   92 1    
   179   90  211 1    
   180   91  212 1    
   181   91  213 1    
   182   91  214 1    
   183   92   93 2    
   184   92   94 am   BACKBONE|DICT|INTERRES
   185   94   95 1    
   186   94  215 1    
   187   95   96 1    
   188   95   97 1    
   189   95  216 1    
   190   96  217 1    
   191   96  218 1    
   192   96  219 1    
   193   97   98 2    
   194   97   99 am   BACKBONE|DICT|INTERRES
   195   99  100 1    
   196   99  220 1    
   197  100  101 1    
   198  100  102 1    
   199  100  221 1    
   200  101  222 1    
   201  101  223 1    
   202  101  224 1    
   203  102  103 2    
   204  102  104 am   BACKBONE|DICT|INTERRES
   205  104  105 1    
   206  104  225 1    
   207  105  106 1    
   208  105  107 1    
   209  105  226 1    
   210  106  227 1    
   211  106  228 1    
   212  106  229 1    
   213  107  108 2    
   214  107  109 am   BACKBONE|DICT|INTERRES
   215  109  110 1    
   216  109  230 1    
   217  110  111 1    
   218  110  112 1    
   219  110  231 1    
   220  111  232 1    
   221  111  233 1    
   222  111  234 1    
   223  112  113 2    
   224  112  114 am   BACKBONE|DICT|INTERRES
   225  114  115 1    
   226  114  235 1    
   227  115  116 1    
   228  115  117 1    
   229  115  236 1    
   230  116  237 1    
   231  116  238 1    
   232  116  239 1    
   233  117  118 2    
   234  117  119 am   BACKBONE|DICT|INTERRES
   235  119  120 1    
   236  119  240 1    
   237  120  121 1    
   238  120  124 1    
   239  120  241 1    
   240  121  122 am   BACKBONE|DICT|INTERRES
   241  121  123 2    
   242  122  242 1    
   243  122  243 1    
   244  124  125 1    
   245  124  244 1    
   246  124  245 1    
   247  125  126 1    
   248  126  246 1    
   249  126  247 1    
@<TRIPOS>SUBSTRUCTURE
     1 UNK         1 GROUP             0       ****    0 ROOT    
