@<TRIPOS>MOLECULE
3R540
247   249    1
SMALL
USER_CHARGES


@<TRIPOS>ATOM
      1 CA         -5.5879  -15.5140  -47.5855 C.3       0 UNK        -0.1800 
      2 C          -4.0994  -15.2954  -47.8098 C.2       0 UNK         0.5000 
      3 O          -3.3167  -15.3981  -46.8662 O.2       0 UNK        -0.5000 
      4 N          -3.7048  -14.9727  -49.0506 N.am      1 UNK        -0.5000 
      5 CA         -2.3140  -14.8014  -49.5093 C.3       1 UNK         0.1400 
      6 C6         -1.5105  -16.1314  -49.4223 C.3       23 UNK        -0.0398 
      7 S7         -0.2614  -16.3033  -50.7428 S.3       23 UNK        -0.2404 
      8 C8         -0.3669  -18.0730  -51.1488 C.3       23 UNK        -0.0205 
      9 C9          1.0132  -18.6412  -51.4327 C.ar      23 UNK        -0.0193 
     10 C10         1.5734  -18.5361  -52.7090 C.ar      23 UNK        -0.1150 
     11 C11         2.8412  -19.0659  -52.9759 C.ar      23 UNK        -0.0193 
     12 C12         3.5486  -19.6950  -51.9477 C.ar      23 UNK        -0.1150 
     13 C13         3.0091  -19.7879  -50.6611 C.ar      23 UNK        -0.0193 
     14 C14         1.7387  -19.2606  -50.4110 C.ar      23 UNK        -0.1150 
     15 C15         3.8217  -20.4236  -49.5416 C.3       23 UNK        -0.0205 
     16 S16         3.0504  -21.9427  -48.9010 S.3       23 UNK        -0.2404 
     17 C17         2.3386  -21.3492  -47.3292 C.3       23 UNK        -0.0398 
     18 CA          1.0582  -22.1204  -46.9313 C.3       11 UNK         0.1400 
     19 N           0.8819  -22.1675  -45.4778 N.am      11 UNK        -0.5000 
     20 C          -0.0014  -22.9532  -44.8461 C.2       10 UNK         0.5000 
     21 O          -0.7358  -23.7567  -45.4218 O.2       10 UNK        -0.5000 
     22 CA         -0.1164  -22.7745  -43.3208 C.3       10 UNK         0.1400 
     23 CB          1.0140  -23.5186  -42.5947 C.3       10 UNK        -0.1800 
     24 N          -0.1154  -21.3655  -42.9232 N.am      10 UNK        -0.5000 
     25 C          -1.0688  -20.4866  -43.2633 C.2       9 UNK         0.5000 
     26 O          -2.0821  -20.7914  -43.8899 O.2       9 UNK        -0.5000 
     27 CA         -0.8304  -19.0128  -42.8933 C.3       9 UNK         0.1400 
     28 CB         -1.2357  -18.7346  -41.4390 C.3       9 UNK        -0.1800 
     29 N           0.5535  -18.5920  -43.1071 N.am      9 UNK        -0.5000 
     30 C           1.1707  -18.5563  -44.2961 C.2       8 UNK         0.5000 
     31 O           0.6330  -18.8590  -45.3582 O.2       8 UNK        -0.5000 
     32 CA          2.6548  -18.1611  -44.2935 C.3       8 UNK         0.1400 
     33 CB          2.8186  -16.6355  -44.2085 C.3       8 UNK        -0.1800 
     34 N           3.3820  -18.8068  -43.2020 N.am      8 UNK        -0.5000 
     35 C           3.6055  -20.1267  -43.1232 C.2       7 UNK         0.5000 
     36 O           3.2597  -20.9331  -43.9874 O.2       7 UNK        -0.5000 
     37 CA          4.2892  -20.6297  -41.8393 C.3       7 UNK         0.1400 
     38 CB          5.8121  -20.4514  -41.9286 C.3       7 UNK        -0.1800 
     39 N           3.7884  -19.9537  -40.6408 N.am      7 UNK        -0.5000 
     40 C           2.5435  -20.0920  -40.1633 C.2       6 UNK         0.5000 
     41 O           1.6961  -20.8282  -40.6680 O.2       6 UNK        -0.5000 
     42 CA          2.1698  -19.2267  -38.9450 C.3       6 UNK         0.1400 
     43 CB          2.6148  -19.9074  -37.6420 C.3       6 UNK        -0.1800 
     44 N           2.7171  -17.8664  -38.9969 N.am      6 UNK        -0.5000 
     45 C           2.4344  -16.9710  -39.9519 C.2       5 UNK         0.5000 
     46 O           1.7363  -17.2209  -40.9364 O.2       5 UNK        -0.5000 
     47 CA          3.0756  -15.5786  -39.8130 C.3       5 UNK         0.1400 
     48 CB          4.4641  -15.5692  -40.4711 C.3       5 UNK        -0.1800 
     49 N           2.2491  -14.5453  -40.4404 N.am      5 UNK        -0.5000 
     50 C           1.0579  -14.1387  -39.9753 C.2       4 UNK         0.5000 
     51 O           0.5756  -14.5121  -38.9053 O.2       4 UNK        -0.5000 
     52 CA          0.2605  -13.1815  -40.8721 C.3       4 UNK         0.1400 
     53 CB          0.8129  -11.7467  -40.7979 C.3       4 UNK        -0.1800 
     54 N           0.2639  -13.6659  -42.2520 N.am      4 UNK        -0.5000 
     55 C          -0.6824  -13.4059  -43.1603 C.2       3 UNK         0.5000 
     56 O          -1.6703  -12.6989  -42.9433 O.2       3 UNK        -0.5000 
     57 CA         -0.5023  -14.0960  -44.5271 C.3       3 UNK         0.1400 
     58 CB         -0.9770  -15.5543  -44.4539 C.3       3 UNK        -0.1800 
     59 N          -1.2176  -13.4245  -45.6120 N.am      3 UNK        -0.5000 
     60 C          -0.9230  -12.2072  -46.0938 C.2       2 UNK         0.5000 
     61 O           0.0128  -11.5210  -45.6772 O.2       2 UNK        -0.5000 
     62 CA         -1.8171  -11.6817  -47.2430 C.3       2 UNK         0.1400 
     63 CB         -1.1539  -10.5527  -48.0601 C.3       2 UNK        -0.1800 
     64 N          -2.3052  -12.7496  -48.1250 N.am      2 UNK        -0.5000 
     65 C          -1.5663  -13.6172  -48.8363 C.2       1 UNK         0.5000 
     66 O          -0.3443  -13.5201  -48.9538 O.2       1 UNK        -0.5000 
     67 C          -0.1976  -21.5722  -47.6425 C.2       11 UNK         0.5000 
     68 O          -0.6303  -22.1452  -48.6409 O.2       11 UNK        -0.5000 
     69 N          -0.7965  -20.5096  -47.0860 N.am      12 UNK        -0.5000 
     70 CA         -2.0566  -19.9266  -47.5418 C.3       12 UNK         0.1400 
     71 CB         -2.3531  -18.6371  -46.7670 C.3       12 UNK        -0.1800 
     72 C          -3.2371  -20.9028  -47.4361 C.2       12 UNK         0.5000 
     73 O          -4.0297  -20.9786  -48.3720 O.2       12 UNK        -0.5000 
     74 N          -3.3192  -21.6543  -46.3297 N.am      13 UNK        -0.5000 
     75 CA         -4.3134  -22.7066  -46.1164 C.3       13 UNK         0.1400 
     76 CB         -4.2309  -23.2214  -44.6718 C.3       13 UNK        -0.1800 
     77 C          -4.1717  -23.8604  -47.1248 C.2       13 UNK         0.5000 
     78 O          -5.1765  -24.2946  -47.6890 O.2       13 UNK        -0.5000 
     79 N          -2.9284  -24.2937  -47.3820 N.am      14 UNK        -0.5000 
     80 CA         -2.5909  -25.2880  -48.4055 C.3       14 UNK         0.1400 
     81 CB         -1.1071  -25.6669  -48.2858 C.3       14 UNK        -0.1800 
     82 C          -2.9267  -24.8142  -49.8346 C.2       14 UNK         0.5000 
     83 O          -3.3860  -25.6146  -50.6493 O.2       14 UNK        -0.5000 
     84 N          -2.7432  -23.5126  -50.0908 N.am      15 UNK        -0.5000 
     85 CA         -3.1120  -22.8233  -51.3275 C.3       15 UNK         0.1400 
     86 CB         -2.2006  -21.5951  -51.5003 C.3       15 UNK        -0.1800 
     87 C          -4.6027  -22.4209  -51.3928 C.2       15 UNK         0.5000 
     88 O          -4.9811  -21.6882  -52.3076 O.2       15 UNK        -0.5000 
     89 N          -5.4247  -22.8650  -50.4291 N.am      16 UNK        -0.5000 
     90 CA         -6.8701  -22.6348  -50.3217 C.3       16 UNK         0.1400 
     91 CB         -7.6131  -23.3923  -51.4427 C.3       16 UNK        -0.1800 
     92 C          -7.2411  -21.1373  -50.2598 C.2       16 UNK         0.5000 
     93 O          -8.1269  -20.6871  -50.9856 O.2       16 UNK        -0.5000 
     94 N          -6.5133  -20.3807  -49.4265 N.am      17 UNK        -0.5000 
     95 CA         -6.5707  -18.9212  -49.2716 C.3       17 UNK         0.1400 
     96 CB         -7.9427  -18.4639  -48.7338 C.3       17 UNK        -0.1800 
     97 C          -6.1364  -18.1787  -50.5535 C.2       17 UNK         0.5000 
     98 O          -6.6559  -17.1050  -50.8586 O.2       17 UNK        -0.5000 
     99 N          -5.1863  -18.7893  -51.2756 N.am      18 UNK        -0.5000 
    100 CA        -4.6320  -18.3913  -52.5719 C.3       18 UNK         0.1400 
    101 CB        -4.0021  -16.9840  -52.5205 C.3       18 UNK        -0.1800 
    102 C         -5.6015  -18.5759  -53.7595 C.2       18 UNK         0.5000 
    103 O         -5.3253  -18.0587  -54.8425 O.2       18 UNK        -0.5000 
    104 N         -6.6873  -19.3444  -53.5765 N.am      19 UNK        -0.5000 
    105 CA        -7.5746  -19.7734  -54.6635 C.3       19 UNK         0.1400 
    106 CB        -8.8984  -20.2911  -54.0837 C.3       19 UNK        -0.1800 
    107 C         -6.9201  -20.8472  -55.5555 C.2       19 UNK         0.5000 
    108 O         -7.2046  -20.9009  -56.7523 O.2       19 UNK        -0.5000 
    109 N         -6.0307  -21.6523  -54.9633 N.am      20 UNK        -0.5000 
    110 CA        -5.1500  -22.6060  -55.6267 C.3       20 UNK         0.1400 
    111 CB        -5.4344  -24.0152  -55.0756 C.3       20 UNK        -0.1800 
    112 C         -3.7085  -22.1378  -55.3678 C.2       20 UNK         0.5000 
    113 O         -2.9339  -22.8379  -54.7120 O.2       20 UNK        -0.5000 
    114 N         -3.4147  -20.9127  -55.8317 N.am      21 UNK        -0.5000 
    115 CA        -2.1966  -20.1378  -55.5850 C.3       21 UNK         0.1400 
    116 CB        -2.1783  -18.9123  -56.5115 C.3       21 UNK        -0.1800 
    117 C         -0.8958  -20.9476  -55.7306 C.2       21 UNK         0.5000 
    118 O         -0.6323  -21.5039  -56.7991 O.2       21 UNK        -0.5000 
    119 N         -0.1305  -20.9934  -54.6353 N.am      22 UNK        -0.5000 
    120 CA         1.1439  -21.7128  -54.4801 C.3       22 UNK         0.1400 
    121 C          1.0178  -23.2660  -54.4172 C.2       22 UNK         0.5000 
    122 N         -0.1762  -23.8468  -54.3705 N.am      22 UNK        -0.7600 
    123 O          2.0274  -23.9641  -54.3789 O.2       22 UNK        -0.5000 
    124 C124        2.2576  -21.2542  -55.4700 C.3       23 UNK        -0.0398 
    125 S125        2.3728  -19.4440  -55.7136 S.3       23 UNK        -0.2404 
    126 C126        3.4744  -18.9310  -54.3567 C.3       23 UNK        -0.0205 
    127 H127       -5.9770  -14.7635  -46.8977 H         1 UNK         0.0600 
    128 H128       -5.7593  -16.4977  -47.1489 H         1 UNK         0.0600 
    129 H129       -6.1520  -15.4501  -48.5162 H         1 UNK         0.0600 
    130 H130       -4.4067  -14.8704  -49.7711 H         1 UNK         0.3000 
    131 H131       -2.4052  -14.5280  -50.5617 H         1 UNK         0.0600 
    132 H132       -1.0197  -16.2353  -48.4531 H         1 UNK         0.0800 
    133 H133       -2.1952  -16.9769  -49.4960 H         1 UNK         0.0800 
    134 H134       -0.8210  -18.6272  -50.3282 H         1 UNK         0.0800 
    135 H135       -1.0201  -18.2091  -52.0118 H         1 UNK         0.0800 
    136 H136        1.0236  -18.0374  -53.4949 H         1 UNK         0.1150 
    137 H137        4.5334  -20.0952  -52.1443 H         1 UNK         0.1150 
    138 H138        1.3158  -19.3259  -49.4189 H         1 UNK         0.1150 
    139 H139        4.8205  -20.6799  -49.8979 H         1 UNK         0.0800 
    140 H140        3.9708  -19.6975  -48.7415 H         1 UNK         0.0800 
    141 H141        2.1591  -20.2731  -47.3591 H         1 UNK         0.0800 
    142 H142        3.1133  -21.4970  -46.5761 H         1 UNK         0.0800 
    143 H143        1.1772  -23.1583  -47.2508 H         1 UNK         0.0600 
    144 H144        1.4704  -21.5530  -44.9263 H         1 UNK         0.3000 
    145 H145       -1.0667  -23.2108  -43.0062 H         1 UNK         0.0600 
    146 H146        0.8899  -23.4624  -41.5131 H         1 UNK         0.0600 
    147 H147        1.0246  -24.5747  -42.8669 H         1 UNK         0.0600 
    148 H148        1.9927  -23.1054  -42.8397 H         1 UNK         0.0600 
    149 H149        0.6604  -21.0514  -42.3482 H         1 UNK         0.3000 
    150 H150       -1.4647  -18.4050  -43.5407 H         1 UNK         0.0600 
    151 H151       -2.2790  -19.0017  -41.2668 H         1 UNK         0.0600 
    152 H152       -1.1246  -17.6778  -41.1947 H         1 UNK         0.0600 
    153 H153       -0.6295  -19.3056  -40.7361 H         1 UNK         0.0600 
    154 H154        1.0617  -18.2721  -42.2855 H         1 UNK         0.3000 
    155 H155        3.0912  -18.4966  -45.2368 H         1 UNK         0.0600 
    156 H156        2.3974  -16.2299  -43.2893 H         1 UNK         0.0600 
    157 H157        3.8694  -16.3491  -44.2511 H         1 UNK         0.0600 
    158 H158        2.3147  -16.1455  -45.0427 H         1 UNK         0.0600 
    159 H159        3.6485  -18.2236  -42.4236 H         1 UNK         0.3000 
    160 H160        4.0750  -21.6965  -41.7443 H         1 UNK         0.0600 
    161 H161        6.0934  -19.4000  -41.9991 H         1 UNK         0.0600 
    162 H162        6.2128  -20.9584  -42.8075 H         1 UNK         0.0600 
    163 H163        6.3099  -20.8745  -41.0559 H         1 UNK         0.0600 
    164 H164        4.4218  -19.3277  -40.1659 H         1 UNK         0.3000 
    165 H165        1.0815  -19.1420  -38.9269 H         1 UNK         0.0600 
    166 H166        2.2669  -19.3544  -36.7693 H         1 UNK         0.0600 
    167 H167        2.2061  -20.9162  -37.5693 H         1 UNK         0.0600 
    168 H168        3.7007  -19.9877  -37.5785 H         1 UNK         0.0600 
    169 H169        3.3118  -17.5922  -38.2281 H         1 UNK         0.3000 
    170 H170        3.1835  -15.3425  -38.7522 H         1 UNK         0.0600 
    171 H171        4.4084  -15.7942  -41.5369 H         1 UNK         0.0600 
    172 H172        4.9464  -14.5979  -40.3588 H         1 UNK         0.0600 
    173 H173        5.1212  -16.3098  -40.0134 H         1 UNK         0.0600 
    174 H174        2.5975  -14.1620  -41.3052 H         1 UNK         0.3000 
    175 H175       -0.7671  -13.1772  -40.5017 H         1 UNK         0.0600 
    176 H176        0.1881  -11.0535  -41.3613 H         1 UNK         0.0600 
    177 H177        1.8257  -11.6827  -41.1970 H         1 UNK         0.0600 
    178 H178        0.8412  -11.3922  -39.7667 H         1 UNK         0.0600 
    179 H179        0.9936  -14.3237  -42.4831 H         1 UNK         0.3000 
    180 H180        0.5615  -14.0894  -44.7738 H         1 UNK         0.0600 
    181 H181       -2.0534  -15.6204  -44.2908 H         1 UNK         0.0600 
    182 H182       -0.4906  -16.0807  -43.6336 H         1 UNK         0.0600 
    183 H183       -0.7437  -16.0928  -45.3726 H         1 UNK         0.0600 
    184 H184       -1.9985  -13.9328  -46.0114 H         1 UNK         0.3000 
    185 H185       -2.7005  -11.2597  -46.7619 H         1 UNK         0.0600 
    186 H186       -0.9262   -9.6943  -47.4272 H         1 UNK         0.0600 
    187 H187       -0.2188  -10.8772  -48.5173 H         1 UNK         0.0600 
    188 H188       -1.8123  -10.2021  -48.8548 H         1 UNK         0.0600 
    189 H189       -3.3002  -12.9204  -48.0912 H         1 UNK         0.3000 
    190 H190       -0.3460  -20.0484  -46.2977 H         1 UNK         0.3000 
    191 H191       -1.9385  -19.6681  -48.5941 H         1 UNK         0.0600 
    192 H192       -1.5419  -17.9177  -46.8694 H         1 UNK         0.0600 
    193 H193       -3.2616  -18.1629  -47.1384 H         1 UNK         0.0600 
    194 H194       -2.4961  -18.8258  -45.7038 H         1 UNK         0.0600 
    195 H195       -2.6689  -21.4801  -45.5679 H         1 UNK         0.3000 
    196 H196       -5.3007  -22.2624  -46.2593 H         1 UNK         0.0600 
    197 H197       -4.9782  -23.9946  -44.4895 H         1 UNK         0.0600 
    198 H198       -4.4129  -22.4183  -43.9575 H         1 UNK         0.0600 
    199 H199       -3.2538  -23.6499  -44.4495 H         1 UNK         0.0600 
    200 H200       -2.1558  -23.9091  -46.8466 H         1 UNK         0.3000 
    201 H201       -3.1853  -26.1820  -48.2064 H         1 UNK         0.0600 
    202 H202       -0.8788  -26.0575  -47.2939 H         1 UNK         0.0600 
    203 H203       -0.4555  -24.8119  -48.4655 H         1 UNK         0.0600 
    204 H204       -0.8422  -26.4387  -49.0094 H         1 UNK         0.0600 
    205 H205       -2.2894  -22.9439  -49.3823 H         1 UNK         0.3000 
    206 H206       -2.9286  -23.4987  -52.1645 H         1 UNK         0.0600 
    207 H207       -1.1480  -21.8789  -51.4790 H         1 UNK         0.0600 
    208 H208       -2.3819  -21.1047  -52.4560 H         1 UNK         0.0600 
    209 H209       -2.3656  -20.8592  -50.7136 H         1 UNK         0.0600 
    210 H210       -5.0218  -23.4153  -49.6808 H         1 UNK         0.3000 
    211 H211       -7.1812  -23.0652  -49.3689 H         1 UNK         0.0600 
    212 H212       -7.3648  -23.0036  -52.4307 H         1 UNK         0.0600 
    213 H213       -8.6939  -23.3111  -51.3213 H         1 UNK         0.0600 
    214 H214       -7.3647  -24.4535  -51.4306 H         1 UNK         0.0600 
    215 H215       -5.7354  -20.8244  -48.9396 H         1 UNK         0.3000 
    216 H216       -5.8247  -18.6721  -48.5158 H         1 UNK         0.0600 
    217 H217       -7.9291  -17.4039  -48.4788 H         1 UNK         0.0600 
    218 H218       -8.2133  -19.0103  -47.8304 H         1 UNK         0.0600 
    219 H219       -8.7371  -18.6099  -49.4660 H         1 UNK         0.0600 
    220 H220       -4.8811  -19.6957  -50.9479 H         1 UNK         0.3000 
    221 H221       -3.8195  -19.0936  -52.7579 H         1 UNK         0.0600 
    222 H222       -4.7574  -16.2017  -52.4466 H         1 UNK         0.0600 
    223 H223       -3.3291  -16.8841  -51.6707 H         1 UNK         0.0600 
    224 H224       -3.4172  -16.7853  -53.4193 H         1 UNK         0.0600 
    225 H225       -6.8599  -19.7453  -52.6631 H         1 UNK         0.3000 
    226 H226       -7.7971  -18.9064  -55.2890 H         1 UNK         0.0600 
    227 H227       -9.3599  -19.5532  -53.4272 H         1 UNK         0.0600 
    228 H228       -9.6106  -20.5111  -54.8798 H         1 UNK         0.0600 
    229 H229       -8.7567  -21.2085  -53.5122 H         1 UNK         0.0600 
    230 H230       -5.8248  -21.5106  -53.9762 H         1 UNK         0.3000 
    231 H231       -5.3117  -22.6130  -56.7064 H         1 UNK         0.0600 
    232 H232       -5.2762  -24.0679  -53.9977 H         1 UNK         0.0600 
    233 H233       -4.7831  -24.7553  -55.5416 H         1 UNK         0.0600 
    234 H234       -6.4635  -24.3135  -55.2753 H         1 UNK         0.0600 
    235 H235       -4.1356  -20.4293  -56.3471 H         1 UNK         0.3000 
    236 H236       -2.2647  -19.7717  -54.5595 H         1 UNK         0.0600 
    237 H237       -3.0407  -18.2690  -56.3378 H         1 UNK         0.0600 
    238 H238       -1.2854  -18.3086  -56.3423 H         1 UNK         0.0600 
    239 H239       -2.1829  -19.2042  -57.5624 H         1 UNK         0.0600 
    240 H240       -0.4439  -20.5137  -53.8059 H         1 UNK         0.3000 
    241 H241        1.4827  -21.4447  -53.4799 H         1 UNK         0.0600 
    242 H242       -1.0350  -23.3091  -54.4382 H         1 UNK         0.3800 
    243 H243       -0.2287  -24.8511  -54.3194 H         1 UNK         0.3800 
    244 H244        3.2300  -21.6251  -55.1423 H         1 UNK         0.0800 
    245 H245        2.0860  -21.6993  -56.4512 H         1 UNK         0.0800 
    246 H246        3.7464  -17.8857  -54.5077 H         1 UNK         0.0800 
    247 H247        4.4025  -19.5010  -54.4207 H         1 UNK         0.0800 
@<TRIPOS>BOND
     1    1    2 1    
     2    1  127 1    
     3    1  128 1    
     4    1  129 1    
     5    2    3 2    
     6    2    4 am   BACKBONE|DICT|INTERRES
     7    4    5 1    
     8    4  130 1    
     9    5    6 1    
    10    5   65 1    
    11    5  131 1    
    12    6    7 1    
    13    6  132 1    
    14    6  133 1    
    15    7    8 1    
    16    8    9 1    
    17    8  134 1    
    18    8  135 1    
    19    9   10 ar   
    20    9   14 ar   
    21   10   11 ar   
    22   10  136 1    
    23   11   12 ar   
    24   11  126 1    
    25   12   13 ar   
    26   12  137 1    
    27   13   14 ar   
    28   13   15 1    
    29   14  138 1    
    30   15   16 1    
    31   15  139 1    
    32   15  140 1    
    33   16   17 1    
    34   17   18 1    
    35   17  141 1    
    36   17  142 1    
    37   18   19 1    
    38   18   67 1    
    39   18  143 1    
    40   19   20 am   BACKBONE|DICT|INTERRES
    41   19  144 1    
    42   20   21 2    
    43   20   22 1    
    44   22   23 1    
    45   22   24 1    
    46   22  145 1    
    47   23  146 1    
    48   23  147 1    
    49   23  148 1    
    50   24   25 am   BACKBONE|DICT|INTERRES
    51   24  149 1    
    52   25   26 2    
    53   25   27 1    
    54   27   28 1    
    55   27   29 1    
    56   27  150 1    
    57   28  151 1    
    58   28  152 1    
    59   28  153 1    
    60   29   30 am   BACKBONE|DICT|INTERRES
    61   29  154 1    
    62   30   31 2    
    63   30   32 1    
    64   32   33 1    
    65   32   34 1    
    66   32  155 1    
    67   33  156 1    
    68   33  157 1    
    69   33  158 1    
    70   34   35 am   BACKBONE|DICT|INTERRES
    71   34  159 1    
    72   35   36 2    
    73   35   37 1    
    74   37   38 1    
    75   37   39 1    
    76   37  160 1    
    77   38  161 1    
    78   38  162 1    
    79   38  163 1    
    80   39   40 am   BACKBONE|DICT|INTERRES
    81   39  164 1    
    82   40   41 2    
    83   40   42 1    
    84   42   43 1    
    85   42   44 1    
    86   42  165 1    
    87   43  166 1    
    88   43  167 1    
    89   43  168 1    
    90   44   45 am   BACKBONE|DICT|INTERRES
    91   44  169 1    
    92   45   46 2    
    93   45   47 1    
    94   47   48 1    
    95   47   49 1    
    96   47  170 1    
    97   48  171 1    
    98   48  172 1    
    99   48  173 1    
   100   49   50 am   BACKBONE|DICT|INTERRES
   101   49  174 1    
   102   50   51 2    
   103   50   52 1    
   104   52   53 1    
   105   52   54 1    
   106   52  175 1    
   107   53  176 1    
   108   53  177 1    
   109   53  178 1    
   110   54   55 am   BACKBONE|DICT|INTERRES
   111   54  179 1    
   112   55   56 2    
   113   55   57 1    
   114   57   58 1    
   115   57   59 1    
   116   57  180 1    
   117   58  181 1    
   118   58  182 1    
   119   58  183 1    
   120   59   60 am   BACKBONE|DICT|INTERRES
   121   59  184 1    
   122   60   61 2    
   123   60   62 1    
   124   62   63 1    
   125   62   64 1    
   126   62  185 1    
   127   63  186 1    
   128   63  187 1    
   129   63  188 1    
   130   64   65 am   BACKBONE|DICT|INTERRES
   131   64  189 1    
   132   65   66 2    
   133   67   68 2    
   134   67   69 am   BACKBONE|DICT|INTERRES
   135   69   70 1    
   136   69  190 1    
   137   70   71 1    
   138   70   72 1    
   139   70  191 1    
   140   71  192 1    
   141   71  193 1    
   142   71  194 1    
   143   72   73 2    
   144   72   74 am   BACKBONE|DICT|INTERRES
   145   74   75 1    
   146   74  195 1    
   147   75   76 1    
   148   75   77 1    
   149   75  196 1    
   150   76  197 1    
   151   76  198 1    
   152   76  199 1    
   153   77   78 2    
   154   77   79 am   BACKBONE|DICT|INTERRES
   155   79   80 1    
   156   79  200 1    
   157   80   81 1    
   158   80   82 1    
   159   80  201 1    
   160   81  202 1    
   161   81  203 1    
   162   81  204 1    
   163   82   83 2    
   164   82   84 am   BACKBONE|DICT|INTERRES
   165   84   85 1    
   166   84  205 1    
   167   85   86 1    
   168   85   87 1    
   169   85  206 1    
   170   86  207 1    
   171   86  208 1    
   172   86  209 1    
   173   87   88 2    
   174   87   89 am   BACKBONE|DICT|INTERRES
   175   89   90 1    
   176   89  210 1    
   177   90   91 1    
   178   90   92 1    
   179   90  211 1    
   180   91  212 1    
   181   91  213 1    
   182   91  214 1    
   183   92   93 2    
   184   92   94 am   BACKBONE|DICT|INTERRES
   185   94   95 1    
   186   94  215 1    
   187   95   96 1    
   188   95   97 1    
   189   95  216 1    
   190   96  217 1    
   191   96  218 1    
   192   96  219 1    
   193   97   98 2    
   194   97   99 am   BACKBONE|DICT|INTERRES
   195   99  100 1    
   196   99  220 1    
   197  100  101 1    
   198  100  102 1    
   199  100  221 1    
   200  101  222 1    
   201  101  223 1    
   202  101  224 1    
   203  102  103 2    
   204  102  104 am   BACKBONE|DICT|INTERRES
   205  104  105 1    
   206  104  225 1    
   207  105  106 1    
   208  105  107 1    
   209  105  226 1    
   210  106  227 1    
   211  106  228 1    
   212  106  229 1    
   213  107  108 2    
   214  107  109 am   BACKBONE|DICT|INTERRES
   215  109  110 1    
   216  109  230 1    
   217  110  111 1    
   218  110  112 1    
   219  110  231 1    
   220  111  232 1    
   221  111  233 1    
   222  111  234 1    
   223  112  113 2    
   224  112  114 am   BACKBONE|DICT|INTERRES
   225  114  115 1    
   226  114  235 1    
   227  115  116 1    
   228  115  117 1    
   229  115  236 1    
   230  116  237 1    
   231  116  238 1    
   232  116  239 1    
   233  117  118 2    
   234  117  119 am   BACKBONE|DICT|INTERRES
   235  119  120 1    
   236  119  240 1    
   237  120  121 1    
   238  120  124 1    
   239  120  241 1    
   240  121  122 am   BACKBONE|DICT|INTERRES
   241  121  123 2    
   242  122  242 1    
   243  122  243 1    
   244  124  125 1    
   245  124  244 1    
   246  124  245 1    
   247  125  126 1    
   248  126  246 1    
   249  126  247 1    
@<TRIPOS>SUBSTRUCTURE
     1 UNK         1 GROUP             0       ****    0 ROOT    
