@<TRIPOS>MOLECULE
3R540
247   249    1
SMALL
USER_CHARGES


@<TRIPOS>ATOM
      1 CA          2.7380  -16.1803  -47.0354 C.3       0 UNK        -0.1800 
      2 C           1.5156  -15.4482  -47.5635 C.2       0 UNK         0.5000 
      3 O           0.3864  -15.8466  -47.2861 O.2       0 UNK        -0.5000 
      4 N           1.7220  -14.3592  -48.3103 N.am      1 UNK        -0.5000 
      5 CA          0.6577  -13.5770  -48.9496 C.3       1 UNK         0.1400 
      6 C6          1.1476  -12.8546  -50.2303 C.3       23 UNK        -0.0398 
      7 S7          2.0240  -13.9659  -51.3875 S.3       23 UNK        -0.2404 
      8 C8          0.6630  -14.6538  -52.3843 C.3       23 UNK        -0.0205 
      9 C9         -0.1874  -15.6732  -51.6333 C.ar      23 UNK        -0.0193 
     10 C10        -1.5680  -15.4809  -51.5193 C.ar      23 UNK        -0.1150 
     11 C11        -2.3758  -16.4611  -50.9358 C.ar      23 UNK        -0.0193 
     12 C12        -1.7868  -17.6131  -50.4092 C.ar      23 UNK        -0.1150 
     13 C13        -0.4085  -17.8151  -50.5019 C.ar      23 UNK        -0.0193 
     14 C14         0.3867  -16.8420  -51.1177 C.ar      23 UNK        -0.1150 
     15 C15         0.1991  -19.1168  -49.9996 C.3       23 UNK        -0.0205 
     16 S16         0.3347  -19.1681  -48.1839 S.3       23 UNK        -0.2404 
     17 C17         1.0733  -20.8249  -47.9528 C.3       23 UNK        -0.0398 
     18 CA          0.2399  -21.8775  -47.1690 C.3       11 UNK         0.1400 
     19 N           0.5269  -21.8792  -45.7297 N.am      11 UNK        -0.5000 
     20 C           0.2652  -22.9191  -44.9240 C.2       10 UNK         0.5000 
     21 O          -0.3477  -23.9200  -45.2952 O.2       10 UNK        -0.5000 
     22 CA          0.7523  -22.8307  -43.4690 C.3       10 UNK         0.1400 
     23 CB          2.2813  -22.9600  -43.3828 C.3       10 UNK        -0.1800 
     24 N           0.3252  -21.5853  -42.8416 N.am      10 UNK        -0.5000 
     25 C          -0.8928  -21.3852  -42.3199 C.2       9 UNK         0.5000 
     26 O          -1.7575  -22.2584  -42.2446 O.2       9 UNK        -0.5000 
     27 CA         -1.2093  -19.9633  -41.8145 C.3       9 UNK         0.1400 
     28 CB         -0.8438  -19.8267  -40.3288 C.3       9 UNK        -0.1800 
     29 N          -0.5335  -18.9079  -42.5704 N.am      9 UNK        -0.5000 
     30 C          -0.6802  -18.6934  -43.8857 C.2       8 UNK         0.5000 
     31 O          -1.4227  -19.3525  -44.6097 O.2       8 UNK        -0.5000 
     32 CA          0.2020  -17.6012  -44.5041 C.3       8 UNK         0.1400 
     33 CB         -0.4001  -16.2119  -44.2390 C.3       8 UNK        -0.1800 
     34 N           1.5792  -17.6524  -44.0131 N.am      8 UNK        -0.5000 
     35 C           2.4147  -18.6910  -44.1580 C.2       7 UNK         0.5000 
     36 O           2.1154  -19.7357  -44.7356 O.2       7 UNK        -0.5000 
     37 CA          3.8024  -18.5610  -43.5095 C.3       7 UNK         0.1400 
     38 CB          4.7976  -17.8690  -44.4529 C.3       7 UNK        -0.1800 
     39 N           3.7336  -17.8285  -42.2465 N.am      7 UNK        -0.5000 
     40 C           3.3572  -18.3718  -41.0812 C.2       6 UNK         0.5000 
     41 O           3.1004  -19.5672  -40.9345 O.2       6 UNK        -0.5000 
     42 CA          3.2239  -17.4130  -39.8824 C.3       6 UNK         0.1400 
     43 CB          4.5756  -17.2442  -39.1726 C.3       6 UNK        -0.1800 
     44 N           2.7061  -16.0940  -40.2546 N.am      6 UNK        -0.5000 
     45 C           1.4623  -15.8696  -40.6999 C.2       5 UNK         0.5000 
     46 O           0.6178  -16.7549  -40.8402 O.2       5 UNK        -0.5000 
     47 CA          1.1124  -14.4188  -41.0872 C.3       5 UNK         0.1400 
     48 CB          0.6532  -13.6307  -39.8518 C.3       5 UNK        -0.1800 
     49 N           2.1775  -13.6701  -41.7647 N.am      5 UNK        -0.5000 
     50 C           2.8574  -14.0654  -42.8494 C.2       4 UNK         0.5000 
     51 O           2.7736  -15.1918  -43.3374 O.2       4 UNK        -0.5000 
     52 CA          3.7274  -12.9972  -43.5329 C.3       4 UNK         0.1400 
     53 CB          4.6954  -13.5953  -44.5695 C.3       4 UNK        -0.1800 
     54 N           2.8554  -12.0355  -44.2027 N.am      4 UNK        -0.5000 
     55 C           2.3237  -10.9495  -43.6287 C.2       3 UNK         0.5000 
     56 O           2.5799  -10.5893  -42.4788 O.2       3 UNK        -0.5000 
     57 CA          1.3069  -10.1580  -44.4712 C.3       3 UNK         0.1400 
     58 CB          2.0256   -9.1734  -45.4058 C.3       3 UNK        -0.1800 
     59 N           0.4230  -11.0163  -45.2643 N.am      3 UNK        -0.5000 
     60 C          -0.4910  -11.8585  -44.7655 C.2       2 UNK         0.5000 
     61 O          -0.6688  -12.0325  -43.5597 O.2       2 UNK        -0.5000 
     62 CA         -1.3605  -12.6401  -45.7700 C.3       2 UNK         0.1400 
     63 CB         -2.5555  -11.7928  -46.2456 C.3       2 UNK        -0.1800 
     64 N          -0.6313  -13.2196  -46.9049 N.am      2 UNK        -0.5000 
     65 C          -0.0082  -12.6245  -47.9313 C.2       1 UNK         0.5000 
     66 O           0.0873  -11.4028  -48.0616 O.2       1 UNK        -0.5000 
     67 C          -1.2722  -21.8950  -47.4923 C.2       11 UNK         0.5000 
     68 O          -1.6589  -22.4950  -48.4939 O.2       11 UNK        -0.5000 
     69 N          -2.0996  -21.3003  -46.6190 N.am      12 UNK        -0.5000 
     70 CA         -3.5611  -21.3414  -46.6994 C.3       12 UNK         0.1400 
     71 CB         -4.1555  -20.1974  -45.8647 C.3       12 UNK        -0.1800 
     72 C          -4.1630  -22.6907  -46.2659 C.2       12 UNK         0.5000 
     73 O          -5.3258  -22.9432  -46.5771 O.2       12 UNK        -0.5000 
     74 N          -3.3918  -23.5269  -45.5575 N.am      13 UNK        -0.5000 
     75 CA         -3.7767  -24.8951  -45.2083 C.3       13 UNK         0.1400 
     76 CB         -3.1859  -25.2604  -43.8376 C.3       13 UNK        -0.1800 
     77 C          -3.3198  -25.8936  -46.2874 C.2       13 UNK         0.5000 
     78 O          -4.0187  -26.8757  -46.5396 O.2       13 UNK        -0.5000 
     79 N          -2.1598  -25.6242  -46.9015 N.am      14 UNK        -0.5000 
     80 CA         -1.5678  -26.3971  -47.9924 C.3       14 UNK         0.1400 
     81 CB         -0.1362  -25.8882  -48.2256 C.3       14 UNK        -0.1800 
     82 C          -2.3819  -26.3222  -49.2997 C.2       14 UNK         0.5000 
     83 O          -3.2025  -25.4177  -49.4763 O.2       14 UNK        -0.5000 
     84 N          -2.1097  -27.2715  -50.2073 N.am      15 UNK        -0.5000 
     85 CA         -2.7517  -27.4463  -51.5156 C.3       15 UNK         0.1400 
     86 CB         -2.3659  -26.2862  -52.4643 C.3       15 UNK        -0.1800 
     87 C          -4.2743  -27.6654  -51.3726 C.2       15 UNK         0.5000 
     88 O          -4.6991  -28.3844  -50.4660 O.2       15 UNK        -0.5000 
     89 N          -5.0731  -27.0244  -52.2330 N.am      16 UNK        -0.5000 
     90 CA         -6.5338  -26.9720  -52.1494 C.3       16 UNK         0.1400 
     91 CB         -7.1105  -26.9902  -53.5769 C.3       16 UNK        -0.1800 
     92 C          -6.9805  -25.7387  -51.3350 C.2       16 UNK         0.5000 
     93 O          -7.8604  -24.9978  -51.7735 O.2       16 UNK        -0.5000 
     94 N          -6.3342  -25.5308  -50.1777 N.am      17 UNK        -0.5000 
     95 CA         -6.4086  -24.3569  -49.3037 C.3       17 UNK         0.1400 
     96 CB         -7.8197  -24.1859  -48.7033 C.3       17 UNK        -0.1800 
     97 C          -5.8893  -23.0997  -50.0306 C.2       17 UNK         0.5000 
     98 O          -6.6502  -22.1648  -50.2910 O.2       17 UNK        -0.5000 
     99 N          -4.6023  -23.1502  -50.4024 N.am      18 UNK        -0.5000 
    100 CA        -3.8508  -22.2374  -51.2711 C.3       18 UNK         0.1400 
    101 CB        -3.7903  -20.7983  -50.7212 C.3       18 UNK        -0.1800 
    102 C         -4.3340  -22.2642  -52.7314 C.2       18 UNK         0.5000 
    103 O         -3.5629  -22.6460  -53.6136 O.2       18 UNK        -0.5000 
    104 N         -5.5944  -21.8665  -52.9542 N.am      19 UNK        -0.5000 
    105 CA        -6.2971  -21.7799  -54.2367 C.3       19 UNK         0.1400 
    106 CB        -6.6902  -23.1926  -54.7212 C.3       19 UNK        -0.1800 
    107 C         -5.5016  -20.9652  -55.2776 C.2       19 UNK         0.5000 
    108 O         -5.4179  -19.7419  -55.1548 O.2       19 UNK        -0.5000 
    109 N         -4.9004  -21.6588  -56.2546 N.am      20 UNK        -0.5000 
    110 CA        -4.0609  -21.1021  -57.3163 C.3       20 UNK         0.1400 
    111 CB        -3.6643  -22.2307  -58.2800 C.3       20 UNK        -0.1800 
    112 C         -2.8076  -20.3598  -56.8117 C.2       20 UNK         0.5000 
    113 O         -2.3172  -19.4750  -57.5153 O.2       20 UNK        -0.5000 
    114 N         -2.3333  -20.6848  -55.5976 N.am      21 UNK        -0.5000 
    115 CA        -1.2233  -19.9946  -54.9315 C.3       21 UNK         0.1400 
    116 CB        -0.8469  -20.7371  -53.6404 C.3       21 UNK        -0.1800 
    117 C         -1.5082  -18.5062  -54.6405 C.2       21 UNK         0.5000 
    118 O         -0.5612  -17.7217  -54.5736 O.2       21 UNK        -0.5000 
    119 N         -2.7931  -18.1381  -54.5221 N.am      22 UNK        -0.5000 
    120 CA        -3.2458  -16.7426  -54.4193 C.3       22 UNK         0.1400 
    121 C         -3.2819  -15.9795  -55.7786 C.2       22 UNK         0.5000 
    122 N         -3.0007  -16.6037  -56.9175 N.am      22 UNK        -0.7600 
    123 O         -3.5623  -14.7836  -55.8015 O.2       22 UNK        -0.5000 
    124 C124       -4.5968  -16.5981  -53.6658 C.3       23 UNK        -0.0398 
    125 S125       -4.6956  -17.4699  -52.0616 S.3       23 UNK        -0.2404 
    126 C126       -3.8892  -16.3079  -50.9082 C.3       23 UNK        -0.0205 
    127 H127        2.6524  -17.2493  -47.2300 H         1 UNK         0.0600 
    128 H128        2.8086  -16.0329  -45.9599 H         1 UNK         0.0600 
    129 H129        3.6590  -15.8205  -47.4942 H         1 UNK         0.0600 
    130 H130        2.6650  -14.0597  -48.5108 H         1 UNK         0.3000 
    131 H131       -0.1266  -14.2676  -49.2639 H         1 UNK         0.0600 
    132 H132        0.3103  -12.3843  -50.7485 H         1 UNK         0.0800 
    133 H133        1.8363  -12.0483  -49.9719 H         1 UNK         0.0800 
    134 H134        0.0509  -13.8367  -52.7690 H         1 UNK         0.0800 
    135 H135        1.0897  -15.1478  -53.2585 H         1 UNK         0.0800 
    136 H136       -2.0227  -14.5923  -51.9341 H         1 UNK         0.1150 
    137 H137       -2.4081  -18.3701  -49.9528 H         1 UNK         0.1150 
    138 H138        1.4511  -17.0012  -51.2175 H         1 UNK         0.1150 
    139 H139       -0.4157  -19.9532  -50.3371 H         1 UNK         0.0800 
    140 H140        1.1876  -19.2629  -50.4376 H         1 UNK         0.0800 
    141 H141        1.2994  -21.2350  -48.9381 H         1 UNK         0.0800 
    142 H142        2.0472  -20.6924  -47.4794 H         1 UNK         0.0800 
    143 H143        0.6098  -22.8425  -47.5224 H         1 UNK         0.0600 
    144 H144        1.0278  -21.0725  -45.3616 H         1 UNK         0.3000 
    145 H145        0.3203  -23.6712  -42.9211 H         1 UNK         0.0600 
    146 H146        2.6183  -22.9454  -42.3461 H         1 UNK         0.0600 
    147 H147        2.6162  -23.9012  -43.8205 H         1 UNK         0.0600 
    148 H148        2.7929  -22.1547  -43.9097 H         1 UNK         0.0600 
    149 H149        0.9607  -20.8021  -42.9026 H         1 UNK         0.3000 
    150 H150       -2.2849  -19.8088  -41.9209 H         1 UNK         0.0600 
    151 H151       -1.3390  -20.5926  -39.7306 H         1 UNK         0.0600 
    152 H152       -1.1509  -18.8576  -39.9351 H         1 UNK         0.0600 
    153 H153        0.2309  -19.9263  -40.1698 H         1 UNK         0.0600 
    154 H154        0.0684  -18.2838  -42.0418 H         1 UNK         0.3000 
    155 H155        0.2345  -17.7703  -45.5801 H         1 UNK         0.0600 
    156 H156       -0.6035  -16.0545  -43.1811 H         1 UNK         0.0600 
    157 H157       -1.3449  -16.0979  -44.7713 H         1 UNK         0.0600 
    158 H158        0.2622  -15.4150  -44.5770 H         1 UNK         0.0600 
    159 H159        1.9376  -16.8052  -43.5800 H         1 UNK         0.3000 
    160 H160        4.1720  -19.5711  -43.3188 H         1 UNK         0.0600 
    161 H161        4.8179  -18.3566  -45.4284 H         1 UNK         0.0600 
    162 H162        5.8092  -17.9074  -44.0488 H         1 UNK         0.0600 
    163 H163        4.5458  -16.8213  -44.6126 H         1 UNK         0.0600 
    164 H164        3.8463  -16.8247  -42.3016 H         1 UNK         0.3000 
    165 H165        2.5226  -17.8637  -39.1767 H         1 UNK         0.0600 
    166 H166        4.4763  -16.6335  -38.2751 H         1 UNK         0.0600 
    167 H167        4.9775  -18.2103  -38.8640 H         1 UNK         0.0600 
    168 H168        5.3155  -16.7726  -39.8206 H         1 UNK         0.0600 
    169 H169        3.3398  -15.3120  -40.1787 H         1 UNK         0.3000 
    170 H170        0.2721  -14.4610  -41.7811 H         1 UNK         0.0600 
    171 H171       -0.1565  -14.1482  -39.3354 H         1 UNK         0.0600 
    172 H172        1.4655  -13.4937  -39.1370 H         1 UNK         0.0600 
    173 H173        0.2803  -12.6447  -40.1306 H         1 UNK         0.0600 
    174 H174        2.2960  -12.7096  -41.4702 H         1 UNK         0.3000 
    175 H175        4.3226  -12.4995  -42.7644 H         1 UNK         0.0600 
    176 H176        4.1650  -14.0753  -45.3919 H         1 UNK         0.0600 
    177 H177        5.3391  -12.8249  -44.9942 H         1 UNK         0.0600 
    178 H178        5.3435  -14.3444  -44.1128 H         1 UNK         0.0600 
    179 H179        2.5508  -12.2768  -45.1339 H         1 UNK         0.3000 
    180 H180        0.6847   -9.5824  -43.7828 H         1 UNK         0.0600 
    181 H181        2.6379   -9.6923  -46.1444 H         1 UNK         0.0600 
    182 H182        2.6815   -8.5078  -44.8430 H         1 UNK         0.0600 
    183 H183        1.3120   -8.5480  -45.9427 H         1 UNK         0.0600 
    184 H184        0.4751  -10.9336  -46.2762 H         1 UNK         0.3000 
    185 H185       -1.7671  -13.4934  -45.2248 H         1 UNK         0.0600 
    186 H186       -3.1517  -11.4527  -45.3980 H         1 UNK         0.0600 
    187 H187       -2.2361  -10.9060  -46.7938 H         1 UNK         0.0600 
    188 H188       -3.2138  -12.3698  -46.8949 H         1 UNK         0.0600 
    189 H189       -0.5529  -14.2346  -46.8872 H         1 UNK         0.3000 
    190 H190       -1.7067  -20.7697  -45.8445 H         1 UNK         0.3000 
    191 H191       -3.8572  -21.1818  -47.7359 H         1 UNK         0.0600 
    192 H192       -3.9316  -20.3169  -44.8040 H         1 UNK         0.0600 
    193 H193       -5.2406  -20.1607  -45.9684 H         1 UNK         0.0600 
    194 H194       -3.7659  -19.2311  -46.1857 H         1 UNK         0.0600 
    195 H195       -2.4408  -23.2556  -45.3442 H         1 UNK         0.3000 
    196 H196       -4.8635  -24.9650  -45.1277 H         1 UNK         0.0600 
    197 H197       -3.5006  -26.2592  -43.5329 H         1 UNK         0.0600 
    198 H198       -3.5193  -24.5645  -43.0675 H         1 UNK         0.0600 
    199 H199       -2.0961  -25.2501  -43.8455 H         1 UNK         0.0600 
    200 H200       -1.6321  -24.8175  -46.5910 H         1 UNK         0.3000 
    201 H201       -1.5232  -27.4407  -47.6748 H         1 UNK         0.0600 
    202 H202        0.4493  -25.9124  -47.3061 H         1 UNK         0.0600 
    203 H203       -0.1343  -24.8640  -48.5988 H         1 UNK         0.0600 
    204 H204        0.3869  -26.5030  -48.9588 H         1 UNK         0.0600 
    205 H205       -1.4373  -27.9845  -49.9627 H         1 UNK         0.3000 
    206 H206       -2.3495  -28.3685  -51.9369 H         1 UNK         0.0600 
    207 H207       -1.2841  -26.1572  -52.5004 H         1 UNK         0.0600 
    208 H208       -2.6940  -26.4816  -53.4858 H         1 UNK         0.0600 
    209 H209       -2.7982  -25.3348  -52.1513 H         1 UNK         0.0600 
    210 H210       -4.6468  -26.4295  -52.9287 H         1 UNK         0.3000 
    211 H211       -6.9128  -27.8544  -51.6297 H         1 UNK         0.0600 
    212 H212       -6.7796  -26.1291  -54.1573 H         1 UNK         0.0600 
    213 H213       -8.2011  -26.9791  -53.5610 H         1 UNK         0.0600 
    214 H214       -6.8055  -27.8899  -54.1114 H         1 UNK         0.0600 
    215 H215       -5.6130  -26.1956  -49.9289 H         1 UNK         0.3000 
    216 H216       -5.7217  -24.5617  -48.4830 H         1 UNK         0.0600 
    217 H217       -7.8303  -23.3727  -47.9768 H         1 UNK         0.0600 
    218 H218       -8.1385  -25.0896  -48.1842 H         1 UNK         0.0600 
    219 H219       -8.5666  -23.9520  -49.4620 H         1 UNK         0.0600 
    220 H220       -4.0744  -23.9728  -50.1093 H         1 UNK         0.3000 
    221 H221       -2.8279  -22.6179  -51.2789 H         1 UNK         0.0600 
    222 H222       -4.7734  -20.3910  -50.4886 H         1 UNK         0.0600 
    223 H223       -3.1815  -20.7475  -49.8217 H         1 UNK         0.0600 
    224 H224       -3.3324  -20.1240  -51.4444 H         1 UNK         0.0600 
    225 H225       -6.1401  -21.6193  -52.1338 H         1 UNK         0.3000 
    226 H226       -7.2179  -21.2246  -54.0523 H         1 UNK         0.0600 
    227 H227       -7.3798  -23.6593  -54.0190 H         1 UNK         0.0600 
    228 H228       -7.1998  -23.1542  -55.6848 H         1 UNK         0.0600 
    229 H229       -5.8274  -23.8521  -54.8221 H         1 UNK         0.0600 
    230 H230       -4.9937  -22.6640  -56.2420 H         1 UNK         0.3000 
    231 H231       -4.6655  -20.3778  -57.8661 H         1 UNK         0.0600 
    232 H232       -3.0596  -21.8478  -59.1034 H         1 UNK         0.0600 
    233 H233       -4.5435  -22.7042  -58.7176 H         1 UNK         0.0600 
    234 H234       -3.0813  -23.0029  -57.7758 H         1 UNK         0.0600 
    235 H235       -2.7987  -21.4162  -55.0686 H         1 UNK         0.3000 
    236 H236       -0.3641  -20.0344  -55.6043 H         1 UNK         0.0600 
    237 H237       -0.6100  -21.7830  -53.8374 H         1 UNK         0.0600 
    238 H238        0.0292  -20.2852  -53.1731 H         1 UNK         0.0600 
    239 H239       -1.6545  -20.7068  -52.9115 H         1 UNK         0.0600 
    240 H240       -3.5243  -18.8334  -54.6151 H         1 UNK         0.3000 
    241 H241       -2.5003  -16.2073  -53.8365 H         1 UNK         0.0600 
    242 H242       -3.0263  -16.0833  -57.7803 H         1 UNK         0.3800 
    243 H243       -2.7488  -17.5858  -56.9373 H         1 UNK         0.3800 
    244 H244       -4.8295  -15.5451  -53.4985 H         1 UNK         0.0800 
    245 H245       -5.4051  -16.9862  -54.2883 H         1 UNK         0.0800 
    246 H246       -4.1887  -15.2839  -51.1361 H         1 UNK         0.0800 
    247 H247       -4.2459  -16.5134  -49.8979 H         1 UNK         0.0800 
@<TRIPOS>BOND
     1    1    2 1    
     2    1  127 1    
     3    1  128 1    
     4    1  129 1    
     5    2    3 2    
     6    2    4 am   BACKBONE|DICT|INTERRES
     7    4    5 1    
     8    4  130 1    
     9    5    6 1    
    10    5   65 1    
    11    5  131 1    
    12    6    7 1    
    13    6  132 1    
    14    6  133 1    
    15    7    8 1    
    16    8    9 1    
    17    8  134 1    
    18    8  135 1    
    19    9   10 ar   
    20    9   14 ar   
    21   10   11 ar   
    22   10  136 1    
    23   11   12 ar   
    24   11  126 1    
    25   12   13 ar   
    26   12  137 1    
    27   13   14 ar   
    28   13   15 1    
    29   14  138 1    
    30   15   16 1    
    31   15  139 1    
    32   15  140 1    
    33   16   17 1    
    34   17   18 1    
    35   17  141 1    
    36   17  142 1    
    37   18   19 1    
    38   18   67 1    
    39   18  143 1    
    40   19   20 am   BACKBONE|DICT|INTERRES
    41   19  144 1    
    42   20   21 2    
    43   20   22 1    
    44   22   23 1    
    45   22   24 1    
    46   22  145 1    
    47   23  146 1    
    48   23  147 1    
    49   23  148 1    
    50   24   25 am   BACKBONE|DICT|INTERRES
    51   24  149 1    
    52   25   26 2    
    53   25   27 1    
    54   27   28 1    
    55   27   29 1    
    56   27  150 1    
    57   28  151 1    
    58   28  152 1    
    59   28  153 1    
    60   29   30 am   BACKBONE|DICT|INTERRES
    61   29  154 1    
    62   30   31 2    
    63   30   32 1    
    64   32   33 1    
    65   32   34 1    
    66   32  155 1    
    67   33  156 1    
    68   33  157 1    
    69   33  158 1    
    70   34   35 am   BACKBONE|DICT|INTERRES
    71   34  159 1    
    72   35   36 2    
    73   35   37 1    
    74   37   38 1    
    75   37   39 1    
    76   37  160 1    
    77   38  161 1    
    78   38  162 1    
    79   38  163 1    
    80   39   40 am   BACKBONE|DICT|INTERRES
    81   39  164 1    
    82   40   41 2    
    83   40   42 1    
    84   42   43 1    
    85   42   44 1    
    86   42  165 1    
    87   43  166 1    
    88   43  167 1    
    89   43  168 1    
    90   44   45 am   BACKBONE|DICT|INTERRES
    91   44  169 1    
    92   45   46 2    
    93   45   47 1    
    94   47   48 1    
    95   47   49 1    
    96   47  170 1    
    97   48  171 1    
    98   48  172 1    
    99   48  173 1    
   100   49   50 am   BACKBONE|DICT|INTERRES
   101   49  174 1    
   102   50   51 2    
   103   50   52 1    
   104   52   53 1    
   105   52   54 1    
   106   52  175 1    
   107   53  176 1    
   108   53  177 1    
   109   53  178 1    
   110   54   55 am   BACKBONE|DICT|INTERRES
   111   54  179 1    
   112   55   56 2    
   113   55   57 1    
   114   57   58 1    
   115   57   59 1    
   116   57  180 1    
   117   58  181 1    
   118   58  182 1    
   119   58  183 1    
   120   59   60 am   BACKBONE|DICT|INTERRES
   121   59  184 1    
   122   60   61 2    
   123   60   62 1    
   124   62   63 1    
   125   62   64 1    
   126   62  185 1    
   127   63  186 1    
   128   63  187 1    
   129   63  188 1    
   130   64   65 am   BACKBONE|DICT|INTERRES
   131   64  189 1    
   132   65   66 2    
   133   67   68 2    
   134   67   69 am   BACKBONE|DICT|INTERRES
   135   69   70 1    
   136   69  190 1    
   137   70   71 1    
   138   70   72 1    
   139   70  191 1    
   140   71  192 1    
   141   71  193 1    
   142   71  194 1    
   143   72   73 2    
   144   72   74 am   BACKBONE|DICT|INTERRES
   145   74   75 1    
   146   74  195 1    
   147   75   76 1    
   148   75   77 1    
   149   75  196 1    
   150   76  197 1    
   151   76  198 1    
   152   76  199 1    
   153   77   78 2    
   154   77   79 am   BACKBONE|DICT|INTERRES
   155   79   80 1    
   156   79  200 1    
   157   80   81 1    
   158   80   82 1    
   159   80  201 1    
   160   81  202 1    
   161   81  203 1    
   162   81  204 1    
   163   82   83 2    
   164   82   84 am   BACKBONE|DICT|INTERRES
   165   84   85 1    
   166   84  205 1    
   167   85   86 1    
   168   85   87 1    
   169   85  206 1    
   170   86  207 1    
   171   86  208 1    
   172   86  209 1    
   173   87   88 2    
   174   87   89 am   BACKBONE|DICT|INTERRES
   175   89   90 1    
   176   89  210 1    
   177   90   91 1    
   178   90   92 1    
   179   90  211 1    
   180   91  212 1    
   181   91  213 1    
   182   91  214 1    
   183   92   93 2    
   184   92   94 am   BACKBONE|DICT|INTERRES
   185   94   95 1    
   186   94  215 1    
   187   95   96 1    
   188   95   97 1    
   189   95  216 1    
   190   96  217 1    
   191   96  218 1    
   192   96  219 1    
   193   97   98 2    
   194   97   99 am   BACKBONE|DICT|INTERRES
   195   99  100 1    
   196   99  220 1    
   197  100  101 1    
   198  100  102 1    
   199  100  221 1    
   200  101  222 1    
   201  101  223 1    
   202  101  224 1    
   203  102  103 2    
   204  102  104 am   BACKBONE|DICT|INTERRES
   205  104  105 1    
   206  104  225 1    
   207  105  106 1    
   208  105  107 1    
   209  105  226 1    
   210  106  227 1    
   211  106  228 1    
   212  106  229 1    
   213  107  108 2    
   214  107  109 am   BACKBONE|DICT|INTERRES
   215  109  110 1    
   216  109  230 1    
   217  110  111 1    
   218  110  112 1    
   219  110  231 1    
   220  111  232 1    
   221  111  233 1    
   222  111  234 1    
   223  112  113 2    
   224  112  114 am   BACKBONE|DICT|INTERRES
   225  114  115 1    
   226  114  235 1    
   227  115  116 1    
   228  115  117 1    
   229  115  236 1    
   230  116  237 1    
   231  116  238 1    
   232  116  239 1    
   233  117  118 2    
   234  117  119 am   BACKBONE|DICT|INTERRES
   235  119  120 1    
   236  119  240 1    
   237  120  121 1    
   238  120  124 1    
   239  120  241 1    
   240  121  122 am   BACKBONE|DICT|INTERRES
   241  121  123 2    
   242  122  242 1    
   243  122  243 1    
   244  124  125 1    
   245  124  244 1    
   246  124  245 1    
   247  125  126 1    
   248  126  246 1    
   249  126  247 1    
@<TRIPOS>SUBSTRUCTURE
     1 UNK         1 GROUP             0       ****    0 ROOT    
