@<TRIPOS>MOLECULE
3R540
247   249    1
SMALL
USER_CHARGES


@<TRIPOS>ATOM
      1 CA          3.2003  -11.1504  -53.9086 C.3       0 UNK        -0.1800 
      2 C           3.3122  -11.2967  -52.3975 C.2       0 UNK         0.5000 
      3 O           3.3096  -10.2937  -51.6831 O.2       0 UNK        -0.5000 
      4 N           3.4191  -12.5389  -51.9102 N.am      1 UNK        -0.5000 
      5 CA          3.4631  -12.8788  -50.4861 C.3       1 UNK         0.1400 
      6 C6          3.9478  -14.3345  -50.2760 C.3       23 UNK        -0.0398 
      7 S7          4.4899  -14.7029  -48.5660 S.3       23 UNK        -0.2404 
      8 C8          3.0195  -15.4581  -47.7857 C.3       23 UNK        -0.0205 
      9 C9          2.5016  -16.6687  -48.5477 C.ar      23 UNK        -0.0193 
     10 C10         1.3661  -16.5544  -49.3548 C.ar      23 UNK        -0.1150 
     11 C11         0.9253  -17.6371  -50.1187 C.ar      23 UNK        -0.0193 
     12 C12         1.6136  -18.8496  -50.0485 C.ar      23 UNK        -0.1150 
     13 C13         2.7279  -18.9917  -49.2155 C.ar      23 UNK        -0.0193 
     14 C14         3.1679  -17.8948  -48.4674 C.ar      23 UNK        -0.1150 
     15 C15         3.4801  -20.3158  -49.1477 C.3       23 UNK        -0.0205 
     16 S16         2.3941  -21.7435  -48.8234 S.3       23 UNK        -0.2404 
     17 C17         1.7352  -21.3142  -47.1791 C.3       23 UNK        -0.0398 
     18 CA          0.5592  -22.2217  -46.7509 C.3       11 UNK         0.1400 
     19 N           0.3517  -22.1794  -45.3006 N.am      11 UNK        -0.5000 
     20 C          -0.4674  -22.9954  -44.6229 C.2       10 UNK         0.5000 
     21 O          -1.1113  -23.9037  -45.1444 O.2       10 UNK        -0.5000 
     22 CA         -0.6277  -22.7307  -43.1164 C.3       10 UNK         0.1400 
     23 CB          0.5450  -23.3367  -42.3315 C.3       10 UNK        -0.1800 
     24 N          -0.7552  -21.3068  -42.8046 N.am      10 UNK        -0.5000 
     25 C          -1.7702  -20.5291  -43.2085 C.2       9 UNK         0.5000 
     26 O          -2.7325  -20.9443  -43.8525 O.2       9 UNK        -0.5000 
     27 CA         -1.6736  -19.0269  -42.8865 C.3       9 UNK         0.1400 
     28 CB         -2.0693  -18.7484  -41.4292 C.3       9 UNK        -0.1800 
     29 N          -0.3435  -18.4791  -43.1478 N.am      9 UNK        -0.5000 
     30 C           0.2509  -18.4544  -44.3494 C.2       8 UNK         0.5000 
     31 O          -0.2712  -18.8657  -45.3850 O.2       8 UNK        -0.5000 
     32 CA          1.6992  -17.9408  -44.3836 C.3       8 UNK         0.1400 
     33 CB          1.7443  -16.4056  -44.3434 C.3       8 UNK        -0.1800 
     34 N           2.4898  -18.4867  -43.2800 N.am      8 UNK        -0.5000 
     35 C           2.8306  -19.7779  -43.1609 C.2       7 UNK         0.5000 
     36 O           2.5410  -20.6414  -43.9887 O.2       7 UNK        -0.5000 
     37 CA          3.5849  -20.1761  -41.8795 C.3       7 UNK         0.1400 
     38 CB          5.0777  -19.8344  -41.9990 C.3       7 UNK        -0.1800 
     39 N           3.0334  -19.5390  -40.6826 N.am      7 UNK        -0.5000 
     40 C           1.8132  -19.7903  -40.1875 C.2       6 UNK         0.5000 
     41 O           1.0348  -20.6090  -40.6722 O.2       6 UNK        -0.5000 
     42 CA          1.3677  -18.9553  -38.9736 C.3       6 UNK         0.1400 
     43 CB          1.8317  -19.6144  -37.6663 C.3       6 UNK        -0.1800 
     44 N           1.8361  -17.5676  -39.0120 N.am      6 UNK        -0.5000 
     45 C           1.5352  -16.6849  -39.9733 C.2       5 UNK         0.5000 
     46 O           0.8725  -16.9600  -40.9766 O.2       5 UNK        -0.5000 
     47 CA          2.1316  -15.2762  -39.8074 C.3       5 UNK         0.1400 
     48 CB          3.5163  -15.2119  -40.4716 C.3       5 UNK        -0.1800 
     49 N           1.2911  -14.2309  -40.3883 N.am      5 UNK        -0.5000 
     50 C           0.0408  -13.9195  -40.0161 C.2       4 UNK         0.5000 
     51 O          -0.5525  -14.4748  -39.0901 O.2       4 UNK        -0.5000 
     52 CA         -0.6542  -12.7705  -40.7799 C.3       4 UNK         0.1400 
     53 CB         -1.0699  -11.6462  -39.8159 C.3       4 UNK        -0.1800 
     54 N           0.1971  -12.1928  -41.8253 N.am      4 UNK        -0.5000 
     55 C           0.2498  -12.6184  -43.0920 C.2       3 UNK         0.5000 
     56 O          -0.4654  -13.5106  -43.5547 O.2       3 UNK        -0.5000 
     57 CA          1.3160  -11.9592  -43.9754 C.3       3 UNK         0.1400 
     58 CB          2.7008  -12.5826  -43.7029 C.3       3 UNK        -0.1800 
     59 N           0.9395  -12.1342  -45.3739 N.am      3 UNK        -0.5000 
     60 C           1.4812  -11.4854  -46.4071 C.2       2 UNK         0.5000 
     61 O           2.3893  -10.6568  -46.3010 O.2       2 UNK        -0.5000 
     62 CA          0.9308  -11.8154  -47.7985 C.3       2 UNK         0.1400 
     63 CB          0.0142  -10.6945  -48.3208 C.3       2 UNK        -0.1800 
     64 N           2.0793  -11.9949  -48.6752 N.am      2 UNK        -0.5000 
     65 C           2.0826  -12.6508  -49.8373 C.2       1 UNK         0.5000 
     66 O           1.0702  -13.1043  -50.3761 O.2       1 UNK        -0.5000 
     67 C          -0.7385  -21.9050  -47.5283 C.2       11 UNK         0.5000 
     68 O          -1.0660  -22.6115  -48.4829 O.2       11 UNK        -0.5000 
     69 N          -1.4850  -20.8900  -47.0701 N.am      12 UNK        -0.5000 
     70 CA         -2.8026  -20.5342  -47.5925 C.3       12 UNK         0.1400 
     71 CB         -3.2686  -19.2124  -46.9640 C.3       12 UNK        -0.1800 
     72 C          -3.8358  -21.6552  -47.3762 C.2       12 UNK         0.5000 
     73 O          -4.5079  -22.0454  -48.3299 O.2       12 UNK        -0.5000 
     74 N          -3.9081  -22.1924  -46.1491 N.am      13 UNK        -0.5000 
     75 CA         -4.7959  -23.2951  -45.7633 C.3       13 UNK         0.1400 
     76 CB         -4.7057  -23.5189  -44.2467 C.3       13 UNK        -0.1800 
     77 C          -4.5227  -24.6106  -46.5193 C.2       13 UNK         0.5000 
     78 O          -5.4601  -25.3650  -46.7805 O.2       13 UNK        -0.5000 
     79 N          -3.2572  -24.8435  -46.8917 N.am      14 UNK        -0.5000 
     80 CA         -2.8088  -25.9574  -47.7305 C.3       14 UNK         0.1400 
     81 CB         -1.2889  -26.1233  -47.5671 C.3       14 UNK        -0.1800 
     82 C          -3.1874  -25.8129  -49.2215 C.2       14 UNK         0.5000 
     83 O          -2.9437  -26.7479  -49.9850 O.2       14 UNK        -0.5000 
     84 N          -3.7733  -24.6680  -49.6056 N.am      15 UNK        -0.5000 
     85 CA         -4.2082  -24.2873  -50.9486 C.3       15 UNK         0.1400 
     86 CB         -5.3133  -25.2234  -51.4802 C.3       15 UNK        -0.1800 
     87 C          -3.0184  -24.1359  -51.9080 C.2       15 UNK         0.5000 
     88 O          -2.8563  -24.9292  -52.8361 O.2       15 UNK        -0.5000 
     89 N          -2.2071  -23.1000  -51.6614 N.am      16 UNK        -0.5000 
     90 CA         -1.0349  -22.7189  -52.4531 C.3       16 UNK         0.1400 
     91 CB         -0.4203  -21.4520  -51.8435 C.3       16 UNK        -0.1800 
     92 C          -1.3111  -22.5038  -53.9561 C.2       16 UNK         0.5000 
     93 O          -0.4420  -22.8059  -54.7745 O.2       16 UNK        -0.5000 
     94 N          -2.5128  -22.0169  -54.2956 N.am      17 UNK        -0.5000 
     95 CA         -2.9769  -21.8294  -55.6732 C.3       17 UNK         0.1400 
     96 CB         -3.7942  -20.5306  -55.7420 C.3       17 UNK        -0.1800 
     97 C          -3.7802  -23.0342  -56.2108 C.2       17 UNK         0.5000 
     98 O          -4.3930  -22.9186  -57.2720 O.2       17 UNK        -0.5000 
     99 N          -3.7923  -24.1545  -55.4710 N.am      18 UNK        -0.5000 
    100 CA        -4.5047  -25.4209  -55.7064 C.3       18 UNK         0.1400 
    101 CB        -4.1849  -26.0156  -57.0924 C.3       18 UNK        -0.1800 
    102 C         -6.0246  -25.3612  -55.4472 C.2       18 UNK         0.5000 
    103 O         -6.6456  -26.4109  -55.2760 O.2       18 UNK        -0.5000 
    104 N         -6.5924  -24.1552  -55.3783 N.am      19 UNK        -0.5000 
    105 CA        -7.9735  -23.8510  -55.0341 C.3       19 UNK         0.1400 
    106 CB        -8.8961  -24.1201  -56.2365 C.3       19 UNK        -0.1800 
    107 C         -8.0291  -22.3763  -54.6138 C.2       19 UNK         0.5000 
    108 O         -7.1804  -21.5926  -55.0461 O.2       19 UNK        -0.5000 
    109 N         -9.0269  -22.0285  -53.7888 N.am      20 UNK        -0.5000 
    110 CA        -9.2953  -20.6832  -53.2594 C.3       20 UNK         0.1400 
    111 CB        -9.7536  -19.7356  -54.3884 C.3       20 UNK        -0.1800 
    112 C         -8.1254  -20.1078  -52.4297 C.2       20 UNK         0.5000 
    113 O         -7.8248  -18.9159  -52.5222 O.2       20 UNK        -0.5000 
    114 N         -7.4857  -20.9760  -51.6324 N.am      21 UNK        -0.5000 
    115 CA        -6.3240  -20.7019  -50.7829 C.3       21 UNK         0.1400 
    116 CB        -6.7068  -19.7575  -49.6199 C.3       21 UNK        -0.1800 
    117 C         -5.1102  -20.2309  -51.6151 C.2       21 UNK         0.5000 
    118 O         -4.5579  -21.0270  -52.3777 O.2       21 UNK        -0.5000 
    119 N         -4.7319  -18.9571  -51.4636 N.am      22 UNK        -0.5000 
    120 CA        -3.7341  -18.2591  -52.2894 C.3       22 UNK         0.1400 
    121 C         -4.3131  -17.6671  -53.6107 C.2       22 UNK         0.5000 
    122 N         -5.6081  -17.7496  -53.8885 N.am      22 UNK        -0.7600 
    123 O         -3.5623  -17.1218  -54.4147 O.2       22 UNK        -0.5000 
    124 C124       -3.0024  -17.1602  -51.4749 C.3       23 UNK        -0.0398 
    125 S125       -1.8424  -17.8375  -50.2390 S.3       23 UNK        -0.2404 
    126 C126       -0.2579  -17.4736  -51.0582 C.3       23 UNK        -0.0205 
    127 H127        2.2644  -10.6561  -54.1691 H         1 UNK         0.0600 
    128 H128        3.2263  -12.1166  -54.4131 H         1 UNK         0.0600 
    129 H129        4.0238  -10.5461  -54.2894 H         1 UNK         0.0600 
    130 H130        3.3828  -13.3215  -52.5475 H         1 UNK         0.3000 
    131 H131        4.1884  -12.2101  -50.0164 H         1 UNK         0.0600 
    132 H132        3.2043  -15.0526  -50.6198 H         1 UNK         0.0800 
    133 H133        4.8207  -14.5110  -50.9060 H         1 UNK         0.0800 
    134 H134        2.2347  -14.7097  -47.6748 H         1 UNK         0.0800 
    135 H135        3.2888  -15.7616  -46.7741 H         1 UNK         0.0800 
    136 H136        0.8435  -15.6104  -49.4188 H         1 UNK         0.1150 
    137 H137        1.2859  -19.6855  -50.6461 H         1 UNK         0.1150 
    138 H138        4.0436  -17.9843  -47.8399 H         1 UNK         0.1150 
    139 H139        3.9938  -20.4738  -50.0967 H         1 UNK         0.0800 
    140 H140        4.2540  -20.2838  -48.3791 H         1 UNK         0.0800 
    141 H141        1.4445  -20.2628  -47.1469 H         1 UNK         0.0800 
    142 H142        2.5631  -21.4212  -46.4779 H         1 UNK         0.0800 
    143 H143        0.8304  -23.2529  -46.9882 H         1 UNK         0.0600 
    144 H144        0.8794  -21.4805  -44.7878 H         1 UNK         0.3000 
    145 H145       -1.5438  -23.2259  -42.7886 H         1 UNK         0.0600 
    146 H146        0.3867  -23.2469  -41.2567 H         1 UNK         0.0600 
    147 H147        1.4884  -22.8462  -42.5730 H         1 UNK         0.0600 
    148 H148        0.6586  -24.3982  -42.5549 H         1 UNK         0.0600 
    149 H149       -0.0250  -20.9044  -42.2231 H         1 UNK         0.3000 
    150 H150       -2.3779  -18.5024  -43.5355 H         1 UNK         0.0600 
    151 H151       -3.0816  -19.1000  -41.2264 H         1 UNK         0.0600 
    152 H152       -2.0439  -17.6806  -41.2103 H         1 UNK         0.0600 
    153 H153       -1.4017  -19.2487  -40.7282 H         1 UNK         0.0600 
    154 H154        0.1512  -18.0817  -42.3533 H         1 UNK         0.3000 
    155 H155        2.1505  -18.2697  -45.3225 H         1 UNK         0.0600 
    156 H156        1.2048  -15.9781  -45.1895 H         1 UNK         0.0600 
    157 H157        2.7708  -16.0434  -44.3918 H         1 UNK         0.0600 
    158 H158        1.2914  -16.0061  -43.4355 H         1 UNK         0.0600 
    159 H159        2.7091  -17.8561  -42.5239 H         1 UNK         0.3000 
    160 H160        3.4913  -21.2579  -41.7616 H         1 UNK         0.0600 
    161 H161        5.2413  -18.7598  -42.0889 H         1 UNK         0.0600 
    162 H162        5.5167  -20.3083  -42.8780 H         1 UNK         0.0600 
    163 H163        5.6332  -20.1870  -41.1298 H         1 UNK         0.0600 
    164 H164        3.6089  -18.8505  -40.2211 H         1 UNK         0.3000 
    165 H165        0.2763  -18.9334  -38.9731 H         1 UNK         0.0600 
    166 H166        1.4414  -19.0850  -36.7969 H         1 UNK         0.0600 
    167 H167        1.4791  -20.6448  -37.6022 H         1 UNK         0.0600 
    168 H168        2.9195  -19.6342  -37.5880 H         1 UNK         0.0600 
    169 H169        2.4008  -17.2657  -38.2311 H         1 UNK         0.3000 
    170 H170        2.2389  -15.0640  -38.7417 H         1 UNK         0.0600 
    171 H171        3.9811  -14.2372  -40.3219 H         1 UNK         0.0600 
    172 H172        4.1908  -15.9583  -40.0502 H         1 UNK         0.0600 
    173 H173        3.4562  -15.3926  -41.5459 H         1 UNK         0.0600 
    174 H174        1.6796  -13.7320  -41.1722 H         1 UNK         0.3000 
    175 H175       -1.5599  -13.1826  -41.2299 H         1 UNK         0.0600 
    176 H176       -0.2079  -11.2110  -39.3089 H         1 UNK         0.0600 
    177 H177       -1.5884  -10.8459  -40.3443 H         1 UNK         0.0600 
    178 H178       -1.7497  -12.0175  -39.0479 H         1 UNK         0.0600 
    179 H179        0.8181  -11.4520  -41.5304 H         1 UNK         0.3000 
    180 H180        1.3419  -10.8912  -43.7484 H         1 UNK         0.0600 
    181 H181        3.4824  -12.0972  -44.2869 H         1 UNK         0.0600 
    182 H182        2.7167  -13.6445  -43.9470 H         1 UNK         0.0600 
    183 H183        2.9820  -12.4814  -42.6542 H         1 UNK         0.0600 
    184 H184        0.1796  -12.7898  -45.5125 H         1 UNK         0.3000 
    185 H185        0.3689  -12.7507  -47.7495 H         1 UNK         0.0600 
    186 H186        0.5495   -9.7486  -48.4118 H         1 UNK         0.0600 
    187 H187       -0.3973  -10.9408  -49.2997 H         1 UNK         0.0600 
    188 H188       -0.8275  -10.5339  -47.6463 H         1 UNK         0.0600 
    189 H189        2.9477  -11.6459  -48.2886 H         1 UNK         0.3000 
    190 H190       -1.1273  -20.3183  -46.3093 H         1 UNK         0.3000 
    191 H191       -2.7023  -20.3792  -48.6688 H         1 UNK         0.0600 
    192 H192       -2.5610  -18.4095  -47.1726 H         1 UNK         0.0600 
    193 H193       -3.3712  -19.2907  -45.8819 H         1 UNK         0.0600 
    194 H194       -4.2343  -18.9048  -47.3643 H         1 UNK         0.0600 
    195 H195       -3.3375  -21.7948  -45.4061 H         1 UNK         0.3000 
    196 H196       -5.8169  -22.9900  -46.0009 H         1 UNK         0.0600 
    197 H197       -4.9879  -22.6205  -43.6977 H         1 UNK         0.0600 
    198 H198       -3.6957  -23.7946  -43.9423 H         1 UNK         0.0600 
    199 H199       -5.3754  -24.3184  -43.9276 H         1 UNK         0.0600 
    200 H200       -2.5348  -24.2100  -46.5649 H         1 UNK         0.3000 
    201 H201       -3.2871  -26.8692  -47.3675 H         1 UNK         0.0600 
    202 H202       -1.0219  -26.3052  -46.5260 H         1 UNK         0.0600 
    203 H203       -0.7498  -25.2369  -47.9016 H         1 UNK         0.0600 
    204 H204       -0.9195  -26.9701  -48.1467 H         1 UNK         0.0600 
    205 H205       -3.9022  -23.9498  -48.9015 H         1 UNK         0.3000 
    206 H206       -4.6504  -23.2990  -50.8508 H         1 UNK         0.0600 
    207 H207       -4.9485  -26.2357  -51.6557 H         1 UNK         0.0600 
    208 H208       -6.1473  -25.2839  -50.7810 H         1 UNK         0.0600 
    209 H209       -5.7087  -24.8521  -52.4258 H         1 UNK         0.0600 
    210 H210       -2.3922  -22.5304  -50.8480 H         1 UNK         0.3000 
    211 H211       -0.3083  -23.5290  -52.3668 H         1 UNK         0.0600 
    212 H212       -1.1294  -20.6233  -51.8364 H         1 UNK         0.0600 
    213 H213        0.4572  -21.1324  -52.4070 H         1 UNK         0.0600 
    214 H214       -0.1001  -21.6273  -50.8168 H         1 UNK         0.0600 
    215 H215       -3.1777  -21.7827  -53.5619 H         1 UNK         0.3000 
    216 H216       -2.1195  -21.7086  -56.3382 H         1 UNK         0.0600 
    217 H217       -4.1587  -20.3383  -56.7516 H         1 UNK         0.0600 
    218 H218       -3.1815  -19.6766  -55.4568 H         1 UNK         0.0600 
    219 H219       -4.6600  -20.5616  -55.0802 H         1 UNK         0.0600 
    220 H220       -3.2728  -24.1436  -54.5985 H         1 UNK         0.3000 
    221 H221       -4.1065  -26.1132  -54.9635 H         1 UNK         0.0600 
    222 H222       -4.6259  -25.4325  -57.9009 H         1 UNK         0.0600 
    223 H223       -3.1095  -26.0695  -57.2612 H         1 UNK         0.0600 
    224 H224       -4.5779  -27.0293  -57.1772 H         1 UNK         0.0600 
    225 H225       -6.0235  -23.3321  -55.5387 H         1 UNK         0.3000 
    226 H226       -8.2753  -24.4712  -54.1875 H         1 UNK         0.0600 
    227 H227       -8.8754  -25.1705  -56.5271 H         1 UNK         0.0600 
    228 H228       -9.9311  -23.8707  -55.9999 H         1 UNK         0.0600 
    229 H229       -8.6044  -23.5271  -57.1042 H         1 UNK         0.0600 
    230 H230       -9.6737  -22.7460  -53.4909 H         1 UNK         0.3000 
    231 H231      -10.1299  -20.7886  -52.5648 H         1 UNK         0.0600 
    232 H232      -10.0853  -18.7782  -53.9849 H         1 UNK         0.0600 
    233 H233      -10.5901  -20.1593  -54.9439 H         1 UNK         0.0600 
    234 H234       -8.9502  -19.5300  -55.0965 H         1 UNK         0.0600 
    235 H235       -7.7900  -21.9383  -51.6556 H         1 UNK         0.3000 
    236 H236       -6.0496  -21.6569  -50.3412 H         1 UNK         0.0600 
    237 H237       -7.0564  -18.7842  -49.9645 H         1 UNK         0.0600 
    238 H238       -7.5000  -20.1947  -49.0136 H         1 UNK         0.0600 
    239 H239       -5.8577  -19.5909  -48.9577 H         1 UNK         0.0600 
    240 H240       -5.2594  -18.3772  -50.8284 H         1 UNK         0.3000 
    241 H241       -2.9853  -18.9858  -52.6106 H         1 UNK         0.0600 
    242 H242       -5.9445  -17.3608  -54.7540 H         1 UNK         0.3800 
    243 H243       -6.2698  -18.1983  -53.2599 H         1 UNK         0.3800 
    244 H244       -3.7258  -16.5279  -50.9580 H         1 UNK         0.0800 
    245 H245       -2.4500  -16.4858  -52.1311 H         1 UNK         0.0800 
    246 H246       -0.2653  -16.4511  -51.4394 H         1 UNK         0.0800 
    247 H247       -0.1444  -18.1238  -51.9270 H         1 UNK         0.0800 
@<TRIPOS>BOND
     1    1    2 1    
     2    1  127 1    
     3    1  128 1    
     4    1  129 1    
     5    2    3 2    
     6    2    4 am   BACKBONE|DICT|INTERRES
     7    4    5 1    
     8    4  130 1    
     9    5    6 1    
    10    5   65 1    
    11    5  131 1    
    12    6    7 1    
    13    6  132 1    
    14    6  133 1    
    15    7    8 1    
    16    8    9 1    
    17    8  134 1    
    18    8  135 1    
    19    9   10 ar   
    20    9   14 ar   
    21   10   11 ar   
    22   10  136 1    
    23   11   12 ar   
    24   11  126 1    
    25   12   13 ar   
    26   12  137 1    
    27   13   14 ar   
    28   13   15 1    
    29   14  138 1    
    30   15   16 1    
    31   15  139 1    
    32   15  140 1    
    33   16   17 1    
    34   17   18 1    
    35   17  141 1    
    36   17  142 1    
    37   18   19 1    
    38   18   67 1    
    39   18  143 1    
    40   19   20 am   BACKBONE|DICT|INTERRES
    41   19  144 1    
    42   20   21 2    
    43   20   22 1    
    44   22   23 1    
    45   22   24 1    
    46   22  145 1    
    47   23  146 1    
    48   23  147 1    
    49   23  148 1    
    50   24   25 am   BACKBONE|DICT|INTERRES
    51   24  149 1    
    52   25   26 2    
    53   25   27 1    
    54   27   28 1    
    55   27   29 1    
    56   27  150 1    
    57   28  151 1    
    58   28  152 1    
    59   28  153 1    
    60   29   30 am   BACKBONE|DICT|INTERRES
    61   29  154 1    
    62   30   31 2    
    63   30   32 1    
    64   32   33 1    
    65   32   34 1    
    66   32  155 1    
    67   33  156 1    
    68   33  157 1    
    69   33  158 1    
    70   34   35 am   BACKBONE|DICT|INTERRES
    71   34  159 1    
    72   35   36 2    
    73   35   37 1    
    74   37   38 1    
    75   37   39 1    
    76   37  160 1    
    77   38  161 1    
    78   38  162 1    
    79   38  163 1    
    80   39   40 am   BACKBONE|DICT|INTERRES
    81   39  164 1    
    82   40   41 2    
    83   40   42 1    
    84   42   43 1    
    85   42   44 1    
    86   42  165 1    
    87   43  166 1    
    88   43  167 1    
    89   43  168 1    
    90   44   45 am   BACKBONE|DICT|INTERRES
    91   44  169 1    
    92   45   46 2    
    93   45   47 1    
    94   47   48 1    
    95   47   49 1    
    96   47  170 1    
    97   48  171 1    
    98   48  172 1    
    99   48  173 1    
   100   49   50 am   BACKBONE|DICT|INTERRES
   101   49  174 1    
   102   50   51 2    
   103   50   52 1    
   104   52   53 1    
   105   52   54 1    
   106   52  175 1    
   107   53  176 1    
   108   53  177 1    
   109   53  178 1    
   110   54   55 am   BACKBONE|DICT|INTERRES
   111   54  179 1    
   112   55   56 2    
   113   55   57 1    
   114   57   58 1    
   115   57   59 1    
   116   57  180 1    
   117   58  181 1    
   118   58  182 1    
   119   58  183 1    
   120   59   60 am   BACKBONE|DICT|INTERRES
   121   59  184 1    
   122   60   61 2    
   123   60   62 1    
   124   62   63 1    
   125   62   64 1    
   126   62  185 1    
   127   63  186 1    
   128   63  187 1    
   129   63  188 1    
   130   64   65 am   BACKBONE|DICT|INTERRES
   131   64  189 1    
   132   65   66 2    
   133   67   68 2    
   134   67   69 am   BACKBONE|DICT|INTERRES
   135   69   70 1    
   136   69  190 1    
   137   70   71 1    
   138   70   72 1    
   139   70  191 1    
   140   71  192 1    
   141   71  193 1    
   142   71  194 1    
   143   72   73 2    
   144   72   74 am   BACKBONE|DICT|INTERRES
   145   74   75 1    
   146   74  195 1    
   147   75   76 1    
   148   75   77 1    
   149   75  196 1    
   150   76  197 1    
   151   76  198 1    
   152   76  199 1    
   153   77   78 2    
   154   77   79 am   BACKBONE|DICT|INTERRES
   155   79   80 1    
   156   79  200 1    
   157   80   81 1    
   158   80   82 1    
   159   80  201 1    
   160   81  202 1    
   161   81  203 1    
   162   81  204 1    
   163   82   83 2    
   164   82   84 am   BACKBONE|DICT|INTERRES
   165   84   85 1    
   166   84  205 1    
   167   85   86 1    
   168   85   87 1    
   169   85  206 1    
   170   86  207 1    
   171   86  208 1    
   172   86  209 1    
   173   87   88 2    
   174   87   89 am   BACKBONE|DICT|INTERRES
   175   89   90 1    
   176   89  210 1    
   177   90   91 1    
   178   90   92 1    
   179   90  211 1    
   180   91  212 1    
   181   91  213 1    
   182   91  214 1    
   183   92   93 2    
   184   92   94 am   BACKBONE|DICT|INTERRES
   185   94   95 1    
   186   94  215 1    
   187   95   96 1    
   188   95   97 1    
   189   95  216 1    
   190   96  217 1    
   191   96  218 1    
   192   96  219 1    
   193   97   98 2    
   194   97   99 am   BACKBONE|DICT|INTERRES
   195   99  100 1    
   196   99  220 1    
   197  100  101 1    
   198  100  102 1    
   199  100  221 1    
   200  101  222 1    
   201  101  223 1    
   202  101  224 1    
   203  102  103 2    
   204  102  104 am   BACKBONE|DICT|INTERRES
   205  104  105 1    
   206  104  225 1    
   207  105  106 1    
   208  105  107 1    
   209  105  226 1    
   210  106  227 1    
   211  106  228 1    
   212  106  229 1    
   213  107  108 2    
   214  107  109 am   BACKBONE|DICT|INTERRES
   215  109  110 1    
   216  109  230 1    
   217  110  111 1    
   218  110  112 1    
   219  110  231 1    
   220  111  232 1    
   221  111  233 1    
   222  111  234 1    
   223  112  113 2    
   224  112  114 am   BACKBONE|DICT|INTERRES
   225  114  115 1    
   226  114  235 1    
   227  115  116 1    
   228  115  117 1    
   229  115  236 1    
   230  116  237 1    
   231  116  238 1    
   232  116  239 1    
   233  117  118 2    
   234  117  119 am   BACKBONE|DICT|INTERRES
   235  119  120 1    
   236  119  240 1    
   237  120  121 1    
   238  120  124 1    
   239  120  241 1    
   240  121  122 am   BACKBONE|DICT|INTERRES
   241  121  123 2    
   242  122  242 1    
   243  122  243 1    
   244  124  125 1    
   245  124  244 1    
   246  124  245 1    
   247  125  126 1    
   248  126  246 1    
   249  126  247 1    
@<TRIPOS>SUBSTRUCTURE
     1 UNK         1 GROUP             0       ****    0 ROOT    
