@<TRIPOS>MOLECULE
3R540
247   249    1
SMALL
USER_CHARGES


@<TRIPOS>ATOM
      1 CA          7.2644  -12.3119  -45.6496 C.3       0 UNK        -0.1800 
      2 C           6.4747  -13.4078  -46.3517 C.2       0 UNK         0.5000 
      3 O           6.5326  -14.5658  -45.9385 O.2       0 UNK        -0.5000 
      4 N           5.7386  -13.0469  -47.4063 N.am      1 UNK        -0.5000 
      5 CA          4.8582  -13.9247  -48.1746 C.3       1 UNK         0.1400 
      6 C6          5.6266  -14.9275  -49.0904 C.3       23 UNK        -0.0398 
      7 S7          4.8931  -16.5997  -49.0319 S.3       23 UNK        -0.2404 
      8 C8          4.2391  -16.8423  -50.7130 C.3       23 UNK        -0.0205 
      9 C9          2.9251  -17.6104  -50.6792 C.ar      23 UNK        -0.0193 
     10 C10         1.7196  -16.9276  -50.5086 C.ar      23 UNK        -0.1150 
     11 C11         0.5008  -17.6084  -50.5041 C.ar      23 UNK        -0.0193 
     12 C12         0.4904  -18.9981  -50.6527 C.ar      23 UNK        -0.1150 
     13 C13         1.6918  -19.6992  -50.8009 C.ar      23 UNK        -0.0193 
     14 C14         2.9044  -19.0004  -50.8196 C.ar      23 UNK        -0.1150 
     15 C15         1.6897  -21.2122  -50.9380 C.3       23 UNK        -0.0205 
     16 S16         1.7813  -22.0160  -49.3095 S.3       23 UNK        -0.2404 
     17 C17         0.0232  -22.3536  -48.9650 C.3       23 UNK        -0.0398 
     18 CA         -0.1219  -23.2666  -47.7273 C.3       11 UNK         0.1400 
     19 N           0.0721  -22.5509  -46.4647 N.am      11 UNK        -0.5000 
     20 C           0.2763  -23.1616  -45.2895 C.2       10 UNK         0.5000 
     21 O           0.3555  -24.3837  -45.1625 O.2       10 UNK        -0.5000 
     22 CA          0.3495  -22.2660  -44.0417 C.3       10 UNK         0.1400 
     23 CB          1.7179  -21.5760  -43.9407 C.3       10 UNK        -0.1800 
     24 N          -0.7186  -21.2661  -44.0112 N.am      10 UNK        -0.5000 
     25 C          -2.0254  -21.5547  -43.9306 C.2       9 UNK         0.5000 
     26 O          -2.4635  -22.7000  -43.8223 O.2       9 UNK        -0.5000 
     27 CA         -3.0111  -20.3747  -44.0329 C.3       9 UNK         0.1400 
     28 CB         -3.1419  -19.6492  -42.6861 C.3       9 UNK        -0.1800 
     29 N          -2.6418  -19.4148  -45.0739 N.am      9 UNK        -0.5000 
     30 C          -2.5873  -19.6972  -46.3836 C.2       8 UNK         0.5000 
     31 O          -2.8814  -20.7900  -46.8609 O.2       8 UNK        -0.5000 
     32 CA         -2.0629  -18.5908  -47.3119 C.3       8 UNK         0.1400 
     33 CB         -3.1674  -17.5746  -47.6384 C.3       8 UNK        -0.1800 
     34 N          -0.9086  -17.9049  -46.7357 N.am      8 UNK        -0.5000 
     35 C           0.2851  -18.4825  -46.5366 C.2       7 UNK         0.5000 
     36 O           0.5412  -19.6490  -46.8341 O.2       7 UNK        -0.5000 
     37 CA          1.3490  -17.6197  -45.8362 C.3       7 UNK         0.1400 
     38 CB          1.9740  -16.6291  -46.8275 C.3       7 UNK        -0.1800 
     39 N           0.8064  -16.8808  -44.6960 N.am      7 UNK        -0.5000 
     40 C           0.3165  -17.4438  -43.5820 C.2       6 UNK         0.5000 
     41 O           0.3198  -18.6545  -43.3683 O.2       6 UNK        -0.5000 
     42 CA         -0.3360  -16.4954  -42.5595 C.3       6 UNK         0.1400 
     43 CB          0.7143  -15.9493  -41.5816 C.3       6 UNK        -0.1800 
     44 N          -1.0340  -15.3753  -43.1920 N.am      6 UNK        -0.5000 
     45 C          -2.0745  -15.4787  -44.0276 C.2       5 UNK         0.5000 
     46 O          -2.5935  -16.5523  -44.3339 O.2       5 UNK        -0.5000 
     47 CA         -2.5766  -14.1797  -44.6857 C.3       5 UNK         0.1400 
     48 CB         -3.4945  -13.3859  -43.7376 C.3       5 UNK        -0.1800 
     49 N          -1.5009  -13.3421  -45.2392 N.am      5 UNK        -0.5000 
     50 C          -0.5425  -12.6499  -44.6012 C.2       4 UNK         0.5000 
     51 O          -0.4298  -12.6082  -43.3756 O.2       4 UNK        -0.5000 
     52 CA          0.4995  -11.9228  -45.4739 C.3       4 UNK         0.1400 
     53 CB          1.8693  -12.6130  -45.3558 C.3       4 UNK        -0.1800 
     54 N           0.1243  -11.8894  -46.8866 N.am      4 UNK        -0.5000 
     55 C          -0.6717  -10.9890  -47.4726 C.2       3 UNK         0.5000 
     56 O          -1.1616  -10.0312  -46.8722 O.2       3 UNK        -0.5000 
     57 CA         -0.9741  -11.2104  -48.9758 C.3       3 UNK         0.1400 
     58 CB         -1.6059   -9.9751  -49.6414 C.3       3 UNK        -0.1800 
     59 N           0.1928  -11.6217  -49.7672 N.am      3 UNK        -0.5000 
     60 C           0.7965  -12.8168  -49.7322 C.2       2 UNK         0.5000 
     61 O           0.4358  -13.7311  -48.9872 O.2       2 UNK        -0.5000 
     62 CA          2.0124  -13.0437  -50.6522 C.3       2 UNK         0.1400 
     63 CB          2.4581  -11.8025  -51.4590 C.3       2 UNK        -0.1800 
     64 N           3.1253  -13.6262  -49.8931 N.am      2 UNK        -0.5000 
     65 C           3.8260  -13.0450  -48.9106 C.2       1 UNK         0.5000 
     66 O           3.6799  -11.8677  -48.5697 O.2       1 UNK        -0.5000 
     67 C          -1.4357  -24.0731  -47.7537 C.2       11 UNK         0.5000 
     68 O          -1.4423  -25.1547  -48.3378 O.2       11 UNK        -0.5000 
     69 N          -2.4977  -23.5879  -47.0964 N.am      12 UNK        -0.5000 
     70 CA         -3.7537  -24.3182  -46.9129 C.3       12 UNK         0.1400 
     71 CB         -4.8408  -23.3768  -46.3786 C.3       12 UNK        -0.1800 
     72 C          -3.5923  -25.5523  -46.0109 C.2       12 UNK         0.5000 
     73 O          -4.1201  -26.6135  -46.3434 O.2       12 UNK        -0.5000 
     74 N          -2.8303  -25.4110  -44.9171 N.am      13 UNK        -0.5000 
     75 CA         -2.4762  -26.5035  -44.0079 C.3       13 UNK         0.1400 
     76 CB         -1.7976  -25.9300  -42.7547 C.3       13 UNK        -0.1800 
     77 C          -1.5885  -27.5712  -44.6776 C.2       13 UNK         0.5000 
     78 O          -1.7826  -28.7630  -44.4363 O.2       13 UNK        -0.5000 
     79 N          -0.6558  -27.1269  -45.5310 N.am      14 UNK        -0.5000 
     80 CA          0.2137  -27.9822  -46.3426 C.3       14 UNK         0.1400 
     81 CB          1.4165  -27.1501  -46.8151 C.3       14 UNK        -0.1800 
     82 C          -0.4970  -28.6175  -47.5569 C.2       14 UNK         0.5000 
     83 O           0.0480  -29.5529  -48.1440 O.2       14 UNK        -0.5000 
     84 N          -1.6708  -28.0828  -47.9270 N.am      15 UNK        -0.5000 
     85 CA         -2.4593  -28.3819  -49.1288 C.3       15 UNK         0.1400 
     86 CB         -2.9878  -29.8309  -49.1028 C.3       15 UNK        -0.1800 
     87 C          -1.7144  -28.0248  -50.4358 C.2       15 UNK         0.5000 
     88 O          -1.8743  -28.7032  -51.4522 O.2       15 UNK        -0.5000 
     89 N          -0.9092  -26.9576  -50.3774 N.am      16 UNK        -0.5000 
     90 CA         -0.1146  -26.4224  -51.4810 C.3       16 UNK         0.1400 
     91 CB          1.1760  -25.8188  -50.9044 C.3       16 UNK        -0.1800 
     92 C          -0.8833  -25.3646  -52.2941 C.2       16 UNK         0.5000 
     93 O          -0.5749  -25.1669  -53.4697 O.2       16 UNK        -0.5000 
     94 N          -1.8665  -24.7100  -51.6663 N.am      17 UNK        -0.5000 
     95 CA         -2.7559  -23.7142  -52.2575 C.3       17 UNK         0.1400 
     96 CB         -2.0416  -22.3519  -52.3720 C.3       17 UNK        -0.1800 
     97 C          -4.0128  -23.6109  -51.3815 C.2       17 UNK         0.5000 
     98 O          -4.0695  -24.2312  -50.3183 O.2       17 UNK        -0.5000 
     99 N          -4.9960  -22.8260  -51.8322 N.am      18 UNK        -0.5000 
    100 CA        -6.1760  -22.4677  -51.0461 C.3       18 UNK         0.1400 
    101 CB        -7.2902  -22.0206  -52.0064 C.3       18 UNK        -0.1800 
    102 C         -5.8510  -21.3369  -50.0533 C.2       18 UNK         0.5000 
    103 O         -4.9592  -20.5273  -50.3136 O.2       18 UNK        -0.5000 
    104 N         -6.6381  -21.2385  -48.9741 N.am      19 UNK        -0.5000 
    105 CA        -6.5468  -20.1535  -47.9875 C.3       19 UNK         0.1400 
    106 CB        -7.4153  -20.5050  -46.7697 C.3       19 UNK        -0.1800 
    107 C         -6.9478  -18.7738  -48.5531 C.2       19 UNK         0.5000 
    108 O         -6.5505  -17.7495  -47.9995 O.2       19 UNK        -0.5000 
    109 N         -7.7191  -18.7743  -49.6476 N.am      20 UNK        -0.5000 
    110 CA        -8.1616  -17.5842  -50.3710 C.3       20 UNK         0.1400 
    111 CB        -9.5773  -17.8497  -50.9096 C.3       20 UNK        -0.1800 
    112 C         -7.2152  -17.1862  -51.5226 C.2       20 UNK         0.5000 
    113 O         -7.4594  -16.1553  -52.1514 O.2       20 UNK        -0.5000 
    114 N         -6.1697  -17.9853  -51.8006 N.am      21 UNK        -0.5000 
    115 CA        -5.2857  -17.8423  -52.9681 C.3       21 UNK         0.1400 
    116 CB        -4.2793  -19.0028  -52.9993 C.3       21 UNK        -0.1800 
    117 C         -4.5406  -16.4966  -53.0638 C.2       21 UNK         0.5000 
    118 O         -4.2517  -16.0471  -54.1738 O.2       21 UNK        -0.5000 
    119 N         -4.2687  -15.8797  -51.9092 N.am      22 UNK        -0.5000 
    120 CA        -3.6634  -14.5445  -51.7837 C.3       22 UNK         0.1400 
    121 C         -4.6704  -13.4741  -51.2666 C.2       22 UNK         0.5000 
    122 N         -5.9747  -13.7266  -51.2675 N.am      22 UNK        -0.7600 
    123 O         -4.2683  -12.3848  -50.8673 O.2       22 UNK        -0.5000 
    124 C124       -2.3645  -14.5797  -50.9392 C.3       23 UNK        -0.0398 
    125 S125       -1.0750  -15.6491  -51.6658 S.3       23 UNK        -0.2404 
    126 C126       -0.7896  -16.8291  -50.3101 C.3       23 UNK        -0.0205 
    127 H127        8.3291  -12.5446  -45.6700 H         1 UNK         0.0600 
    128 H128        6.9514  -12.2322  -44.6085 H         1 UNK         0.0600 
    129 H129        7.1194  -11.3407  -46.1235 H         1 UNK         0.0600 
    130 H130        5.6650  -12.0715  -47.6699 H         1 UNK         0.3000 
    131 H131        4.2784  -14.4840  -47.4379 H         1 UNK         0.0600 
    132 H132        5.7179  -14.5690  -50.1171 H         1 UNK         0.0800 
    133 H133        6.6550  -15.0429  -48.7460 H         1 UNK         0.0800 
    134 H134        4.0923  -15.8893  -51.2210 H         1 UNK         0.0800 
    135 H135        4.9784  -17.3848  -51.3043 H         1 UNK         0.0800 
    136 H136        1.7159  -15.8590  -50.3767 H         1 UNK         0.1150 
    137 H137       -0.4470  -19.5358  -50.6397 H         1 UNK         0.1150 
    138 H138        3.8336  -19.5404  -50.9361 H         1 UNK         0.1150 
    139 H139        0.8075  -21.5464  -51.4848 H         1 UNK         0.0800 
    140 H140        2.5484  -21.5296  -51.5315 H         1 UNK         0.0800 
    141 H141       -0.3898  -22.8395  -49.8496 H         1 UNK         0.0800 
    142 H142       -0.5211  -21.4170  -48.8339 H         1 UNK         0.0800 
    143 H143        0.6698  -24.0167  -47.7846 H         1 UNK         0.0600 
    144 H144        0.0685  -21.5354  -46.5077 H         1 UNK         0.3000 
    145 H145        0.2296  -22.9079  -43.1665 H         1 UNK         0.0600 
    146 H146        1.8081  -21.0165  -43.0095 H         1 UNK         0.0600 
    147 H147        2.5268  -22.3074  -43.9604 H         1 UNK         0.0600 
    148 H148        1.8823  -20.8813  -44.7647 H         1 UNK         0.0600 
    149 H149       -0.4287  -20.2925  -44.0369 H         1 UNK         0.3000 
    150 H150       -3.9901  -20.7817  -44.2934 H         1 UNK         0.0600 
    151 H151       -3.4765  -20.3342  -41.9061 H         1 UNK         0.0600 
    152 H152       -3.8688  -18.8387  -42.7430 H         1 UNK         0.0600 
    153 H153       -2.1918  -19.2243  -42.3632 H         1 UNK         0.0600 
    154 H154       -2.4252  -18.4698  -44.7715 H         1 UNK         0.3000 
    155 H155       -1.7412  -19.0574  -48.2454 H         1 UNK         0.0600 
    156 H156       -3.6712  -17.2129  -46.7415 H         1 UNK         0.0600 
    157 H157       -2.7802  -16.7075  -48.1704 H         1 UNK         0.0600 
    158 H158       -3.9219  -18.0336  -48.2767 H         1 UNK         0.0600 
    159 H159       -1.0560  -16.9651  -46.4022 H         1 UNK         0.3000 
    160 H160        2.1339  -18.2856  -45.4712 H         1 UNK         0.0600 
    161 H161        2.8044  -16.0892  -46.3733 H         1 UNK         0.0600 
    162 H162        1.2507  -15.8980  -47.1913 H         1 UNK         0.0600 
    163 H163        2.3650  -17.1596  -47.6951 H         1 UNK         0.0600 
    164 H164        0.7630  -15.8771  -44.7799 H         1 UNK         0.3000 
    165 H165       -1.0701  -17.0697  -41.9915 H         1 UNK         0.0600 
    166 H166        0.2506  -15.3385  -40.8068 H         1 UNK         0.0600 
    167 H167        1.2428  -16.7621  -41.0817 H         1 UNK         0.0600 
    168 H168        1.4587  -15.3357  -42.0910 H         1 UNK         0.0600 
    169 H169       -0.6782  -14.4407  -43.0083 H         1 UNK         0.3000 
    170 H170       -3.1821  -14.4815  -45.5420 H         1 UNK         0.0600 
    171 H171       -2.9785  -13.0742  -42.8293 H         1 UNK         0.0600 
    172 H172       -3.8850  -12.4925  -44.2249 H         1 UNK         0.0600 
    173 H173       -4.3497  -13.9900  -43.4322 H         1 UNK         0.0600 
    174 H174       -1.4657  -13.3156  -46.2480 H         1 UNK         0.3000 
    175 H175        0.5924  -10.9018  -45.0984 H         1 UNK         0.0600 
    176 H176        2.6317  -12.0694  -45.9142 H         1 UNK         0.0600 
    177 H177        1.8418  -13.6342  -45.7374 H         1 UNK         0.0600 
    178 H178        2.2012  -12.6574  -44.3177 H         1 UNK         0.0600 
    179 H179        0.4588  -12.6521  -47.4698 H         1 UNK         0.3000 
    180 H180       -1.7106  -12.0148  -49.0209 H         1 UNK         0.0600 
    181 H181       -0.9302   -9.1193  -49.6242 H         1 UNK         0.0600 
    182 H182       -2.5258   -9.6812  -49.1343 H         1 UNK         0.0600 
    183 H183       -1.8671  -10.1787  -50.6802 H         1 UNK         0.0600 
    184 H184        0.5843  -10.9137  -50.3710 H         1 UNK         0.3000 
    185 H185        1.7019  -13.7969  -51.3770 H         1 UNK         0.0600 
    186 H186        2.7189  -10.9586  -50.8200 H         1 UNK         0.0600 
    187 H187        3.3296  -12.0317  -52.0724 H         1 UNK         0.0600 
    188 H188        1.6708  -11.4730  -52.1381 H         1 UNK         0.0600 
    189 H189        3.2901  -14.6076  -50.0586 H         1 UNK         0.3000 
    190 H190       -2.4601  -22.6454  -46.7187 H         1 UNK         0.3000 
    191 H191       -4.0813  -24.6807  -47.8857 H         1 UNK         0.0600 
    192 H192       -4.9869  -22.5360  -47.0545 H         1 UNK         0.0600 
    193 H193       -5.7966  -23.8941  -46.2892 H         1 UNK         0.0600 
    194 H194       -4.5891  -22.9777  -45.3969 H         1 UNK         0.0600 
    195 H195       -2.4747  -24.4881  -44.6848 H         1 UNK         0.3000 
    196 H196       -3.4022  -26.9914  -43.6968 H         1 UNK         0.0600 
    197 H197       -1.5552  -26.7219  -42.0451 H         1 UNK         0.0600 
    198 H198       -2.4500  -25.2221  -42.2431 H         1 UNK         0.0600 
    199 H199       -0.8699  -25.4119  -42.9979 H         1 UNK         0.0600 
    200 H200       -0.5079  -26.1248  -45.6063 H         1 UNK         0.3000 
    201 H201        0.5852  -28.7947  -45.7148 H         1 UNK         0.0600 
    202 H202        1.9514  -26.7122  -45.9722 H         1 UNK         0.0600 
    203 H203        1.1072  -26.3392  -47.4745 H         1 UNK         0.0600 
    204 H204        2.1273  -27.7665  -47.3669 H         1 UNK         0.0600 
    205 H205       -2.0084  -27.2999  -47.3828 H         1 UNK         0.3000 
    206 H206       -3.3240  -27.7177  -49.0882 H         1 UNK         0.0600 
    207 H207       -3.5071  -30.0430  -48.1682 H         1 UNK         0.0600 
    208 H208       -3.6973  -30.0017  -49.9132 H         1 UNK         0.0600 
    209 H209       -2.1846  -30.5595  -49.2144 H         1 UNK         0.0600 
    210 H210       -0.9118  -26.4152  -49.5158 H         1 UNK         0.3000 
    211 H211        0.1603  -27.2328  -52.1594 H         1 UNK         0.0600 
    212 H212        0.9653  -25.0086  -50.2065 H         1 UNK         0.0600 
    213 H213        1.8081  -25.4144  -51.6961 H         1 UNK         0.0600 
    214 H214        1.7595  -26.5719  -50.3743 H         1 UNK         0.0600 
    215 H215       -2.1105  -24.9644  -50.7153 H         1 UNK         0.3000 
    216 H216       -3.0594  -24.0554  -53.2492 H         1 UNK         0.0600 
    217 H217       -2.6476  -21.6389  -52.9312 H         1 UNK         0.0600 
    218 H218       -1.0899  -22.4386  -52.8958 H         1 UNK         0.0600 
    219 H219       -1.8510  -21.9115  -51.3934 H         1 UNK         0.0600 
    220 H220       -4.8657  -22.3245  -52.6977 H         1 UNK         0.3000 
    221 H221       -6.5210  -23.3417  -50.4890 H         1 UNK         0.0600 
    222 H222       -7.0085  -21.1290  -52.5685 H         1 UNK         0.0600 
    223 H223       -7.5295  -22.8059  -52.7237 H         1 UNK         0.0600 
    224 H224       -8.2082  -21.7901  -51.4645 H         1 UNK         0.0600 
    225 H225       -7.3632  -21.9254  -48.8242 H         1 UNK         0.3000 
    226 H226       -5.5084  -20.0814  -47.6577 H         1 UNK         0.0600 
    227 H227       -7.1030  -21.4446  -46.3148 H         1 UNK         0.0600 
    228 H228       -7.3386  -19.7346  -46.0012 H         1 UNK         0.0600 
    229 H229       -8.4682  -20.5961  -47.0394 H         1 UNK         0.0600 
    230 H230       -8.0119  -19.6636  -50.0231 H         1 UNK         0.3000 
    231 H231       -8.2143  -16.7350  -49.6864 H         1 UNK         0.0600 
    232 H232       -9.5896  -18.6770  -51.6205 H         1 UNK         0.0600 
    233 H233       -9.9754  -16.9719  -51.4205 H         1 UNK         0.0600 
    234 H234      -10.2675  -18.0913  -50.1011 H         1 UNK         0.0600 
    235 H235       -5.9926  -18.7850  -51.2058 H         1 UNK         0.3000 
    236 H236       -5.9154  -17.9209  -53.8566 H         1 UNK         0.0600 
    237 H237       -4.7872  -19.9654  -53.0428 H         1 UNK         0.0600 
    238 H238       -3.6338  -18.9392  -53.8762 H         1 UNK         0.0600 
    239 H239       -3.6346  -18.9988  -52.1193 H         1 UNK         0.0600 
    240 H240       -4.5671  -16.3170  -51.0503 H         1 UNK         0.3000 
    241 H241       -3.3798  -14.1823  -52.7732 H         1 UNK         0.0600 
    242 H242       -6.6093  -13.0176  -50.9359 H         1 UNK         0.3800 
    243 H243       -6.3477  -14.5929  -51.6413 H         1 UNK         0.3800 
    244 H244       -1.9349  -13.5803  -50.8680 H         1 UNK         0.0800 
    245 H245       -2.5832  -14.8885  -49.9164 H         1 UNK         0.0800 
    246 H246       -0.7219  -16.2903  -49.3640 H         1 UNK         0.0800 
    247 H247       -1.6461  -17.5005  -50.2405 H         1 UNK         0.0800 
@<TRIPOS>BOND
     1    1    2 1    
     2    1  127 1    
     3    1  128 1    
     4    1  129 1    
     5    2    3 2    
     6    2    4 am   BACKBONE|DICT|INTERRES
     7    4    5 1    
     8    4  130 1    
     9    5    6 1    
    10    5   65 1    
    11    5  131 1    
    12    6    7 1    
    13    6  132 1    
    14    6  133 1    
    15    7    8 1    
    16    8    9 1    
    17    8  134 1    
    18    8  135 1    
    19    9   10 ar   
    20    9   14 ar   
    21   10   11 ar   
    22   10  136 1    
    23   11   12 ar   
    24   11  126 1    
    25   12   13 ar   
    26   12  137 1    
    27   13   14 ar   
    28   13   15 1    
    29   14  138 1    
    30   15   16 1    
    31   15  139 1    
    32   15  140 1    
    33   16   17 1    
    34   17   18 1    
    35   17  141 1    
    36   17  142 1    
    37   18   19 1    
    38   18   67 1    
    39   18  143 1    
    40   19   20 am   BACKBONE|DICT|INTERRES
    41   19  144 1    
    42   20   21 2    
    43   20   22 1    
    44   22   23 1    
    45   22   24 1    
    46   22  145 1    
    47   23  146 1    
    48   23  147 1    
    49   23  148 1    
    50   24   25 am   BACKBONE|DICT|INTERRES
    51   24  149 1    
    52   25   26 2    
    53   25   27 1    
    54   27   28 1    
    55   27   29 1    
    56   27  150 1    
    57   28  151 1    
    58   28  152 1    
    59   28  153 1    
    60   29   30 am   BACKBONE|DICT|INTERRES
    61   29  154 1    
    62   30   31 2    
    63   30   32 1    
    64   32   33 1    
    65   32   34 1    
    66   32  155 1    
    67   33  156 1    
    68   33  157 1    
    69   33  158 1    
    70   34   35 am   BACKBONE|DICT|INTERRES
    71   34  159 1    
    72   35   36 2    
    73   35   37 1    
    74   37   38 1    
    75   37   39 1    
    76   37  160 1    
    77   38  161 1    
    78   38  162 1    
    79   38  163 1    
    80   39   40 am   BACKBONE|DICT|INTERRES
    81   39  164 1    
    82   40   41 2    
    83   40   42 1    
    84   42   43 1    
    85   42   44 1    
    86   42  165 1    
    87   43  166 1    
    88   43  167 1    
    89   43  168 1    
    90   44   45 am   BACKBONE|DICT|INTERRES
    91   44  169 1    
    92   45   46 2    
    93   45   47 1    
    94   47   48 1    
    95   47   49 1    
    96   47  170 1    
    97   48  171 1    
    98   48  172 1    
    99   48  173 1    
   100   49   50 am   BACKBONE|DICT|INTERRES
   101   49  174 1    
   102   50   51 2    
   103   50   52 1    
   104   52   53 1    
   105   52   54 1    
   106   52  175 1    
   107   53  176 1    
   108   53  177 1    
   109   53  178 1    
   110   54   55 am   BACKBONE|DICT|INTERRES
   111   54  179 1    
   112   55   56 2    
   113   55   57 1    
   114   57   58 1    
   115   57   59 1    
   116   57  180 1    
   117   58  181 1    
   118   58  182 1    
   119   58  183 1    
   120   59   60 am   BACKBONE|DICT|INTERRES
   121   59  184 1    
   122   60   61 2    
   123   60   62 1    
   124   62   63 1    
   125   62   64 1    
   126   62  185 1    
   127   63  186 1    
   128   63  187 1    
   129   63  188 1    
   130   64   65 am   BACKBONE|DICT|INTERRES
   131   64  189 1    
   132   65   66 2    
   133   67   68 2    
   134   67   69 am   BACKBONE|DICT|INTERRES
   135   69   70 1    
   136   69  190 1    
   137   70   71 1    
   138   70   72 1    
   139   70  191 1    
   140   71  192 1    
   141   71  193 1    
   142   71  194 1    
   143   72   73 2    
   144   72   74 am   BACKBONE|DICT|INTERRES
   145   74   75 1    
   146   74  195 1    
   147   75   76 1    
   148   75   77 1    
   149   75  196 1    
   150   76  197 1    
   151   76  198 1    
   152   76  199 1    
   153   77   78 2    
   154   77   79 am   BACKBONE|DICT|INTERRES
   155   79   80 1    
   156   79  200 1    
   157   80   81 1    
   158   80   82 1    
   159   80  201 1    
   160   81  202 1    
   161   81  203 1    
   162   81  204 1    
   163   82   83 2    
   164   82   84 am   BACKBONE|DICT|INTERRES
   165   84   85 1    
   166   84  205 1    
   167   85   86 1    
   168   85   87 1    
   169   85  206 1    
   170   86  207 1    
   171   86  208 1    
   172   86  209 1    
   173   87   88 2    
   174   87   89 am   BACKBONE|DICT|INTERRES
   175   89   90 1    
   176   89  210 1    
   177   90   91 1    
   178   90   92 1    
   179   90  211 1    
   180   91  212 1    
   181   91  213 1    
   182   91  214 1    
   183   92   93 2    
   184   92   94 am   BACKBONE|DICT|INTERRES
   185   94   95 1    
   186   94  215 1    
   187   95   96 1    
   188   95   97 1    
   189   95  216 1    
   190   96  217 1    
   191   96  218 1    
   192   96  219 1    
   193   97   98 2    
   194   97   99 am   BACKBONE|DICT|INTERRES
   195   99  100 1    
   196   99  220 1    
   197  100  101 1    
   198  100  102 1    
   199  100  221 1    
   200  101  222 1    
   201  101  223 1    
   202  101  224 1    
   203  102  103 2    
   204  102  104 am   BACKBONE|DICT|INTERRES
   205  104  105 1    
   206  104  225 1    
   207  105  106 1    
   208  105  107 1    
   209  105  226 1    
   210  106  227 1    
   211  106  228 1    
   212  106  229 1    
   213  107  108 2    
   214  107  109 am   BACKBONE|DICT|INTERRES
   215  109  110 1    
   216  109  230 1    
   217  110  111 1    
   218  110  112 1    
   219  110  231 1    
   220  111  232 1    
   221  111  233 1    
   222  111  234 1    
   223  112  113 2    
   224  112  114 am   BACKBONE|DICT|INTERRES
   225  114  115 1    
   226  114  235 1    
   227  115  116 1    
   228  115  117 1    
   229  115  236 1    
   230  116  237 1    
   231  116  238 1    
   232  116  239 1    
   233  117  118 2    
   234  117  119 am   BACKBONE|DICT|INTERRES
   235  119  120 1    
   236  119  240 1    
   237  120  121 1    
   238  120  124 1    
   239  120  241 1    
   240  121  122 am   BACKBONE|DICT|INTERRES
   241  121  123 2    
   242  122  242 1    
   243  122  243 1    
   244  124  125 1    
   245  124  244 1    
   246  124  245 1    
   247  125  126 1    
   248  126  246 1    
   249  126  247 1    
@<TRIPOS>SUBSTRUCTURE
     1 UNK         1 GROUP             0       ****    0 ROOT    
