@<TRIPOS>MOLECULE
3R540
247   249    1
SMALL
USER_CHARGES


@<TRIPOS>ATOM
      1 CA          4.7044  -13.1211  -52.7952 C.3       0 UNK        -0.1800 
      2 C           4.5264  -13.6387  -51.3747 C.2       0 UNK         0.5000 
      3 O           5.4937  -14.0906  -50.7608 O.2       0 UNK        -0.5000 
      4 N           3.2946  -13.5832  -50.8555 N.am      1 UNK        -0.5000 
      5 CA          2.9362  -13.9586  -49.4851 C.3       1 UNK         0.1400 
      6 C6          1.4062  -14.1576  -49.3199 C.3       23 UNK        -0.0398 
      7 S7          0.3820  -12.7700  -49.9335 S.3       23 UNK        -0.2404 
      8 C8         -1.2848  -13.2662  -49.3904 C.3       23 UNK        -0.0205 
      9 C9         -1.7210  -14.5877  -50.0068 C.ar      23 UNK        -0.0193 
     10 C10        -2.1662  -14.6409  -51.3330 C.ar      23 UNK        -0.1150 
     11 C11        -2.5459  -15.8599  -51.9048 C.ar      23 UNK        -0.0193 
     12 C12        -2.4719  -17.0250  -51.1391 C.ar      23 UNK        -0.1150 
     13 C13        -2.0516  -16.9832  -49.8102 C.ar      23 UNK        -0.0193 
     14 C14        -1.6763  -15.7612  -49.2474 C.ar      23 UNK        -0.1150 
     15 C15        -2.0026  -18.2576  -48.9868 C.3       23 UNK        -0.0205 
     16 S16        -0.3636  -19.0401  -49.1079 S.3       23 UNK        -0.2404 
     17 C17        -0.0675  -19.5165  -47.3746 C.3       23 UNK        -0.0398 
     18 CA         -0.2608  -21.0180  -47.0591 C.3       11 UNK         0.1400 
     19 N           0.1590  -21.2996  -45.6868 N.am      11 UNK        -0.5000 
     20 C           0.2677  -22.5108  -45.1288 C.2       10 UNK         0.5000 
     21 O           0.0613  -23.5638  -45.7308 O.2       10 UNK        -0.5000 
     22 CA          0.6217  -22.5401  -43.6302 C.3       10 UNK         0.1400 
     23 CB          2.1284  -22.3301  -43.4192 C.3       10 UNK        -0.1800 
     24 N          -0.1250  -21.5439  -42.8576 N.am      10 UNK        -0.5000 
     25 C          -1.4578  -21.5511  -42.7079 C.2       9 UNK         0.5000 
     26 O          -2.1930  -22.4193  -43.1782 O.2       9 UNK        -0.5000 
     27 CA         -2.0813  -20.3679  -41.9462 C.3       9 UNK         0.1400 
     28 CB         -1.8880  -20.5284  -40.4311 C.3       9 UNK        -0.1800 
     29 N          -1.5547  -19.0733  -42.3812 N.am      9 UNK        -0.5000 
     30 C          -1.6925  -18.5770  -43.6196 C.2       8 UNK         0.5000 
     31 O          -2.3085  -19.1442  -44.5198 O.2       8 UNK        -0.5000 
     32 CA         -0.9765  -17.2519  -43.9281 C.3       8 UNK         0.1400 
     33 CB         -1.7826  -16.0546  -43.4038 C.3       8 UNK        -0.1800 
     34 N           0.3790  -17.2089  -43.3856 N.am      8 UNK        -0.5000 
     35 C           1.3718  -18.0446  -43.7185 C.2       7 UNK         0.5000 
     36 O           1.2661  -18.9384  -44.5560 O.2       7 UNK        -0.5000 
     37 CA          2.6888  -17.8879  -42.9440 C.3       7 UNK         0.1400 
     38 CB          3.4990  -16.6940  -43.4719 C.3       7 UNK        -0.1800 
     39 N           2.4543  -17.7366  -41.5088 N.am      7 UNK        -0.5000 
     40 C           1.9675  -18.7021  -40.7160 C.2       6 UNK         0.5000 
     41 O           1.6921  -19.8376  -41.1060 O.2       6 UNK        -0.5000 
     42 CA          1.7138  -18.3177  -39.2473 C.3       6 UNK         0.1400 
     43 CB          3.0083  -18.4231  -38.4274 C.3       6 UNK        -0.1800 
     44 N           1.1573  -16.9703  -39.1070 N.am      6 UNK        -0.5000 
     45 C          -0.0736  -16.6214  -39.5058 C.2       5 UNK         0.5000 
     46 O          -0.8709  -17.4012  -40.0269 O.2       5 UNK        -0.5000 
     47 CA         -0.4612  -15.1403  -39.3344 C.3       5 UNK         0.1400 
     48 CB         -0.8913  -14.8563  -37.8873 C.3       5 UNK        -0.1800 
     49 N           0.5912  -14.1952  -39.7268 N.am      5 UNK        -0.5000 
     50 C           1.1373  -14.1345  -40.9479 C.2       4 UNK         0.5000 
     51 O           0.8944  -14.9450  -41.8432 O.2       4 UNK        -0.5000 
     52 CA          2.1434  -13.0030  -41.2176 C.3       4 UNK         0.1400 
     53 CB          3.5699  -13.4618  -40.8786 C.3       4 UNK        -0.1800 
     54 N           2.0925  -12.6175  -42.6277 N.am      4 UNK        -0.5000 
     55 C           1.1074  -11.9041  -43.1899 C.2       3 UNK         0.5000 
     56 O           0.2195  -11.3524  -42.5372 O.2       3 UNK        -0.5000 
     57 CA          1.0719  -11.8275  -44.7337 C.3       3 UNK         0.1400 
     58 CB          0.7532  -10.4073  -45.2453 C.3       3 UNK        -0.1800 
     59 N           2.2546  -12.3806  -45.4095 N.am      3 UNK        -0.5000 
     60 C           3.5093  -11.9039  -45.4023 C.2       2 UNK         0.5000 
     61 O           3.8665  -10.9060  -44.7764 O.2       2 UNK        -0.5000 
     62 CA          4.5508  -12.6953  -46.2173 C.3       2 UNK         0.1400 
     63 CB          5.3421  -13.6364  -45.2952 C.3       2 UNK        -0.1800 
     64 N           3.9624  -13.4810  -47.3074 N.am      2 UNK        -0.5000 
     65 C           3.5120  -12.9588  -48.4569 C.2       1 UNK         0.5000 
     66 O           3.5365  -11.7523  -48.7138 O.2       1 UNK        -0.5000 
     67 C          -1.6988  -21.5137  -47.3293 C.2       11 UNK         0.5000 
     68 O          -1.9319  -22.1666  -48.3474 O.2       11 UNK        -0.5000 
     69 N          -2.6264  -21.2423  -46.4000 N.am      12 UNK        -0.5000 
     70 CA         -4.0104  -21.7146  -46.4463 C.3       12 UNK         0.1400 
     71 CB         -4.8321  -21.0338  -45.3422 C.3       12 UNK        -0.1800 
     72 C          -4.1200  -23.2461  -46.3465 C.2       12 UNK         0.5000 
     73 O          -4.8758  -23.8436  -47.1123 O.2       12 UNK        -0.5000 
     74 N          -3.3334  -23.8613  -45.4508 N.am      13 UNK        -0.5000 
     75 CA         -3.2377  -25.3160  -45.2872 C.3       13 UNK         0.1400 
     76 CB         -2.3883  -25.6412  -44.0495 C.3       13 UNK        -0.1800 
     77 C          -2.6816  -26.0297  -46.5356 C.2       13 UNK         0.5000 
     78 O          -3.1344  -27.1268  -46.8630 O.2       13 UNK        -0.5000 
     79 N          -1.7473  -25.3723  -47.2346 N.am      14 UNK        -0.5000 
     80 CA         -1.1964  -25.7963  -48.5232 C.3       14 UNK         0.1400 
     81 CB          0.1759  -25.1280  -48.7103 C.3       14 UNK        -0.1800 
     82 C          -2.1172  -25.4791  -49.7217 C.2       14 UNK         0.5000 
     83 O          -1.7499  -25.7933  -50.8551 O.2       14 UNK        -0.5000 
     84 N          -3.2639  -24.8267  -49.4758 N.am      15 UNK        -0.5000 
     85 CA         -4.2483  -24.3551  -50.4539 C.3       15 UNK         0.1400 
     86 CB         -4.9781  -25.5428  -51.1137 C.3       15 UNK        -0.1800 
     87 C          -3.6389  -23.3820  -51.4813 C.2       15 UNK         0.5000 
     88 O          -3.9319  -23.4832  -52.6738 O.2       15 UNK        -0.5000 
     89 N          -2.7935  -22.4608  -50.9971 N.am      16 UNK        -0.5000 
     90 CA         -1.9995  -21.4975  -51.7682 C.3       16 UNK         0.1400 
     91 CB         -2.9064  -20.5225  -52.5471 C.3       16 UNK        -0.1800 
     92 C          -0.9319  -22.1785  -52.6496 C.2       16 UNK         0.5000 
     93 O          -0.6288  -21.6909  -53.7379 O.2       16 UNK        -0.5000 
     94 N          -0.3937  -23.3035  -52.1536 N.am      17 UNK        -0.5000 
     95 CA          0.4941  -24.2445  -52.8443 C.3       17 UNK         0.1400 
     96 CB          1.8448  -23.5906  -53.2047 C.3       17 UNK        -0.1800 
     97 C          -0.2222  -24.8982  -54.0432 C.2       17 UNK         0.5000 
     98 O           0.2884  -24.8775  -55.1648 O.2       17 UNK        -0.5000 
     99 N          -1.4121  -25.4499  -53.7599 N.am      18 UNK        -0.5000 
    100 CA        -2.3551  -26.0713  -54.6942 C.3       18 UNK         0.1400 
    101 CB        -1.7817  -27.3927  -55.2472 C.3       18 UNK        -0.1800 
    102 C         -2.8263  -25.1001  -55.7987 C.2       18 UNK         0.5000 
    103 O         -2.7549  -25.4226  -56.9864 O.2       18 UNK        -0.5000 
    104 N         -3.3074  -23.9254  -55.3767 N.am      19 UNK        -0.5000 
    105 CA        -3.8438  -22.8669  -56.2316 C.3       19 UNK         0.1400 
    106 CB        -2.8007  -21.7488  -56.4031 C.3       19 UNK        -0.1800 
    107 C         -5.1864  -22.3696  -55.6672 C.2       19 UNK         0.5000 
    108 O         -5.4239  -21.1625  -55.5858 O.2       19 UNK        -0.5000 
    109 N         -6.0363  -23.3300  -55.2709 N.am      20 UNK        -0.5000 
    110 CA        -7.4339  -23.1783  -54.8426 C.3       20 UNK         0.1400 
    111 CB        -8.3057  -22.7544  -56.0433 C.3       20 UNK        -0.1800 
    112 C         -7.6522  -22.2652  -53.6156 C.2       20 UNK         0.5000 
    113 O         -8.7605  -21.7617  -53.4274 O.2       20 UNK        -0.5000 
    114 N         -6.6029  -22.0774  -52.8011 N.am      21 UNK        -0.5000 
    115 CA        -6.5441  -21.1786  -51.6432 C.3       21 UNK         0.1400 
    116 CB        -7.4838  -21.6562  -50.5159 C.3       21 UNK        -0.1800 
    117 C         -6.7316  -19.6912  -52.0180 C.2       21 UNK         0.5000 
    118 O         -7.3344  -18.9373  -51.2520 O.2       21 UNK        -0.5000 
    119 N         -6.1745  -19.2926  -53.1719 N.am      22 UNK        -0.5000 
    120 CA        -6.2135  -17.9291  -53.7283 C.3       22 UNK         0.1400 
    121 C         -7.6006  -17.5448  -54.3315 C.2       22 UNK         0.5000 
    122 N         -7.8118  -16.2829  -54.6810 N.am      22 UNK        -0.7600 
    123 O         -8.4809  -18.3792  -54.5283 O.2       22 UNK        -0.5000 
    124 C124       -5.6418  -16.8668  -52.7379 C.3       23 UNK        -0.0398 
    125 S125       -4.7687  -15.4804  -53.5504 S.3       23 UNK        -0.2404 
    126 C126       -3.0133  -15.9326  -53.3529 C.3       23 UNK        -0.0205 
    127 H127        3.7648  -12.7629  -53.2168 H         1 UNK         0.0600 
    128 H128        5.0854  -13.9139  -53.4390 H         1 UNK         0.0600 
    129 H129        5.4182  -12.2975  -52.8075 H         1 UNK         0.0600 
    130 H130        2.5452  -13.1686  -51.3916 H         1 UNK         0.3000 
    131 H131        3.4044  -14.9263  -49.2906 H         1 UNK         0.0600 
    132 H132        1.1509  -14.3586  -48.2781 H         1 UNK         0.0800 
    133 H133        1.1121  -15.0518  -49.8712 H         1 UNK         0.0800 
    134 H134       -1.9939  -12.4855  -49.6694 H         1 UNK         0.0800 
    135 H135       -1.3070  -13.3215  -48.3009 H         1 UNK         0.0800 
    136 H136       -2.2076  -13.7354  -51.9222 H         1 UNK         0.1150 
    137 H137       -2.7482  -17.9689  -51.5778 H         1 UNK         0.1150 
    138 H138       -1.3380  -15.7273  -48.2212 H         1 UNK         0.1150 
    139 H139       -2.2599  -18.0247  -47.9529 H         1 UNK         0.0800 
    140 H140       -2.7590  -18.9647  -49.3316 H         1 UNK         0.0800 
    141 H141       -0.6670  -18.9033  -46.7029 H         1 UNK         0.0800 
    142 H142        0.9670  -19.2431  -47.1636 H         1 UNK         0.0800 
    143 H143        0.4015  -21.5850  -47.7167 H         1 UNK         0.0600 
    144 H144        0.3998  -20.4878  -45.1228 H         1 UNK         0.3000 
    145 H145        0.3590  -23.5279  -43.2464 H         1 UNK         0.0600 
    146 H146        2.3953  -22.4293  -42.3669 H         1 UNK         0.0600 
    147 H147        2.7077  -23.0692  -43.9738 H         1 UNK         0.0600 
    148 H148        2.4490  -21.3422  -43.7518 H         1 UNK         0.0600 
    149 H149        0.4165  -20.8071  -42.4173 H         1 UNK         0.3000 
    150 H150       -3.1539  -20.3736  -42.1510 H         1 UNK         0.0600 
    151 H151       -2.2761  -21.4877  -40.0866 H         1 UNK         0.0600 
    152 H152       -2.4166  -19.7485  -39.8828 H         1 UNK         0.0600 
    153 H153       -0.8357  -20.4789  -40.1503 H         1 UNK         0.0600 
    154 H154       -1.0705  -18.5204  -41.6808 H         1 UNK         0.3000 
    155 H155       -0.9008  -17.1576  -45.0129 H         1 UNK         0.0600 
    156 H156       -1.8655  -16.0702  -42.3167 H         1 UNK         0.0600 
    157 H157       -2.7940  -16.0551  -43.8120 H         1 UNK         0.0600 
    158 H158       -1.3163  -15.1112  -43.6886 H         1 UNK         0.0600 
    159 H159        0.5686  -16.4727  -42.7071 H         1 UNK         0.3000 
    160 H160        3.2786  -18.7941  -43.0978 H         1 UNK         0.0600 
    161 H161        2.9569  -15.7544  -43.3655 H         1 UNK         0.0600 
    162 H162        3.7276  -16.8204  -44.5309 H         1 UNK         0.0600 
    163 H163        4.4482  -16.5963  -42.9449 H         1 UNK         0.0600 
    164 H164        2.5966  -16.8178  -41.1182 H         1 UNK         0.3000 
    165 H165        0.9929  -19.0288  -38.8379 H         1 UNK         0.0600 
    166 H166        2.8225  -18.2286  -37.3710 H         1 UNK         0.0600 
    167 H167        3.4364  -19.4237  -38.5021 H         1 UNK         0.0600 
    168 H168        3.7641  -17.7160  -38.7716 H         1 UNK         0.0600 
    169 H169        1.7514  -16.2658  -38.6954 H         1 UNK         0.3000 
    170 H170       -1.3203  -14.9554  -39.9826 H         1 UNK         0.0600 
    171 H171       -1.6843  -15.5371  -37.5746 H         1 UNK         0.0600 
    172 H172       -0.0623  -14.9749  -37.1886 H         1 UNK         0.0600 
    173 H173       -1.2768  -13.8420  -37.7822 H         1 UNK         0.0600 
    174 H174        0.8548  -13.5057  -39.0376 H         1 UNK         0.3000 
    175 H175        1.8895  -12.1392  -40.5996 H         1 UNK         0.0600 
    176 H176        3.8688  -14.3289  -41.4686 H         1 UNK         0.0600 
    177 H177        4.2926  -12.6669  -41.0644 H         1 UNK         0.0600 
    178 H178        3.6535  -13.7360  -39.8263 H         1 UNK         0.0600 
    179 H179        2.7598  -13.0597  -43.2397 H         1 UNK         0.3000 
    180 H180        0.2416  -12.4687  -45.0333 H         1 UNK         0.0600 
    181 H181        1.4984   -9.6810  -44.9204 H         1 UNK         0.0600 
    182 H182       -0.2146  -10.0659  -44.8765 H         1 UNK         0.0600 
    183 H183        0.7106  -10.3815  -46.3344 H         1 UNK         0.0600 
    184 H184        2.0883  -13.2194  -45.9457 H         1 UNK         0.3000 
    185 H185        5.2495  -11.9741  -46.6470 H         1 UNK         0.0600 
    186 H186        5.8181  -13.0819  -44.4851 H         1 UNK         0.0600 
    187 H187        4.7001  -14.3915  -44.8418 H         1 UNK         0.0600 
    188 H188        6.1326  -14.1514  -45.8414 H         1 UNK         0.0600 
    189 H189        3.9363  -14.4820  -47.1754 H         1 UNK         0.3000 
    190 H190       -2.3787  -20.6543  -45.6075 H         1 UNK         0.3000 
    191 H191       -4.4296  -21.4163  -47.4097 H         1 UNK         0.0600 
    192 H192       -4.4352  -21.2533  -44.3506 H         1 UNK         0.0600 
    193 H193       -5.8700  -21.3684  -45.3636 H         1 UNK         0.0600 
    194 H194       -4.8371  -19.9510  -45.4673 H         1 UNK         0.0600 
    195 H195       -2.7723  -23.2955  -44.8197 H         1 UNK         0.3000 
    196 H196       -4.2466  -25.6960  -45.1141 H         1 UNK         0.0600 
    197 H197       -2.3246  -26.7184  -43.8910 H         1 UNK         0.0600 
    198 H198       -2.8210  -25.2051  -43.1491 H         1 UNK         0.0600 
    199 H199       -1.3708  -25.2629  -44.1482 H         1 UNK         0.0600 
    200 H200       -1.3812  -24.5060  -46.8528 H         1 UNK         0.3000 
    201 H201       -1.0493  -26.8779  -48.5046 H         1 UNK         0.0600 
    202 H202        0.8458  -25.3682  -47.8844 H         1 UNK         0.0600 
    203 H203        0.0911  -24.0421  -48.7642 H         1 UNK         0.0600 
    204 H204        0.6603  -25.4679  -49.6262 H         1 UNK         0.0600 
    205 H205       -3.4761  -24.5914  -48.5136 H         1 UNK         0.3000 
    206 H206       -4.9885  -23.7815  -49.8951 H         1 UNK         0.0600 
    207 H207       -5.7897  -25.1959  -51.7546 H         1 UNK         0.0600 
    208 H208       -5.4173  -26.1992  -50.3626 H         1 UNK         0.0600 
    209 H209       -4.3069  -26.1412  -51.7302 H         1 UNK         0.0600 
    210 H210       -2.5994  -22.4625  -49.9955 H         1 UNK         0.3000 
    211 H211       -1.4449  -20.9116  -51.0367 H         1 UNK         0.0600 
    212 H212       -2.3179  -19.7528  -53.0471 H         1 UNK         0.0600 
    213 H213       -3.5993  -20.0198  -51.8752 H         1 UNK         0.0600 
    214 H214       -3.4934  -21.0261  -53.3132 H         1 UNK         0.0600 
    215 H215       -0.7485  -23.6272  -51.2654 H         1 UNK         0.3000 
    216 H216        0.7023  -25.0484  -52.1369 H         1 UNK         0.0600 
    217 H217        2.5392  -24.3321  -53.6011 H         1 UNK         0.0600 
    218 H218        2.3123  -23.1440  -52.3273 H         1 UNK         0.0600 
    219 H219        1.7366  -22.8125  -53.9604 H         1 UNK         0.0600 
    220 H220       -1.7085  -25.4370  -52.7879 H         1 UNK         0.3000 
    221 H221       -3.2420  -26.3197  -54.1096 H         1 UNK         0.0600 
    222 H222       -0.9031  -27.2260  -55.8711 H         1 UNK         0.0600 
    223 H223       -1.4959  -28.0659  -54.4390 H         1 UNK         0.0600 
    224 H224       -2.5210  -27.9137  -55.8565 H         1 UNK         0.0600 
    225 H225       -3.3782  -23.7561  -54.3737 H         1 UNK         0.3000 
    226 H226       -4.0680  -23.2668  -57.2224 H         1 UNK         0.0600 
    227 H227       -1.8581  -22.1437  -56.7825 H         1 UNK         0.0600 
    228 H228       -3.1480  -20.9958  -57.1112 H         1 UNK         0.0600 
    229 H229       -2.5942  -21.2417  -55.4622 H         1 UNK         0.0600 
    230 H230       -5.7084  -24.2836  -55.3327 H         1 UNK         0.3000 
    231 H231       -7.7623  -24.1714  -54.5328 H         1 UNK         0.0600 
    232 H232       -8.1575  -23.4197  -56.8939 H         1 UNK         0.0600 
    233 H233       -8.0761  -21.7385  -56.3671 H         1 UNK         0.0600 
    234 H234       -9.3666  -22.7859  -55.7924 H         1 UNK         0.0600 
    235 H235       -5.7353  -22.5459  -53.0401 H         1 UNK         0.3000 
    236 H236       -5.5304  -21.2496  -51.2531 H         1 UNK         0.0600 
    237 H237       -7.3139  -21.0884  -49.6004 H         1 UNK         0.0600 
    238 H238       -8.5339  -21.5355  -50.7828 H         1 UNK         0.0600 
    239 H239       -7.3162  -22.7070  -50.2799 H         1 UNK         0.0600 
    240 H240       -5.7852  -19.9970  -53.7884 H         1 UNK         0.3000 
    241 H241       -5.5417  -17.9850  -54.5854 H         1 UNK         0.0600 
    242 H242       -8.6974  -16.0231  -55.0867 H         1 UNK         0.3800 
    243 H243       -7.0963  -15.5830  -54.5477 H         1 UNK         0.3800 
    244 H244       -6.4356  -16.4569  -52.1111 H         1 UNK         0.0800 
    245 H245       -4.9574  -17.3418  -52.0393 H         1 UNK         0.0800 
    246 H246       -2.4080  -15.2577  -53.9599 H         1 UNK         0.0800 
    247 H247       -2.8506  -16.9321  -53.7599 H         1 UNK         0.0800 
@<TRIPOS>BOND
     1    1    2 1    
     2    1  127 1    
     3    1  128 1    
     4    1  129 1    
     5    2    3 2    
     6    2    4 am   BACKBONE|DICT|INTERRES
     7    4    5 1    
     8    4  130 1    
     9    5    6 1    
    10    5   65 1    
    11    5  131 1    
    12    6    7 1    
    13    6  132 1    
    14    6  133 1    
    15    7    8 1    
    16    8    9 1    
    17    8  134 1    
    18    8  135 1    
    19    9   10 ar   
    20    9   14 ar   
    21   10   11 ar   
    22   10  136 1    
    23   11   12 ar   
    24   11  126 1    
    25   12   13 ar   
    26   12  137 1    
    27   13   14 ar   
    28   13   15 1    
    29   14  138 1    
    30   15   16 1    
    31   15  139 1    
    32   15  140 1    
    33   16   17 1    
    34   17   18 1    
    35   17  141 1    
    36   17  142 1    
    37   18   19 1    
    38   18   67 1    
    39   18  143 1    
    40   19   20 am   BACKBONE|DICT|INTERRES
    41   19  144 1    
    42   20   21 2    
    43   20   22 1    
    44   22   23 1    
    45   22   24 1    
    46   22  145 1    
    47   23  146 1    
    48   23  147 1    
    49   23  148 1    
    50   24   25 am   BACKBONE|DICT|INTERRES
    51   24  149 1    
    52   25   26 2    
    53   25   27 1    
    54   27   28 1    
    55   27   29 1    
    56   27  150 1    
    57   28  151 1    
    58   28  152 1    
    59   28  153 1    
    60   29   30 am   BACKBONE|DICT|INTERRES
    61   29  154 1    
    62   30   31 2    
    63   30   32 1    
    64   32   33 1    
    65   32   34 1    
    66   32  155 1    
    67   33  156 1    
    68   33  157 1    
    69   33  158 1    
    70   34   35 am   BACKBONE|DICT|INTERRES
    71   34  159 1    
    72   35   36 2    
    73   35   37 1    
    74   37   38 1    
    75   37   39 1    
    76   37  160 1    
    77   38  161 1    
    78   38  162 1    
    79   38  163 1    
    80   39   40 am   BACKBONE|DICT|INTERRES
    81   39  164 1    
    82   40   41 2    
    83   40   42 1    
    84   42   43 1    
    85   42   44 1    
    86   42  165 1    
    87   43  166 1    
    88   43  167 1    
    89   43  168 1    
    90   44   45 am   BACKBONE|DICT|INTERRES
    91   44  169 1    
    92   45   46 2    
    93   45   47 1    
    94   47   48 1    
    95   47   49 1    
    96   47  170 1    
    97   48  171 1    
    98   48  172 1    
    99   48  173 1    
   100   49   50 am   BACKBONE|DICT|INTERRES
   101   49  174 1    
   102   50   51 2    
   103   50   52 1    
   104   52   53 1    
   105   52   54 1    
   106   52  175 1    
   107   53  176 1    
   108   53  177 1    
   109   53  178 1    
   110   54   55 am   BACKBONE|DICT|INTERRES
   111   54  179 1    
   112   55   56 2    
   113   55   57 1    
   114   57   58 1    
   115   57   59 1    
   116   57  180 1    
   117   58  181 1    
   118   58  182 1    
   119   58  183 1    
   120   59   60 am   BACKBONE|DICT|INTERRES
   121   59  184 1    
   122   60   61 2    
   123   60   62 1    
   124   62   63 1    
   125   62   64 1    
   126   62  185 1    
   127   63  186 1    
   128   63  187 1    
   129   63  188 1    
   130   64   65 am   BACKBONE|DICT|INTERRES
   131   64  189 1    
   132   65   66 2    
   133   67   68 2    
   134   67   69 am   BACKBONE|DICT|INTERRES
   135   69   70 1    
   136   69  190 1    
   137   70   71 1    
   138   70   72 1    
   139   70  191 1    
   140   71  192 1    
   141   71  193 1    
   142   71  194 1    
   143   72   73 2    
   144   72   74 am   BACKBONE|DICT|INTERRES
   145   74   75 1    
   146   74  195 1    
   147   75   76 1    
   148   75   77 1    
   149   75  196 1    
   150   76  197 1    
   151   76  198 1    
   152   76  199 1    
   153   77   78 2    
   154   77   79 am   BACKBONE|DICT|INTERRES
   155   79   80 1    
   156   79  200 1    
   157   80   81 1    
   158   80   82 1    
   159   80  201 1    
   160   81  202 1    
   161   81  203 1    
   162   81  204 1    
   163   82   83 2    
   164   82   84 am   BACKBONE|DICT|INTERRES
   165   84   85 1    
   166   84  205 1    
   167   85   86 1    
   168   85   87 1    
   169   85  206 1    
   170   86  207 1    
   171   86  208 1    
   172   86  209 1    
   173   87   88 2    
   174   87   89 am   BACKBONE|DICT|INTERRES
   175   89   90 1    
   176   89  210 1    
   177   90   91 1    
   178   90   92 1    
   179   90  211 1    
   180   91  212 1    
   181   91  213 1    
   182   91  214 1    
   183   92   93 2    
   184   92   94 am   BACKBONE|DICT|INTERRES
   185   94   95 1    
   186   94  215 1    
   187   95   96 1    
   188   95   97 1    
   189   95  216 1    
   190   96  217 1    
   191   96  218 1    
   192   96  219 1    
   193   97   98 2    
   194   97   99 am   BACKBONE|DICT|INTERRES
   195   99  100 1    
   196   99  220 1    
   197  100  101 1    
   198  100  102 1    
   199  100  221 1    
   200  101  222 1    
   201  101  223 1    
   202  101  224 1    
   203  102  103 2    
   204  102  104 am   BACKBONE|DICT|INTERRES
   205  104  105 1    
   206  104  225 1    
   207  105  106 1    
   208  105  107 1    
   209  105  226 1    
   210  106  227 1    
   211  106  228 1    
   212  106  229 1    
   213  107  108 2    
   214  107  109 am   BACKBONE|DICT|INTERRES
   215  109  110 1    
   216  109  230 1    
   217  110  111 1    
   218  110  112 1    
   219  110  231 1    
   220  111  232 1    
   221  111  233 1    
   222  111  234 1    
   223  112  113 2    
   224  112  114 am   BACKBONE|DICT|INTERRES
   225  114  115 1    
   226  114  235 1    
   227  115  116 1    
   228  115  117 1    
   229  115  236 1    
   230  116  237 1    
   231  116  238 1    
   232  116  239 1    
   233  117  118 2    
   234  117  119 am   BACKBONE|DICT|INTERRES
   235  119  120 1    
   236  119  240 1    
   237  120  121 1    
   238  120  124 1    
   239  120  241 1    
   240  121  122 am   BACKBONE|DICT|INTERRES
   241  121  123 2    
   242  122  242 1    
   243  122  243 1    
   244  124  125 1    
   245  124  244 1    
   246  124  245 1    
   247  125  126 1    
   248  126  246 1    
   249  126  247 1    
@<TRIPOS>SUBSTRUCTURE
     1 UNK         1 GROUP             0       ****    0 ROOT    
