@<TRIPOS>MOLECULE
3R540
247   249    1
SMALL
USER_CHARGES


@<TRIPOS>ATOM
      1 CA         -5.4130  -16.6647  -47.5841 C.3       0 UNK        -0.1800 
      2 C          -4.4751  -15.6561  -46.9380 C.2       0 UNK         0.5000 
      3 O          -4.9305  -14.7250  -46.2751 O.2       0 UNK        -0.5000 
      4 N          -3.1626  -15.8546  -47.1018 N.am      1 UNK        -0.5000 
      5 CA         -2.0760  -14.9974  -46.6067 C.3       1 UNK         0.1400 
      6 C6         -0.7836  -15.2071  -47.4339 C.3       23 UNK        -0.0398 
      7 S7         -0.9809  -14.8441  -49.2081 S.3       23 UNK        -0.2404 
      8 C8          0.6021  -15.4834  -49.8416 C.3       23 UNK        -0.0205 
      9 C9          0.4135  -16.7393  -50.6789 C.ar      23 UNK        -0.0193 
     10 C10         0.5549  -16.6759  -52.0686 C.ar      23 UNK        -0.1150 
     11 C11         0.4092  -17.8239  -52.8517 C.ar      23 UNK        -0.0193 
     12 C12         0.1214  -19.0417  -52.2329 C.ar      23 UNK        -0.1150 
     13 C13        -0.0587  -19.1141  -50.8498 C.ar      23 UNK        -0.0193 
     14 C14         0.1023  -17.9618  -50.0734 C.ar      23 UNK        -0.1150 
     15 C15        -0.5016  -20.4242  -50.2205 C.3       23 UNK        -0.0205 
     16 S16         0.8828  -21.3769  -49.5240 S.3       23 UNK        -0.2404 
     17 C17         0.7928  -20.9309  -47.7573 C.3       23 UNK        -0.0398 
     18 CA         -0.0780  -21.9206  -46.9403 C.3       11 UNK         0.1400 
     19 N           0.3304  -21.9921  -45.5341 N.am      11 UNK        -0.5000 
     20 C          -0.1495  -22.8760  -44.6460 C.2       10 UNK         0.5000 
     21 O          -0.9338  -23.7782  -44.9366 O.2       10 UNK        -0.5000 
     22 CA          0.2625  -22.6799  -43.1758 C.3       10 UNK         0.1400 
     23 CB          1.6372  -23.3058  -42.8992 C.3       10 UNK        -0.1800 
     24 N           0.2680  -21.2681  -42.7895 N.am      10 UNK        -0.5000 
     25 C          -0.8247  -20.4925  -42.7563 C.2       9 UNK         0.5000 
     26 O          -1.9620  -20.9170  -42.9556 O.2       9 UNK        -0.5000 
     27 CA         -0.6135  -18.9845  -42.5293 C.3       9 UNK         0.1400 
     28 CB         -0.5246  -18.6510  -41.0342 C.3       9 UNK        -0.1800 
     29 N           0.5665  -18.4697  -43.2256 N.am      9 UNK        -0.5000 
     30 C           0.6866  -18.4159  -44.5603 C.2       8 UNK         0.5000 
     31 O          -0.2167  -18.7190  -45.3382 O.2       8 UNK        -0.5000 
     32 CA          2.0589  -18.0210  -45.1282 C.3       8 UNK         0.1400 
     33 CB          2.1752  -16.5061  -45.2859 C.3       8 UNK        -0.1800 
     34 N           3.1538  -18.5040  -44.2921 N.am      8 UNK        -0.5000 
     35 C           3.5550  -19.7807  -44.2600 C.2       7 UNK         0.5000 
     36 O           3.0491  -20.6705  -44.9450 O.2       7 UNK        -0.5000 
     37 CA          4.6791  -20.1218  -43.2652 C.3       7 UNK         0.1400 
     38 CB          6.0524  -19.7638  -43.8527 C.3       7 UNK        -0.1800 
     39 N           4.5117  -19.4495  -41.9748 N.am      7 UNK        -0.5000 
     40 C           3.5018  -19.6904  -41.1278 C.2       6 UNK         0.5000 
     41 O           2.6159  -20.5153  -41.3434 O.2       6 UNK        -0.5000 
     42 CA          3.4496  -18.8553  -39.8367 C.3       6 UNK         0.1400 
     43 CB          4.2294  -19.5572  -38.7150 C.3       6 UNK        -0.1800 
     44 N           3.9420  -17.4831  -39.9796 N.am      6 UNK        -0.5000 
     45 C           3.4331  -16.5505  -40.7969 C.2       5 UNK         0.5000 
     46 O           2.5262  -16.7746  -41.6041 O.2       5 UNK        -0.5000 
     47 CA          4.0288  -15.1352  -40.6337 C.3       5 UNK         0.1400 
     48 CB          5.5655  -15.1241  -40.7920 C.3       5 UNK        -0.1800 
     49 N           3.3957  -14.1302  -41.4943 N.am      5 UNK        -0.5000 
     50 C           3.4818  -13.9992  -42.8244 C.2       4 UNK         0.5000 
     51 O           4.1963  -14.7038  -43.5389 O.2       4 UNK        -0.5000 
     52 CA          2.6200  -12.8778  -43.4492 C.3       4 UNK         0.1400 
     53 CB          2.6807  -12.8485  -44.9877 C.3       4 UNK        -0.1800 
     54 N           1.2131  -12.9448  -43.0394 N.am      4 UNK        -0.5000 
     55 C           0.7211  -12.4772  -41.8812 C.2       3 UNK         0.5000 
     56 O           1.4278  -11.9974  -40.9940 O.2       3 UNK        -0.5000 
     57 CA         -0.7962  -12.5755  -41.6593 C.3       3 UNK         0.1400 
     58 CB         -1.5032  -11.3131  -42.1860 C.3       3 UNK        -0.1800 
     59 N          -1.3405  -13.7712  -42.2945 N.am      3 UNK        -0.5000 
     60 C          -2.5139  -14.3501  -42.0332 C.2       2 UNK         0.5000 
     61 O          -3.3245  -13.9181  -41.2117 O.2       2 UNK        -0.5000 
     62 CA         -2.8168  -15.6291  -42.8428 C.3       2 UNK         0.1400 
     63 CB         -4.1280  -16.3132  -42.4185 C.3       2 UNK        -0.1800 
     64 N          -2.8538  -15.3967  -44.2892 N.am      2 UNK        -0.5000 
     65 C          -1.8040  -15.1667  -45.0886 C.2       1 UNK         0.5000 
     66 O          -0.6512  -15.0800  -44.6579 O.2       1 UNK        -0.5000 
     67 C          -1.5834  -21.6036  -47.0795 C.2       11 UNK         0.5000 
     68 O          -2.2755  -22.2602  -47.8580 O.2       11 UNK        -0.5000 
     69 N          -2.0713  -20.6235  -46.3060 N.am      12 UNK        -0.5000 
     70 CA         -3.4792  -20.2323  -46.2380 C.3       12 UNK         0.1400 
     71 CB         -3.6284  -18.9877  -45.3513 C.3       12 UNK        -0.1800 
     72 C          -4.3863  -21.3705  -45.7385 C.2       12 UNK         0.5000 
     73 O          -5.4433  -21.6001  -46.3225 O.2       12 UNK        -0.5000 
     74 N          -3.9423  -22.0943  -44.7035 N.am      13 UNK        -0.5000 
     75 CA         -4.6263  -23.2761  -44.1782 C.3       13 UNK         0.1400 
     76 CB         -3.9495  -23.7187  -42.8720 C.3       13 UNK        -0.1800 
     77 C          -4.6794  -24.4389  -45.1893 C.2       13 UNK         0.5000 
     78 O          -5.6948  -25.1322  -45.2622 O.2       13 UNK        -0.5000 
     79 N          -3.5914  -24.6282  -45.9468 N.am      14 UNK        -0.5000 
     80 CA         -3.4508  -25.6886  -46.9402 C.3       14 UNK         0.1400 
     81 CB         -1.9588  -25.9197  -47.2291 C.3       14 UNK        -0.1800 
     82 C          -4.2128  -25.4119  -48.2484 C.2       14 UNK         0.5000 
     83 O          -4.9034  -26.3076  -48.7371 O.2       14 UNK        -0.5000 
     84 N          -4.0363  -24.2108  -48.8167 N.am      15 UNK        -0.5000 
     85 CA         -4.3812  -23.9120  -50.2098 C.3       15 UNK         0.1400 
     86 CB         -3.0772  -23.8775  -51.0271 C.3       15 UNK        -0.1800 
     87 C          -5.1780  -22.6104  -50.4049 C.2       15 UNK         0.5000 
     88 O          -5.4520  -22.2528  -51.5540 O.2       15 UNK        -0.5000 
     89 N          -5.5116  -21.8946  -49.3192 N.am      16 UNK        -0.5000 
     90 CA         -6.3124  -20.6558  -49.2939 C.3       16 UNK         0.1400 
     91 CB         -7.7655  -20.9581  -49.7159 C.3       16 UNK        -0.1800 
     92 C          -5.7190  -19.4757  -50.0964 C.2       16 UNK         0.5000 
     93 O          -6.4299  -18.5048  -50.3570 O.2       16 UNK        -0.5000 
     94 N          -4.4405  -19.5910  -50.4914 N.am      17 UNK        -0.5000 
     95 CA         -3.7299  -18.7335  -51.4478 C.3       17 UNK         0.1400 
     96 CB         -3.4405  -17.3493  -50.8327 C.3       17 UNK        -0.1800 
     97 C          -4.4276  -18.6632  -52.8270 C.2       17 UNK         0.5000 
     98 O          -4.3883  -17.6230  -53.4859 O.2       17 UNK        -0.5000 
     99 N          -5.0699  -19.7711  -53.2267 N.am      18 UNK        -0.5000 
    100 CA        -5.8595  -19.8801  -54.4518 C.3       18 UNK         0.1400 
    101 CB        -7.3509  -19.7060  -54.1207 C.3       18 UNK        -0.1800 
    102 C         -5.5986  -21.2176  -55.1553 C.2       18 UNK         0.5000 
    103 O         -5.2721  -21.2244  -56.3432 O.2       18 UNK        -0.5000 
    104 N         -5.6917  -22.3290  -54.4087 N.am      19 UNK        -0.5000 
    105 CA        -5.4832  -23.6923  -54.9145 C.3       19 UNK         0.1400 
    106 CB        -6.0096  -24.7000  -53.8820 C.3       19 UNK        -0.1800 
    107 C         -4.0145  -23.9949  -55.2742 C.2       19 UNK         0.5000 
    108 O         -3.7452  -24.9688  -55.9775 O.2       19 UNK        -0.5000 
    109 N         -3.0989  -23.1360  -54.8074 N.am      20 UNK        -0.5000 
    110 CA        -1.6781  -23.1275  -55.1463 C.3       20 UNK         0.1400 
    111 CB        -0.9605  -22.1835  -54.1702 C.3       20 UNK        -0.1800 
    112 C         -1.3949  -22.7045  -56.6036 C.2       20 UNK         0.5000 
    113 O         -0.2948  -22.9680  -57.0899 O.2       20 UNK        -0.5000 
    114 N         -2.3757  -22.0620  -57.2630 N.am      21 UNK        -0.5000 
    115 CA        -2.3329  -21.5447  -58.6354 C.3       21 UNK         0.1400 
    116 CB        -2.2530  -22.7004  -59.6551 C.3       21 UNK        -0.1800 
    117 C         -1.2233  -20.4888  -58.8166 C.2       21 UNK         0.5000 
    118 O         -0.3353  -20.6500  -59.6565 O.2       21 UNK        -0.5000 
    119 N         -1.2887  -19.4469  -57.9778 N.am      22 UNK        -0.5000 
    120 CA        -0.3448  -18.3203  -57.9027 C.3       22 UNK         0.1400 
    121 C         -0.1294  -17.5873  -59.2584 C.2       22 UNK         0.5000 
    122 N          1.1012  -17.2138  -59.5825 N.am      22 UNK        -0.7600 
    123 O         -1.0758  -17.3116  -59.9931 O.2       22 UNK        -0.5000 
    124 C124       -0.7783  -17.2929  -56.8256 C.3       23 UNK        -0.0398 
    125 S125       -1.0657  -18.0200  -55.1753 S.3       23 UNK        -0.2404 
    126 C126        0.5419  -17.7470  -54.3650 C.3       23 UNK        -0.0205 
    127 H127       -6.1515  -17.0125  -46.8619 H         1 UNK         0.0600 
    128 H128       -4.8708  -17.5330  -47.9575 H         1 UNK         0.0600 
    129 H129       -5.9407  -16.2065  -48.4205 H         1 UNK         0.0600 
    130 H130       -2.8566  -16.6422  -47.6528 H         1 UNK         0.3000 
    131 H131       -2.3835  -13.9581  -46.7397 H         1 UNK         0.0600 
    132 H132        0.0165  -14.5599  -47.0698 H         1 UNK         0.0800 
    133 H133       -0.4366  -16.2357  -47.3233 H         1 UNK         0.0800 
    134 H134        1.2924  -15.6934  -49.0233 H         1 UNK         0.0800 
    135 H135        1.0753  -14.6993  -50.4346 H         1 UNK         0.0800 
    136 H136        0.7780  -15.7299  -52.5418 H         1 UNK         0.1150 
    137 H137        0.0030  -19.9277  -52.8373 H         1 UNK         0.1150 
    138 H138       -0.0351  -18.0093  -49.0031 H         1 UNK         0.1150 
    139 H139       -1.2596  -20.2197  -49.4658 H         1 UNK         0.0800 
    140 H140       -0.9945  -21.0455  -50.9693 H         1 UNK         0.0800 
    141 H141        0.4631  -19.8981  -47.6400 H         1 UNK         0.0800 
    142 H142        1.8189  -20.9534  -47.3881 H         1 UNK         0.0800 
    143 H143        0.0767  -22.9228  -47.3463 H         1 UNK         0.0600 
    144 H144        1.0114  -21.3115  -45.2190 H         1 UNK         0.3000 
    145 H145       -0.4733  -23.1939  -42.5538 H         1 UNK         0.0600 
    146 H146        1.8962  -23.2337  -41.8427 H         1 UNK         0.0600 
    147 H147        2.4273  -22.8186  -43.4700 H         1 UNK         0.0600 
    148 H148        1.6444  -24.3637  -43.1645 H         1 UNK         0.0600 
    149 H149        1.1652  -20.8699  -42.5261 H         1 UNK         0.3000 
    150 H150       -1.4872  -18.4779  -42.9398 H         1 UNK         0.0600 
    151 H151       -1.4403  -18.9405  -40.5173 H         1 UNK         0.0600 
    152 H152       -0.3824  -17.5819  -40.8742 H         1 UNK         0.0600 
    153 H153        0.3009  -19.1755  -40.5547 H         1 UNK         0.0600 
    154 H154        1.3396  -18.1476  -42.6538 H         1 UNK         0.3000 
    155 H155        2.1564  -18.4686  -46.1197 H         1 UNK         0.0600 
    156 H156        1.4800  -16.1416  -46.0373 H         1 UNK         0.0600 
    157 H157        3.1754  -16.2129  -45.6050 H         1 UNK         0.0600 
    158 H158        1.9493  -15.9929  -44.3512 H         1 UNK         0.0600 
    159 H159        3.5773  -17.8341  -43.6646 H         1 UNK         0.3000 
    160 H160        4.6523  -21.1998  -43.0918 H         1 UNK         0.0600 
    161 H161        6.1529  -18.6908  -44.0207 H         1 UNK         0.0600 
    162 H162        6.2087  -20.2625  -44.8102 H         1 UNK         0.0600 
    163 H163        6.8586  -20.0769  -43.1891 H         1 UNK         0.0600 
    164 H164        5.1956  -18.7503  -41.7256 H         1 UNK         0.3000 
    165 H165        2.4039  -18.7937  -39.5308 H         1 UNK         0.0600 
    166 H166        4.1137  -19.0337  -37.7657 H         1 UNK         0.0600 
    167 H167        3.8695  -20.5764  -38.5673 H         1 UNK         0.0600 
    168 H168        5.2950  -19.6148  -38.9403 H         1 UNK         0.0600 
    169 H169        4.6829  -17.2150  -39.3483 H         1 UNK         0.3000 
    170 H170        3.8000  -14.8239  -39.6135 H         1 UNK         0.0600 
    171 H171        5.8828  -15.5691  -41.7355 H         1 UNK         0.0600 
    172 H172        5.9584  -14.1081  -40.7529 H         1 UNK         0.0600 
    173 H173        6.0514  -15.6830  -39.9920 H         1 UNK         0.0600 
    174 H174        2.7622  -13.4921  -41.0240 H         1 UNK         0.3000 
    175 H175        3.0420  -11.9345  -43.0960 H         1 UNK         0.0600 
    176 H176        2.2219  -13.7323  -45.4289 H         1 UNK         0.0600 
    177 H177        2.1615  -11.9751  -45.3825 H         1 UNK         0.0600 
    178 H178        3.7107  -12.7971  -45.3427 H         1 UNK         0.0600 
    179 H179        0.5853  -13.3563  -43.7156 H         1 UNK         0.3000 
    180 H180       -0.9632  -12.6500  -40.5827 H         1 UNK         0.0600 
    181 H181       -1.4082  -11.2235  -43.2688 H         1 UNK         0.0600 
    182 H182       -1.0774  -10.4125  -41.7419 H         1 UNK         0.0600 
    183 H183       -2.5657  -11.3199  -41.9431 H         1 UNK         0.0600 
    184 H184       -0.7629  -14.2215  -42.9985 H         1 UNK         0.3000 
    185 H185       -2.0004  -16.3195  -42.6320 H         1 UNK         0.0600 
    186 H186       -4.9942  -15.6827  -42.6227 H         1 UNK         0.0600 
    187 H187       -4.2694  -17.2568  -42.9450 H         1 UNK         0.0600 
    188 H188       -4.1261  -16.5375  -41.3511 H         1 UNK         0.0600 
    189 H189       -3.7717  -15.3573  -44.7174 H         1 UNK         0.3000 
    190 H190       -1.4227  -20.0802  -45.7415 H         1 UNK         0.3000 
    191 H191       -3.7941  -19.9692  -47.2498 H         1 UNK         0.0600 
    192 H192       -2.9549  -18.1930  -45.6673 H         1 UNK         0.0600 
    193 H193       -3.4104  -19.2058  -44.3070 H         1 UNK         0.0600 
    194 H194       -4.6458  -18.5983  -45.3937 H         1 UNK         0.0600 
    195 H195       -3.0897  -21.8059  -44.2310 H         1 UNK         0.3000 
    196 H196       -5.6548  -22.9913  -43.9468 H         1 UNK         0.0600 
    197 H197       -3.9666  -22.9207  -42.1294 H         1 UNK         0.0600 
    198 H198       -2.9092  -24.0020  -43.0332 H         1 UNK         0.0600 
    199 H199       -4.4613  -24.5788  -42.4387 H         1 UNK         0.0600 
    200 H200       -2.7748  -24.0496  -45.7802 H         1 UNK         0.3000 
    201 H201       -3.8500  -26.6115  -46.5138 H         1 UNK         0.0600 
    202 H202       -1.4254  -26.2184  -46.3266 H         1 UNK         0.0600 
    203 H203       -1.4785  -25.0210  -47.6178 H         1 UNK         0.0600 
    204 H204       -1.8200  -26.7118  -47.9659 H         1 UNK         0.0600 
    205 H205       -3.4326  -23.5321  -48.3531 H         1 UNK         0.3000 
    206 H206       -5.0148  -24.7002  -50.6194 H         1 UNK         0.0600 
    207 H207       -2.5533  -24.8317  -50.9711 H         1 UNK         0.0600 
    208 H208       -2.3988  -23.1043  -50.6655 H         1 UNK         0.0600 
    209 H209       -3.2706  -23.6812  -52.0808 H         1 UNK         0.0600 
    210 H210       -5.2511  -22.2509  -48.4073 H         1 UNK         0.3000 
    211 H211       -6.3424  -20.3117  -48.2616 H         1 UNK         0.0600 
    212 H212       -7.8342  -21.2294  -50.7698 H         1 UNK         0.0600 
    213 H213       -8.4097  -20.0921  -49.5601 H         1 UNK         0.0600 
    214 H214       -8.1824  -21.7774  -49.1302 H         1 UNK         0.0600 
    215 H215       -3.9610  -20.4366  -50.2197 H         1 UNK         0.3000 
    216 H216       -2.7720  -19.2159  -51.6357 H         1 UNK         0.0600 
    217 H217       -2.7913  -16.7616  -51.4832 H         1 UNK         0.0600 
    218 H218       -2.9301  -17.4442  -49.8749 H         1 UNK         0.0600 
    219 H219       -4.3534  -16.7753  -50.6735 H         1 UNK         0.0600 
    220 H220       -5.0757  -20.5781  -52.6117 H         1 UNK         0.3000 
    221 H221       -5.5722  -19.0947  -55.1542 H         1 UNK         0.0600 
    222 H222       -7.6938  -20.4474  -53.3978 H         1 UNK         0.0600 
    223 H223       -7.5452  -18.7191  -53.7001 H         1 UNK         0.0600 
    224 H224       -7.9661  -19.8062  -55.0157 H         1 UNK         0.0600 
    225 H225       -5.9025  -22.2534  -53.4177 H         1 UNK         0.3000 
    226 H226       -6.0705  -23.8056  -55.8281 H         1 UNK         0.0600 
    227 H227       -7.0517  -24.5027  -53.6304 H         1 UNK         0.0600 
    228 H228       -5.9553  -25.7185  -54.2684 H         1 UNK         0.0600 
    229 H229       -5.4295  -24.6701  -52.9612 H         1 UNK         0.0600 
    230 H230       -3.4288  -22.3752  -54.2336 H         1 UNK         0.3000 
    231 H231       -1.2843  -24.1367  -55.0100 H         1 UNK         0.0600 
    232 H232        0.1108  -22.1478  -54.3724 H         1 UNK         0.0600 
    233 H233       -1.0842  -22.5110  -53.1378 H         1 UNK         0.0600 
    234 H234       -1.3451  -21.1662  -54.2518 H         1 UNK         0.0600 
    235 H235       -3.2459  -21.8949  -56.7716 H         1 UNK         0.3000 
    236 H236       -3.2808  -21.0301  -58.8007 H         1 UNK         0.0600 
    237 H237       -1.3168  -23.2534  -59.5749 H         1 UNK         0.0600 
    238 H238       -3.0715  -23.4062  -59.5135 H         1 UNK         0.0600 
    239 H239       -2.3222  -22.3229  -60.6759 H         1 UNK         0.0600 
    240 H240       -2.0448  -19.4176  -57.3102 H         1 UNK         0.3000 
    241 H241        0.6126  -18.7452  -57.5954 H         1 UNK         0.0600 
    242 H242        1.2509  -16.7235  -60.4511 H         1 UNK         0.3800 
    243 H243        1.8922  -17.4224  -58.9925 H         1 UNK         0.3800 
    244 H244       -1.7073  -16.8058  -57.1279 H         1 UNK         0.0800 
    245 H245       -0.0409  -16.4929  -56.7414 H         1 UNK         0.0800 
    246 H246        1.2547  -18.4964  -54.7118 H         1 UNK         0.0800 
    247 H247        0.9443  -16.7756  -54.6555 H         1 UNK         0.0800 
@<TRIPOS>BOND
     1    1    2 1    
     2    1  127 1    
     3    1  128 1    
     4    1  129 1    
     5    2    3 2    
     6    2    4 am   BACKBONE|DICT|INTERRES
     7    4    5 1    
     8    4  130 1    
     9    5    6 1    
    10    5   65 1    
    11    5  131 1    
    12    6    7 1    
    13    6  132 1    
    14    6  133 1    
    15    7    8 1    
    16    8    9 1    
    17    8  134 1    
    18    8  135 1    
    19    9   10 ar   
    20    9   14 ar   
    21   10   11 ar   
    22   10  136 1    
    23   11   12 ar   
    24   11  126 1    
    25   12   13 ar   
    26   12  137 1    
    27   13   14 ar   
    28   13   15 1    
    29   14  138 1    
    30   15   16 1    
    31   15  139 1    
    32   15  140 1    
    33   16   17 1    
    34   17   18 1    
    35   17  141 1    
    36   17  142 1    
    37   18   19 1    
    38   18   67 1    
    39   18  143 1    
    40   19   20 am   BACKBONE|DICT|INTERRES
    41   19  144 1    
    42   20   21 2    
    43   20   22 1    
    44   22   23 1    
    45   22   24 1    
    46   22  145 1    
    47   23  146 1    
    48   23  147 1    
    49   23  148 1    
    50   24   25 am   BACKBONE|DICT|INTERRES
    51   24  149 1    
    52   25   26 2    
    53   25   27 1    
    54   27   28 1    
    55   27   29 1    
    56   27  150 1    
    57   28  151 1    
    58   28  152 1    
    59   28  153 1    
    60   29   30 am   BACKBONE|DICT|INTERRES
    61   29  154 1    
    62   30   31 2    
    63   30   32 1    
    64   32   33 1    
    65   32   34 1    
    66   32  155 1    
    67   33  156 1    
    68   33  157 1    
    69   33  158 1    
    70   34   35 am   BACKBONE|DICT|INTERRES
    71   34  159 1    
    72   35   36 2    
    73   35   37 1    
    74   37   38 1    
    75   37   39 1    
    76   37  160 1    
    77   38  161 1    
    78   38  162 1    
    79   38  163 1    
    80   39   40 am   BACKBONE|DICT|INTERRES
    81   39  164 1    
    82   40   41 2    
    83   40   42 1    
    84   42   43 1    
    85   42   44 1    
    86   42  165 1    
    87   43  166 1    
    88   43  167 1    
    89   43  168 1    
    90   44   45 am   BACKBONE|DICT|INTERRES
    91   44  169 1    
    92   45   46 2    
    93   45   47 1    
    94   47   48 1    
    95   47   49 1    
    96   47  170 1    
    97   48  171 1    
    98   48  172 1    
    99   48  173 1    
   100   49   50 am   BACKBONE|DICT|INTERRES
   101   49  174 1    
   102   50   51 2    
   103   50   52 1    
   104   52   53 1    
   105   52   54 1    
   106   52  175 1    
   107   53  176 1    
   108   53  177 1    
   109   53  178 1    
   110   54   55 am   BACKBONE|DICT|INTERRES
   111   54  179 1    
   112   55   56 2    
   113   55   57 1    
   114   57   58 1    
   115   57   59 1    
   116   57  180 1    
   117   58  181 1    
   118   58  182 1    
   119   58  183 1    
   120   59   60 am   BACKBONE|DICT|INTERRES
   121   59  184 1    
   122   60   61 2    
   123   60   62 1    
   124   62   63 1    
   125   62   64 1    
   126   62  185 1    
   127   63  186 1    
   128   63  187 1    
   129   63  188 1    
   130   64   65 am   BACKBONE|DICT|INTERRES
   131   64  189 1    
   132   65   66 2    
   133   67   68 2    
   134   67   69 am   BACKBONE|DICT|INTERRES
   135   69   70 1    
   136   69  190 1    
   137   70   71 1    
   138   70   72 1    
   139   70  191 1    
   140   71  192 1    
   141   71  193 1    
   142   71  194 1    
   143   72   73 2    
   144   72   74 am   BACKBONE|DICT|INTERRES
   145   74   75 1    
   146   74  195 1    
   147   75   76 1    
   148   75   77 1    
   149   75  196 1    
   150   76  197 1    
   151   76  198 1    
   152   76  199 1    
   153   77   78 2    
   154   77   79 am   BACKBONE|DICT|INTERRES
   155   79   80 1    
   156   79  200 1    
   157   80   81 1    
   158   80   82 1    
   159   80  201 1    
   160   81  202 1    
   161   81  203 1    
   162   81  204 1    
   163   82   83 2    
   164   82   84 am   BACKBONE|DICT|INTERRES
   165   84   85 1    
   166   84  205 1    
   167   85   86 1    
   168   85   87 1    
   169   85  206 1    
   170   86  207 1    
   171   86  208 1    
   172   86  209 1    
   173   87   88 2    
   174   87   89 am   BACKBONE|DICT|INTERRES
   175   89   90 1    
   176   89  210 1    
   177   90   91 1    
   178   90   92 1    
   179   90  211 1    
   180   91  212 1    
   181   91  213 1    
   182   91  214 1    
   183   92   93 2    
   184   92   94 am   BACKBONE|DICT|INTERRES
   185   94   95 1    
   186   94  215 1    
   187   95   96 1    
   188   95   97 1    
   189   95  216 1    
   190   96  217 1    
   191   96  218 1    
   192   96  219 1    
   193   97   98 2    
   194   97   99 am   BACKBONE|DICT|INTERRES
   195   99  100 1    
   196   99  220 1    
   197  100  101 1    
   198  100  102 1    
   199  100  221 1    
   200  101  222 1    
   201  101  223 1    
   202  101  224 1    
   203  102  103 2    
   204  102  104 am   BACKBONE|DICT|INTERRES
   205  104  105 1    
   206  104  225 1    
   207  105  106 1    
   208  105  107 1    
   209  105  226 1    
   210  106  227 1    
   211  106  228 1    
   212  106  229 1    
   213  107  108 2    
   214  107  109 am   BACKBONE|DICT|INTERRES
   215  109  110 1    
   216  109  230 1    
   217  110  111 1    
   218  110  112 1    
   219  110  231 1    
   220  111  232 1    
   221  111  233 1    
   222  111  234 1    
   223  112  113 2    
   224  112  114 am   BACKBONE|DICT|INTERRES
   225  114  115 1    
   226  114  235 1    
   227  115  116 1    
   228  115  117 1    
   229  115  236 1    
   230  116  237 1    
   231  116  238 1    
   232  116  239 1    
   233  117  118 2    
   234  117  119 am   BACKBONE|DICT|INTERRES
   235  119  120 1    
   236  119  240 1    
   237  120  121 1    
   238  120  124 1    
   239  120  241 1    
   240  121  122 am   BACKBONE|DICT|INTERRES
   241  121  123 2    
   242  122  242 1    
   243  122  243 1    
   244  124  125 1    
   245  124  244 1    
   246  124  245 1    
   247  125  126 1    
   248  126  246 1    
   249  126  247 1    
@<TRIPOS>SUBSTRUCTURE
     1 UNK         1 GROUP             0       ****    0 ROOT    
