@<TRIPOS>MOLECULE
3R540
247   249    1
SMALL
USER_CHARGES


@<TRIPOS>ATOM
      1 CA         -1.7533  -11.5662  -47.0786 C.3       0 UNK        -0.1800 
      2 C          -2.0813  -13.0494  -46.9906 C.2       0 UNK         0.5000 
      3 O          -3.2217  -13.4054  -46.6910 O.2       0 UNK        -0.5000 
      4 N          -1.0820  -13.9059  -47.2400 N.am      1 UNK        -0.5000 
      5 CA         -1.1281  -15.3745  -47.2598 C.3       1 UNK         0.1400 
      6 C6         -2.0151  -15.9687  -48.3910 C.3       23 UNK        -0.0398 
      7 S7         -1.5560  -15.4104  -50.0713 S.3       23 UNK        -0.2404 
      8 C8         -1.4780  -16.9828  -51.0110 C.3       23 UNK        -0.0205 
      9 C9         -0.1210  -17.6915  -50.9961 C.ar      23 UNK        -0.0193 
     10 C10         0.2313  -18.5225  -52.0665 C.ar      23 UNK        -0.1150 
     11 C11         1.4597  -19.1932  -52.0763 C.ar      23 UNK        -0.0193 
     12 C12         2.3354  -19.0449  -50.9973 C.ar      23 UNK        -0.1150 
     13 C13         2.0000  -18.2218  -49.9217 C.ar      23 UNK        -0.0193 
     14 C14         0.7793  -17.5457  -49.9359 C.ar      23 UNK        -0.1150 
     15 C15         2.9671  -18.0330  -48.7610 C.3       23 UNK        -0.0205 
     16 S16         2.8282  -19.3503  -47.5102 S.3       23 UNK        -0.2404 
     17 C17         1.2030  -19.0020  -46.7548 C.3       23 UNK        -0.0398 
     18 CA          0.3485  -20.2807  -46.6379 C.3       11 UNK         0.1400 
     19 N           0.9120  -21.2415  -45.6778 N.am      11 UNK        -0.5000 
     20 C           0.4938  -22.5074  -45.5340 C.2       10 UNK         0.5000 
     21 O          -0.4199  -22.9855  -46.2073 O.2       10 UNK        -0.5000 
     22 CA          1.1233  -23.3482  -44.4070 C.3       10 UNK         0.1400 
     23 CB          1.2539  -24.8411  -44.7749 C.3       10 UNK        -0.1800 
     24 N           2.3739  -22.7968  -43.8759 N.am      10 UNK        -0.5000 
     25 C           3.5887  -22.7845  -44.4465 C.2       9 UNK         0.5000 
     26 O           3.8245  -23.2545  -45.5598 O.2       9 UNK        -0.5000 
     27 CA          4.7337  -22.1349  -43.6372 C.3       9 UNK         0.1400 
     28 CB          5.6824  -21.3258  -44.5400 C.3       9 UNK        -0.1800 
     29 N           4.2269  -21.2621  -42.5746 N.am      9 UNK        -0.5000 
     30 C           4.0051  -21.6278  -41.3035 C.2       8 UNK         0.5000 
     31 O           4.2751  -22.7453  -40.8633 O.2       8 UNK        -0.5000 
     32 CA          3.3406  -20.5936  -40.3683 C.3       8 UNK         0.1400 
     33 CB          4.3963  -19.9211  -39.4779 C.3       8 UNK        -0.1800 
     34 N           2.5859  -19.5522  -41.0687 N.am      8 UNK        -0.5000 
     35 C           1.4857  -19.7477  -41.8111 C.2       7 UNK         0.5000 
     36 O           0.9391  -20.8420  -41.9529 O.2       7 UNK        -0.5000 
     37 CA          0.9482  -18.5279  -42.5875 C.3       7 UNK         0.1400 
     38 CB         -0.1308  -17.8097  -41.7676 C.3       7 UNK        -0.1800 
     39 N           1.9820  -17.5617  -42.9769 N.am      7 UNK        -0.5000 
     40 C           3.0898  -17.8503  -43.6800 C.2       6 UNK         0.5000 
     41 O           3.3402  -18.9803  -44.0956 O.2       6 UNK        -0.5000 
     42 CA          4.1047  -16.7208  -43.9457 C.3       6 UNK         0.1400 
     43 CB          3.9868  -16.2326  -45.3970 C.3       6 UNK        -0.1800 
     44 N           3.9671  -15.5716  -43.0530 N.am      6 UNK        -0.5000 
     45 C           4.1085  -15.5810  -41.7196 C.2       5 UNK         0.5000 
     46 O           4.4521  -16.5722  -41.0743 O.2       5 UNK        -0.5000 
     47 CA          3.7541  -14.2711  -40.9841 C.3       5 UNK         0.1400 
     48 CB          5.0303  -13.4999  -40.6153 C.3       5 UNK        -0.1800 
     49 N           2.8627  -13.3863  -41.7479 N.am      5 UNK        -0.5000 
     50 C           1.6153  -13.6968  -42.1261 C.2       4 UNK         0.5000 
     51 O           1.0694  -14.7718  -41.8654 O.2       4 UNK        -0.5000 
     52 CA          0.8859  -12.6638  -42.9927 C.3       4 UNK         0.1400 
     53 CB          1.3300  -12.7741  -44.4633 C.3       4 UNK        -0.1800 
     54 N          -0.5454  -12.9131  -42.9012 N.am      4 UNK        -0.5000 
     55 C          -1.5126  -12.0123  -43.0926 C.2       3 UNK         0.5000 
     56 O          -1.2931  -10.8327  -43.3729 O.2       3 UNK        -0.5000 
     57 CA         -2.9602  -12.5298  -42.9769 C.3       3 UNK         0.1400 
     58 CB         -3.9971  -11.5265  -43.5137 C.3       3 UNK        -0.1800 
     59 N          -3.1204  -13.7940  -43.6951 N.am      3 UNK        -0.5000 
     60 C          -2.9866  -15.0156  -43.1616 C.2       2 UNK         0.5000 
     61 O          -2.7036  -15.2165  -41.9815 O.2       2 UNK        -0.5000 
     62 CA         -3.1940  -16.2087  -44.1103 C.3       2 UNK         0.1400 
     63 CB         -4.6850  -16.5808  -44.1441 C.3       2 UNK        -0.1800 
     64 N          -2.7328  -15.9005  -45.4648 N.am      2 UNK        -0.5000 
     65 C          -1.4574  -15.9670  -45.8704 C.2       1 UNK         0.5000 
     66 O          -0.5489  -16.4427  -45.1898 O.2       1 UNK        -0.5000 
     67 C          -1.1290  -19.9290  -46.3532 C.2       11 UNK         0.5000 
     68 O          -1.8102  -19.4422  -47.2537 O.2       11 UNK        -0.5000 
     69 N          -1.6281  -20.2278  -45.1449 N.am      12 UNK        -0.5000 
     70 CA         -3.0485  -20.1474  -44.8060 C.3       12 UNK         0.1400 
     71 CB         -3.2214  -20.3035  -43.2894 C.3       12 UNK        -0.1800 
     72 C          -3.9120  -21.1732  -45.5694 C.2       12 UNK         0.5000 
     73 O          -5.0639  -20.8741  -45.8845 O.2       12 UNK        -0.5000 
     74 N          -3.3392  -22.3413  -45.9003 N.am      13 UNK        -0.5000 
     75 CA         -3.9868  -23.3459  -46.7460 C.3       13 UNK         0.1400 
     76 CB         -3.2743  -24.6988  -46.6009 C.3       13 UNK        -0.1800 
     77 C          -4.0243  -22.8969  -48.2163 C.2       13 UNK         0.5000 
     78 O          -5.0316  -23.1110  -48.8897 O.2       13 UNK        -0.5000 
     79 N          -2.9528  -22.2290  -48.6712 N.am      14 UNK        -0.5000 
     80 CA         -2.8833  -21.5939  -49.9879 C.3       14 UNK         0.1400 
     81 CB         -1.4468  -21.1418  -50.2874 C.3       14 UNK        -0.1800 
     82 C          -3.8757  -20.4240  -50.1157 C.2       14 UNK         0.5000 
     83 O          -4.4938  -20.2755  -51.1672 O.2       14 UNK        -0.5000 
     84 N          -4.0593  -19.6504  -49.0355 N.am      15 UNK        -0.5000 
     85 CA         -5.0733  -18.5988  -48.9251 C.3       15 UNK         0.1400 
     86 CB         -4.9408  -17.8809  -47.5729 C.3       15 UNK        -0.1800 
     87 C          -6.5000  -19.1529  -49.0871 C.2       15 UNK         0.5000 
     88 O          -7.2708  -18.6215  -49.8860 O.2       15 UNK        -0.5000 
     89 N          -6.8037  -20.2360  -48.3560 N.am      16 UNK        -0.5000 
     90 CA         -8.0859  -20.9429  -48.3975 C.3       16 UNK         0.1400 
     91 CB         -8.1147  -22.0059  -47.2891 C.3       16 UNK        -0.1800 
     92 C          -8.3873  -21.5749  -49.7703 C.2       16 UNK         0.5000 
     93 O          -9.5401  -21.5682  -50.2030 O.2       16 UNK        -0.5000 
     94 N          -7.3436  -22.0795  -50.4411 N.am      17 UNK        -0.5000 
     95 CA         -7.4054  -22.6330  -51.7947 C.3       17 UNK         0.1400 
     96 CB         -6.1533  -23.4928  -52.0324 C.3       17 UNK        -0.1800 
     97 C          -7.5280  -21.5647  -52.9010 C.2       17 UNK         0.5000 
     98 O          -7.8289  -21.9263  -54.0383 O.2       17 UNK        -0.5000 
     99 N          -7.2699  -20.2901  -52.5658 N.am      18 UNK        -0.5000 
    100 CA        -7.1224  -19.1453  -53.4731 C.3       18 UNK         0.1400 
    101 CB        -8.4488  -18.8178  -54.1899 C.3       18 UNK        -0.1800 
    102 C         -5.9330  -19.3486  -54.4355 C.2       18 UNK         0.5000 
    103 O         -6.0718  -19.2112  -55.6530 O.2       18 UNK        -0.5000 
    104 N         -4.7902  -19.7236  -53.8456 N.am      19 UNK        -0.5000 
    105 CA        -3.5284  -20.1632  -54.4400 C.3       19 UNK         0.1400 
    106 CB        -2.9091  -19.1007  -55.3671 C.3       19 UNK        -0.1800 
    107 C         -3.6506  -21.5393  -55.1140 C.2       19 UNK         0.5000 
    108 O         -2.9933  -22.4821  -54.6722 O.2       19 UNK        -0.5000 
    109 N         -4.5023  -21.6372  -56.1438 N.am      20 UNK        -0.5000 
    110 CA        -4.7786  -22.8223  -56.9602 C.3       20 UNK         0.1400 
    111 CB        -5.5924  -23.8570  -56.1513 C.3       20 UNK        -0.1800 
    112 C         -3.4899  -23.3965  -57.5858 C.2       20 UNK         0.5000 
    113 O         -2.9726  -22.8153  -58.5407 O.2       20 UNK        -0.5000 
    114 N         -2.9905  -24.5089  -57.0321 N.am      21 UNK        -0.5000 
    115 CA        -1.7428  -25.1598  -57.4301 C.3       21 UNK         0.1400 
    116 CB        -1.7554  -26.6060  -56.9100 C.3       21 UNK        -0.1800 
    117 C         -0.4789  -24.4226  -56.9412 C.2       21 UNK         0.5000 
    118 O          0.5966  -24.6594  -57.4936 O.2       21 UNK        -0.5000 
    119 N         -0.6104  -23.5663  -55.9177 N.am      22 UNK        -0.5000 
    120 CA         0.4760  -22.7361  -55.3805 C.3       22 UNK         0.1400 
    121 C          0.9193  -21.6376  -56.3873 C.2       22 UNK         0.5000 
    122 N          2.2157  -21.4737  -56.6133 N.am      22 UNK        -0.7600 
    123 O          0.0971  -20.9066  -56.9335 O.2       22 UNK        -0.5000 
    124 C124        0.0930  -22.1260  -54.0047 C.3       23 UNK        -0.0398 
    125 S125        1.5528  -21.8197  -52.9558 S.3       23 UNK        -0.2404 
    126 C126        1.8686  -20.0532  -53.2606 C.3       23 UNK        -0.0205 
    127 H127       -2.4017  -11.0828  -47.8091 H         1 UNK         0.0600 
    128 H128       -1.9101  -11.0868  -46.1131 H         1 UNK         0.0600 
    129 H129       -0.7186  -11.3959  -47.3770 H         1 UNK         0.0600 
    130 H130       -0.1762  -13.5195  -47.4645 H         1 UNK         0.3000 
    131 H131       -0.0997  -15.6727  -47.4589 H         1 UNK         0.0600 
    132 H132       -1.9621  -17.0574  -48.3648 H         1 UNK         0.0800 
    133 H133       -3.0621  -15.7042  -48.2413 H         1 UNK         0.0800 
    134 H134       -1.7440  -16.7532  -52.0440 H         1 UNK         0.0800 
    135 H135       -2.2439  -17.6697  -50.6488 H         1 UNK         0.0800 
    136 H136       -0.4487  -18.6433  -52.8982 H         1 UNK         0.1150 
    137 H137        3.2837  -19.5641  -50.9992 H         1 UNK         0.1150 
    138 H138        0.5399  -16.8979  -49.1130 H         1 UNK         0.1150 
    139 H139        3.9898  -18.0202  -49.1405 H         1 UNK         0.0800 
    140 H140        2.8109  -17.0632  -48.2862 H         1 UNK         0.0800 
    141 H141        0.6849  -18.2509  -47.3461 H         1 UNK         0.0800 
    142 H142        1.3464  -18.5431  -45.7792 H         1 UNK         0.0800 
    143 H143        0.3503  -20.7679  -47.6156 H         1 UNK         0.0600 
    144 H144        1.6854  -20.9168  -45.1142 H         1 UNK         0.3000 
    145 H145        0.4154  -23.2891  -43.5792 H         1 UNK         0.0600 
    146 H146        1.7024  -25.4114  -43.9615 H         1 UNK         0.0600 
    147 H147        0.2756  -25.2794  -44.9755 H         1 UNK         0.0600 
    148 H148        1.8616  -24.9900  -45.6675 H         1 UNK         0.0600 
    149 H149        2.2817  -22.3434  -42.9754 H         1 UNK         0.3000 
    150 H150        5.3126  -22.9484  -43.1957 H         1 UNK         0.0600 
    151 H151        6.1896  -21.9750  -45.2546 H         1 UNK         0.0600 
    152 H152        6.4539  -20.8244  -43.9556 H         1 UNK         0.0600 
    153 H153        5.1486  -20.5677  -45.1135 H         1 UNK         0.0600 
    154 H154        3.9373  -20.3375  -42.8816 H         1 UNK         0.3000 
    155 H155        2.6437  -21.1356  -39.7259 H         1 UNK         0.0600 
    156 H156        5.1065  -19.3398  -40.0677 H         1 UNK         0.0600 
    157 H157        4.9646  -20.6622  -38.9144 H         1 UNK         0.0600 
    158 H158        3.9331  -19.2494  -38.7549 H         1 UNK         0.0600 
    159 H159        2.9772  -18.6199  -41.0364 H         1 UNK         0.3000 
    160 H160        0.4870  -18.8992  -43.5036 H         1 UNK         0.0600 
    161 H161       -0.5900  -17.0089  -42.3462 H         1 UNK         0.0600 
    162 H162        0.2821  -17.3685  -40.8597 H         1 UNK         0.0600 
    163 H163       -0.9245  -18.4948  -41.4691 H         1 UNK         0.0600 
    164 H164        1.8294  -16.6057  -42.6759 H         1 UNK         0.3000 
    165 H165        5.1030  -17.1380  -43.7999 H         1 UNK         0.0600 
    166 H166        4.7103  -15.4463  -45.6125 H         1 UNK         0.0600 
    167 H167        4.1819  -17.0472  -46.0945 H         1 UNK         0.0600 
    168 H168        2.9901  -15.8444  -45.6126 H         1 UNK         0.0600 
    169 H169        3.6843  -14.7048  -43.4840 H         1 UNK         0.3000 
    170 H170        3.2403  -14.5472  -40.0610 H         1 UNK         0.0600 
    171 H171        5.7045  -14.1201  -40.0229 H         1 UNK         0.0600 
    172 H172        5.5761  -13.1770  -41.5028 H         1 UNK         0.0600 
    173 H173        4.7997  -12.6154  -40.0212 H         1 UNK         0.0600 
    174 H174        3.2435  -12.4875  -42.0082 H         1 UNK         0.3000 
    175 H175        1.1113  -11.6669  -42.6082 H         1 UNK         0.0600 
    176 H176        0.8201  -12.0391  -45.0862 H         1 UNK         0.0600 
    177 H177        2.4010  -12.5971  -44.5675 H         1 UNK         0.0600 
    178 H178        1.1166  -13.7630  -44.8722 H         1 UNK         0.0600 
    179 H179       -0.7874  -13.8551  -42.6141 H         1 UNK         0.3000 
    180 H180       -3.1631  -12.6785  -41.9144 H         1 UNK         0.0600 
    181 H181       -3.8458  -11.3169  -44.5730 H         1 UNK         0.0600 
    182 H182       -3.9425  -10.5783  -42.9774 H         1 UNK         0.0600 
    183 H183       -5.0111  -11.9075  -43.3913 H         1 UNK         0.0600 
    184 H184       -3.3034  -13.7155  -44.6896 H         1 UNK         0.3000 
    185 H185       -2.6333  -17.0603  -43.7199 H         1 UNK         0.0600 
    186 H186       -5.2927  -15.7771  -44.5618 H         1 UNK         0.0600 
    187 H187       -4.8649  -17.4745  -44.7358 H         1 UNK         0.0600 
    188 H188       -5.0580  -16.7855  -43.1396 H         1 UNK         0.0600 
    189 H189       -3.3814  -15.3969  -46.0579 H         1 UNK         0.3000 
    190 H190       -1.0154  -20.6338  -44.4539 H         1 UNK         0.3000 
    191 H191       -3.3979  -19.1553  -45.0909 H         1 UNK         0.0600 
    192 H192       -2.8452  -21.2646  -42.9368 H         1 UNK         0.0600 
    193 H193       -4.2733  -20.2375  -43.0080 H         1 UNK         0.0600 
    194 H194       -2.6941  -19.5170  -42.7507 H         1 UNK         0.0600 
    195 H195       -2.3675  -22.5092  -45.6674 H         1 UNK         0.3000 
    196 H196       -5.0171  -23.4720  -46.4059 H         1 UNK         0.0600 
    197 H197       -3.8085  -25.4764  -47.1482 H         1 UNK         0.0600 
    198 H198       -3.2250  -25.0105  -45.5575 H         1 UNK         0.0600 
    199 H199       -2.2571  -24.6690  -46.9916 H         1 UNK         0.0600 
    200 H200       -2.1661  -22.0981  -48.0524 H         1 UNK         0.3000 
    201 H201       -3.1574  -22.3441  -50.7325 H         1 UNK         0.0600 
    202 H202       -0.7383  -21.9628  -50.1765 H         1 UNK         0.0600 
    203 H203       -1.1255  -20.3295  -49.6362 H         1 UNK         0.0600 
    204 H204       -1.3659  -20.7854  -51.3145 H         1 UNK         0.0600 
    205 H205       -3.4440  -19.7809  -48.2388 H         1 UNK         0.3000 
    206 H206       -4.8839  -17.8771  -49.7224 H         1 UNK         0.0600 
    207 H207       -3.9024  -17.7247  -47.2938 H         1 UNK         0.0600 
    208 H208       -5.4287  -16.9062  -47.6029 H         1 UNK         0.0600 
    209 H209       -5.4052  -18.4462  -46.7662 H         1 UNK         0.0600 
    210 H210       -6.1143  -20.5869  -47.7002 H         1 UNK         0.3000 
    211 H211       -8.8721  -20.2141  -48.1903 H         1 UNK         0.0600 
    212 H212       -7.3398  -22.7592  -47.4327 H         1 UNK         0.0600 
    213 H213       -9.0751  -22.5224  -47.2680 H         1 UNK         0.0600 
    214 H214       -7.9648  -21.5562  -46.3073 H         1 UNK         0.0600 
    215 H215       -6.4408  -22.1138  -49.9787 H         1 UNK         0.3000 
    216 H216       -8.2820  -23.2803  -51.8638 H         1 UNK         0.0600 
    217 H217       -6.1931  -23.9811  -53.0065 H         1 UNK         0.0600 
    218 H218       -6.0622  -24.2768  -51.2806 H         1 UNK         0.0600 
    219 H219       -5.2432  -22.8927  -52.0047 H         1 UNK         0.0600 
    220 H220       -7.0350  -20.1025  -51.5991 H         1 UNK         0.3000 
    221 H221       -6.8687  -18.2896  -52.8457 H         1 UNK         0.0600 
    222 H222       -8.7442  -19.6025  -54.8866 H         1 UNK         0.0600 
    223 H223       -9.2593  -18.6821  -53.4737 H         1 UNK         0.0600 
    224 H224       -8.3614  -17.8932  -54.7614 H         1 UNK         0.0600 
    225 H225       -4.8183  -19.8526  -52.8337 H         1 UNK         0.3000 
    226 H226       -2.8448  -20.2884  -53.5986 H         1 UNK         0.0600 
    227 H227       -3.5166  -18.9170  -56.2532 H         1 UNK         0.0600 
    228 H228       -1.9240  -19.4174  -55.7111 H         1 UNK         0.0600 
    229 H229       -2.7811  -18.1521  -54.8457 H         1 UNK         0.0600 
    230 H230       -5.0238  -20.8004  -56.3845 H         1 UNK         0.3000 
    231 H231       -5.4028  -22.4902  -57.7910 H         1 UNK         0.0600 
    232 H232       -6.5533  -23.4409  -55.8508 H         1 UNK         0.0600 
    233 H233       -5.0774  -24.1774  -55.2454 H         1 UNK         0.0600 
    234 H234       -5.8038  -24.7453  -56.7479 H         1 UNK         0.0600 
    235 H235       -3.4668  -24.8974  -56.2311 H         1 UNK         0.3000 
    236 H236       -1.7017  -25.1913  -58.5209 H         1 UNK         0.0600 
    237 H237       -0.8542  -27.1395  -57.2152 H         1 UNK         0.0600 
    238 H238       -1.8048  -26.6413  -55.8210 H         1 UNK         0.0600 
    239 H239       -2.6078  -27.1599  -57.3039 H         1 UNK         0.0600 
    240 H240       -1.5365  -23.3832  -55.5419 H         1 UNK         0.3000 
    241 H241        1.3185  -23.4133  -55.2235 H         1 UNK         0.0600 
    242 H242        2.5142  -20.7576  -57.2570 H         1 UNK         0.3800 
    243 H243        2.9065  -22.0588  -56.1693 H         1 UNK         0.3800 
    244 H244       -0.5043  -21.2191  -54.1104 H         1 UNK         0.0800 
    245 H245       -0.5338  -22.8258  -53.4500 H         1 UNK         0.0800 
    246 H246        2.9346  -19.9209  -53.4517 H         1 UNK         0.0800 
    247 H247        1.3632  -19.7167  -54.1665 H         1 UNK         0.0800 
@<TRIPOS>BOND
     1    1    2 1    
     2    1  127 1    
     3    1  128 1    
     4    1  129 1    
     5    2    3 2    
     6    2    4 am   BACKBONE|DICT|INTERRES
     7    4    5 1    
     8    4  130 1    
     9    5    6 1    
    10    5   65 1    
    11    5  131 1    
    12    6    7 1    
    13    6  132 1    
    14    6  133 1    
    15    7    8 1    
    16    8    9 1    
    17    8  134 1    
    18    8  135 1    
    19    9   10 ar   
    20    9   14 ar   
    21   10   11 ar   
    22   10  136 1    
    23   11   12 ar   
    24   11  126 1    
    25   12   13 ar   
    26   12  137 1    
    27   13   14 ar   
    28   13   15 1    
    29   14  138 1    
    30   15   16 1    
    31   15  139 1    
    32   15  140 1    
    33   16   17 1    
    34   17   18 1    
    35   17  141 1    
    36   17  142 1    
    37   18   19 1    
    38   18   67 1    
    39   18  143 1    
    40   19   20 am   BACKBONE|DICT|INTERRES
    41   19  144 1    
    42   20   21 2    
    43   20   22 1    
    44   22   23 1    
    45   22   24 1    
    46   22  145 1    
    47   23  146 1    
    48   23  147 1    
    49   23  148 1    
    50   24   25 am   BACKBONE|DICT|INTERRES
    51   24  149 1    
    52   25   26 2    
    53   25   27 1    
    54   27   28 1    
    55   27   29 1    
    56   27  150 1    
    57   28  151 1    
    58   28  152 1    
    59   28  153 1    
    60   29   30 am   BACKBONE|DICT|INTERRES
    61   29  154 1    
    62   30   31 2    
    63   30   32 1    
    64   32   33 1    
    65   32   34 1    
    66   32  155 1    
    67   33  156 1    
    68   33  157 1    
    69   33  158 1    
    70   34   35 am   BACKBONE|DICT|INTERRES
    71   34  159 1    
    72   35   36 2    
    73   35   37 1    
    74   37   38 1    
    75   37   39 1    
    76   37  160 1    
    77   38  161 1    
    78   38  162 1    
    79   38  163 1    
    80   39   40 am   BACKBONE|DICT|INTERRES
    81   39  164 1    
    82   40   41 2    
    83   40   42 1    
    84   42   43 1    
    85   42   44 1    
    86   42  165 1    
    87   43  166 1    
    88   43  167 1    
    89   43  168 1    
    90   44   45 am   BACKBONE|DICT|INTERRES
    91   44  169 1    
    92   45   46 2    
    93   45   47 1    
    94   47   48 1    
    95   47   49 1    
    96   47  170 1    
    97   48  171 1    
    98   48  172 1    
    99   48  173 1    
   100   49   50 am   BACKBONE|DICT|INTERRES
   101   49  174 1    
   102   50   51 2    
   103   50   52 1    
   104   52   53 1    
   105   52   54 1    
   106   52  175 1    
   107   53  176 1    
   108   53  177 1    
   109   53  178 1    
   110   54   55 am   BACKBONE|DICT|INTERRES
   111   54  179 1    
   112   55   56 2    
   113   55   57 1    
   114   57   58 1    
   115   57   59 1    
   116   57  180 1    
   117   58  181 1    
   118   58  182 1    
   119   58  183 1    
   120   59   60 am   BACKBONE|DICT|INTERRES
   121   59  184 1    
   122   60   61 2    
   123   60   62 1    
   124   62   63 1    
   125   62   64 1    
   126   62  185 1    
   127   63  186 1    
   128   63  187 1    
   129   63  188 1    
   130   64   65 am   BACKBONE|DICT|INTERRES
   131   64  189 1    
   132   65   66 2    
   133   67   68 2    
   134   67   69 am   BACKBONE|DICT|INTERRES
   135   69   70 1    
   136   69  190 1    
   137   70   71 1    
   138   70   72 1    
   139   70  191 1    
   140   71  192 1    
   141   71  193 1    
   142   71  194 1    
   143   72   73 2    
   144   72   74 am   BACKBONE|DICT|INTERRES
   145   74   75 1    
   146   74  195 1    
   147   75   76 1    
   148   75   77 1    
   149   75  196 1    
   150   76  197 1    
   151   76  198 1    
   152   76  199 1    
   153   77   78 2    
   154   77   79 am   BACKBONE|DICT|INTERRES
   155   79   80 1    
   156   79  200 1    
   157   80   81 1    
   158   80   82 1    
   159   80  201 1    
   160   81  202 1    
   161   81  203 1    
   162   81  204 1    
   163   82   83 2    
   164   82   84 am   BACKBONE|DICT|INTERRES
   165   84   85 1    
   166   84  205 1    
   167   85   86 1    
   168   85   87 1    
   169   85  206 1    
   170   86  207 1    
   171   86  208 1    
   172   86  209 1    
   173   87   88 2    
   174   87   89 am   BACKBONE|DICT|INTERRES
   175   89   90 1    
   176   89  210 1    
   177   90   91 1    
   178   90   92 1    
   179   90  211 1    
   180   91  212 1    
   181   91  213 1    
   182   91  214 1    
   183   92   93 2    
   184   92   94 am   BACKBONE|DICT|INTERRES
   185   94   95 1    
   186   94  215 1    
   187   95   96 1    
   188   95   97 1    
   189   95  216 1    
   190   96  217 1    
   191   96  218 1    
   192   96  219 1    
   193   97   98 2    
   194   97   99 am   BACKBONE|DICT|INTERRES
   195   99  100 1    
   196   99  220 1    
   197  100  101 1    
   198  100  102 1    
   199  100  221 1    
   200  101  222 1    
   201  101  223 1    
   202  101  224 1    
   203  102  103 2    
   204  102  104 am   BACKBONE|DICT|INTERRES
   205  104  105 1    
   206  104  225 1    
   207  105  106 1    
   208  105  107 1    
   209  105  226 1    
   210  106  227 1    
   211  106  228 1    
   212  106  229 1    
   213  107  108 2    
   214  107  109 am   BACKBONE|DICT|INTERRES
   215  109  110 1    
   216  109  230 1    
   217  110  111 1    
   218  110  112 1    
   219  110  231 1    
   220  111  232 1    
   221  111  233 1    
   222  111  234 1    
   223  112  113 2    
   224  112  114 am   BACKBONE|DICT|INTERRES
   225  114  115 1    
   226  114  235 1    
   227  115  116 1    
   228  115  117 1    
   229  115  236 1    
   230  116  237 1    
   231  116  238 1    
   232  116  239 1    
   233  117  118 2    
   234  117  119 am   BACKBONE|DICT|INTERRES
   235  119  120 1    
   236  119  240 1    
   237  120  121 1    
   238  120  124 1    
   239  120  241 1    
   240  121  122 am   BACKBONE|DICT|INTERRES
   241  121  123 2    
   242  122  242 1    
   243  122  243 1    
   244  124  125 1    
   245  124  244 1    
   246  124  245 1    
   247  125  126 1    
   248  126  246 1    
   249  126  247 1    
@<TRIPOS>SUBSTRUCTURE
     1 UNK         1 GROUP             0       ****    0 ROOT    
