@<TRIPOS>MOLECULE
3R540
247   249    1
SMALL
USER_CHARGES


@<TRIPOS>ATOM
      1 CA          2.9480   -7.3275  -45.2332 C.3       0 UNK        -0.1800 
      2 C           2.7385   -8.8174  -45.0097 C.2       0 UNK         0.5000 
      3 O           3.7066   -9.5475  -44.8015 O.2       0 UNK        -0.5000 
      4 N           1.4787   -9.2730  -45.0257 N.am      1 UNK        -0.5000 
      5 CA          1.0787  -10.6814  -44.8729 C.3       1 UNK         0.1400 
      6 C6         -0.4174  -10.8842  -45.2285 C.3       23 UNK        -0.0398 
      7 S7         -0.7231  -12.4616  -46.0914 S.3       23 UNK        -0.2404 
      8 C8         -2.0798  -11.9738  -47.1941 C.3       23 UNK        -0.0205 
      9 C9         -2.5964  -13.1474  -48.0096 C.ar      23 UNK        -0.0193 
     10 C10        -2.0206  -13.4488  -49.2467 C.ar      23 UNK        -0.1150 
     11 C11        -2.5337  -14.4799  -50.0393 C.ar      23 UNK        -0.0193 
     12 C12        -3.6481  -15.1935  -49.5866 C.ar      23 UNK        -0.1150 
     13 C13        -4.2094  -14.9334  -48.3330 C.ar      23 UNK        -0.0193 
     14 C14        -3.6758  -13.9066  -47.5481 C.ar      23 UNK        -0.1150 
     15 C15        -5.4153  -15.7275  -47.8425 C.3       23 UNK        -0.0205 
     16 S16        -4.9749  -17.4072  -47.2818 S.3       23 UNK        -0.2404 
     17 C17        -5.3249  -18.3831  -48.7844 C.3       23 UNK        -0.0398 
     18 CA         -4.7887  -19.8356  -48.7728 C.3       11 UNK         0.1400 
     19 N          -3.3556  -19.9061  -48.4817 N.am      11 UNK        -0.5000 
     20 C          -2.5380  -20.8335  -48.9903 C.2       10 UNK         0.5000 
     21 O          -2.9076  -21.6778  -49.8036 O.2       10 UNK        -0.5000 
     22 CA         -1.0703  -20.8412  -48.5249 C.3       10 UNK         0.1400 
     23 CB         -0.1871  -20.1677  -49.5873 C.3       10 UNK        -0.1800 
     24 N          -0.7975  -20.2471  -47.2089 N.am      10 UNK        -0.5000 
     25 C          -1.3732  -20.6046  -46.0509 C.2       9 UNK         0.5000 
     26 O          -2.3273  -21.3752  -45.9745 O.2       9 UNK        -0.5000 
     27 CA         -0.8047  -19.9986  -44.7566 C.3       9 UNK         0.1400 
     28 CB          0.5417  -20.6400  -44.3881 C.3       9 UNK        -0.1800 
     29 N          -0.6526  -18.5524  -44.8535 N.am      9 UNK        -0.5000 
     30 C          -1.6721  -17.6834  -44.8537 C.2       8 UNK         0.5000 
     31 O          -2.8424  -18.0046  -44.6502 O.2       8 UNK        -0.5000 
     32 CA         -1.3233  -16.2095  -45.1348 C.3       8 UNK         0.1400 
     33 CB         -0.9941  -15.4828  -43.8203 C.3       8 UNK        -0.1800 
     34 N          -0.2075  -16.0616  -46.0725 N.am      8 UNK        -0.5000 
     35 C          -0.2258  -16.4737  -47.3499 C.2       7 UNK         0.5000 
     36 O          -1.1961  -17.0053  -47.8874 O.2       7 UNK        -0.5000 
     37 CA          1.0958  -16.3423  -48.1269 C.3       7 UNK         0.1400 
     38 CB          1.3065  -14.9100  -48.6403 C.3       7 UNK        -0.1800 
     39 N           2.2406  -16.7422  -47.3070 N.am      7 UNK        -0.5000 
     40 C           2.5102  -18.0122  -46.9682 C.2       6 UNK         0.5000 
     41 O           1.8347  -18.9707  -47.3374 O.2       6 UNK        -0.5000 
     42 CA          3.7042  -18.2593  -46.0253 C.3       6 UNK         0.1400 
     43 CB          5.0023  -18.4205  -46.8298 C.3       6 UNK        -0.1800 
     44 N           3.8795  -17.1986  -45.0351 N.am      6 UNK        -0.5000 
     45 C           2.9763  -16.8676  -44.1024 C.2       5 UNK         0.5000 
     46 O           1.9376  -17.4986  -43.9119 O.2       5 UNK        -0.5000 
     47 CA          3.2520  -15.5967  -43.2768 C.3       5 UNK         0.1400 
     48 CB          3.7963  -15.9589  -41.8877 C.3       5 UNK        -0.1800 
     49 N           4.1678  -14.6442  -43.9119 N.am      5 UNK        -0.5000 
     50 C           3.9760  -14.0269  -45.0858 C.2       4 UNK         0.5000 
     51 O           3.0328  -14.2777  -45.8377 O.2       4 UNK        -0.5000 
     52 CA          5.0207  -12.9593  -45.4716 C.3       4 UNK         0.1400 
     53 CB          4.6821  -12.2490  -46.7945 C.3       4 UNK        -0.1800 
     54 N           5.1659  -11.9538  -44.4188 N.am      4 UNK        -0.5000 
     55 C           5.8889  -12.0889  -43.2990 C.2       3 UNK         0.5000 
     56 O           6.5614  -13.0875  -43.0392 O.2       3 UNK        -0.5000 
     57 CA          5.7870  -10.9475  -42.2763 C.3       3 UNK         0.1400 
     58 CB          6.5634   -9.7075  -42.7477 C.3       3 UNK        -0.1800 
     59 N           4.3860  -10.5964  -42.0499 N.am      3 UNK        -0.5000 
     60 C           3.5880  -11.1995  -41.1568 C.2       2 UNK         0.5000 
     61 O           3.9750  -12.0580  -40.3633 O.2       2 UNK        -0.5000 
     62 CA          2.1039  -10.7804  -41.1503 C.3       2 UNK         0.1400 
     63 CB          1.8793   -9.6063  -40.1855 C.3       2 UNK        -0.1800 
     64 N           1.6179  -10.4080  -42.4795 N.am      2 UNK        -0.5000 
     65 C           1.4175  -11.2744  -43.4835 C.2       1 UNK         0.5000 
     66 O           1.5131  -12.4928  -43.3473 O.2       1 UNK        -0.5000 
     67 C          -5.6504  -20.8064  -47.9290 C.2       11 UNK         0.5000 
     68 O          -6.8584  -20.8615  -48.1643 O.2       11 UNK        -0.5000 
     69 N          -5.0557  -21.5697  -46.9963 N.am      12 UNK        -0.5000 
     70 CA         -5.7796  -22.5172  -46.1420 C.3       12 UNK         0.1400 
     71 CB         -6.2010  -21.8188  -44.8382 C.3       12 UNK        -0.1800 
     72 C          -4.9885  -23.8026  -45.8449 C.2       12 UNK         0.5000 
     73 O          -5.5397  -24.8965  -45.9822 O.2       12 UNK        -0.5000 
     74 N          -3.7213  -23.6660  -45.4380 N.am      13 UNK        -0.5000 
     75 CA         -2.8451  -24.7634  -45.0252 C.3       13 UNK         0.1400 
     76 CB         -1.5770  -24.1779  -44.3852 C.3       13 UNK        -0.1800 
     77 C          -2.4692  -25.6840  -46.1971 C.2       13 UNK         0.5000 
     78 O          -2.3695  -25.2156  -47.3324 O.2       13 UNK        -0.5000 
     79 N          -2.2564  -26.9726  -45.8920 N.am      14 UNK        -0.5000 
     80 CA         -1.9002  -28.0481  -46.8283 C.3       14 UNK         0.1400 
     81 CB         -0.4666  -27.8467  -47.3636 C.3       14 UNK        -0.1800 
     82 C          -2.9433  -28.2210  -47.9528 C.2       14 UNK         0.5000 
     83 O          -2.5792  -28.3283  -49.1252 O.2       14 UNK        -0.5000 
     84 N          -4.2290  -28.1938  -47.5657 N.am      15 UNK        -0.5000 
     85 CA         -5.4106  -28.2010  -48.4378 C.3       15 UNK         0.1400 
     86 CB         -5.5577  -29.5617  -49.1515 C.3       15 UNK        -0.1800 
     87 C          -5.4033  -27.0052  -49.4119 C.2       15 UNK         0.5000 
     88 O          -5.5643  -27.1856  -50.6203 O.2       15 UNK        -0.5000 
     89 N          -5.1556  -25.8096  -48.8555 N.am      16 UNK        -0.5000 
     90 CA         -4.9421  -24.5390  -49.5533 C.3       16 UNK         0.1400 
     91 CB         -6.2689  -24.0300  -50.1519 C.3       16 UNK        -0.1800 
     92 C          -3.7993  -24.6402  -50.5827 C.2       16 UNK         0.5000 
     93 O          -4.0071  -24.3713  -51.7656 O.2       16 UNK        -0.5000 
     94 N          -2.6255  -25.0814  -50.1084 N.am      17 UNK        -0.5000 
     95 CA         -1.3926  -25.3181  -50.8644 C.3       17 UNK         0.1400 
     96 CB         -0.7491  -23.9723  -51.2578 C.3       17 UNK        -0.1800 
     97 C          -1.6072  -26.2636  -52.0650 C.2       17 UNK         0.5000 
     98 O          -1.2335  -25.9303  -53.1899 O.2       17 UNK        -0.5000 
     99 N          -2.2563  -27.4079  -51.8039 N.am      18 UNK        -0.5000 
    100 CA        -2.7091  -28.4067  -52.7787 C.3       18 UNK         0.1400 
    101 CB        -1.5067  -29.1568  -53.3883 C.3       18 UNK        -0.1800 
    102 C         -3.6555  -27.8037  -53.8411 C.2       18 UNK         0.5000 
    103 O         -3.4798  -28.0325  -55.0392 O.2       18 UNK        -0.5000 
    104 N         -4.6319  -27.0215  -53.3618 N.am      19 UNK        -0.5000 
    105 CA        -5.6568  -26.2864  -54.1079 C.3       19 UNK         0.1400 
    106 CB        -6.5809  -27.2552  -54.8750 C.3       19 UNK        -0.1800 
    107 C         -5.1262  -25.1396  -54.9987 C.2       19 UNK         0.5000 
    108 O         -5.8708  -24.6516  -55.8511 O.2       19 UNK        -0.5000 
    109 N         -3.8801  -24.6924  -54.7817 N.am      20 UNK        -0.5000 
    110 CA        -3.3172  -23.4981  -55.4206 C.3       20 UNK         0.1400 
    111 CB        -1.7859  -23.5255  -55.3181 C.3       20 UNK        -0.1800 
    112 C         -3.8734  -22.1962  -54.8117 C.2       20 UNK         0.5000 
    113 O         -3.9843  -21.1943  -55.5192 O.2       20 UNK        -0.5000 
    114 N         -4.2147  -22.2415  -53.5157 N.am      21 UNK        -0.5000 
    115 CA        -4.9111  -21.2286  -52.7201 C.3       21 UNK         0.1400 
    116 CB        -6.4057  -21.2100  -53.0971 C.3       21 UNK        -0.1800 
    117 C         -4.2677  -19.8278  -52.7442 C.2       21 UNK         0.5000 
    118 O         -4.9864  -18.8273  -52.7312 O.2       21 UNK        -0.5000 
    119 N         -2.9280  -19.7817  -52.7794 N.am      22 UNK        -0.5000 
    120 CA        -2.1191  -18.5561  -52.9182 C.3       22 UNK         0.1400 
    121 C         -2.1882  -17.9050  -54.3403 C.2       22 UNK         0.5000 
    122 N         -2.7301  -18.5664  -55.3572 N.am      22 UNK        -0.7600 
    123 O         -1.7168  -16.7911  -54.5480 O.2       22 UNK        -0.5000 
    124 C124       -2.3914  -17.5536  -51.7583 C.3       23 UNK        -0.0398 
    125 S125       -1.0233  -16.3990  -51.3965 S.3       23 UNK        -0.2404 
    126 C126       -1.8996  -14.7965  -51.3907 C.3       23 UNK        -0.0205 
    127 H127        2.0044   -6.8031  -45.3855 H         1 UNK         0.0600 
    128 H128        3.5734   -7.1663  -46.1111 H         1 UNK         0.0600 
    129 H129        3.4485   -6.8865  -44.3713 H         1 UNK         0.0600 
    130 H130        0.7264   -8.6177  -45.1847 H         1 UNK         0.3000 
    131 H131        1.6804  -11.2382  -45.5942 H         1 UNK         0.0600 
    132 H132       -1.0607  -10.8227  -44.3486 H         1 UNK         0.0800 
    133 H133       -0.7527  -10.0835  -45.8891 H         1 UNK         0.0800 
    134 H134       -2.8907  -11.5470  -46.6016 H         1 UNK         0.0800 
    135 H135       -1.7372  -11.1826  -47.8628 H         1 UNK         0.0800 
    136 H136       -1.1778  -12.8690  -49.5958 H         1 UNK         0.1150 
    137 H137       -4.0773  -15.9593  -50.2084 H         1 UNK         0.1150 
    138 H138       -4.1145  -13.6814  -46.5862 H         1 UNK         0.1150 
    139 H139       -5.8902  -15.2060  -47.0103 H         1 UNK         0.0800 
    140 H140       -6.1688  -15.7784  -48.6298 H         1 UNK         0.0800 
    141 H141       -4.8832  -17.8722  -49.6371 H         1 UNK         0.0800 
    142 H142       -6.4005  -18.3663  -48.9686 H         1 UNK         0.0800 
    143 H143       -4.9303  -20.1877  -49.7950 H         1 UNK         0.0600 
    144 H144       -2.9892  -19.2271  -47.8268 H         1 UNK         0.3000 
    145 H145       -0.7760  -21.8901  -48.4578 H         1 UNK         0.0600 
    146 H146        0.8703  -20.3401  -49.3892 H         1 UNK         0.0600 
    147 H147       -0.3933  -20.5631  -50.5829 H         1 UNK         0.0600 
    148 H148       -0.3540  -19.0906  -49.6209 H         1 UNK         0.0600 
    149 H149       -0.0077  -19.6091  -47.1763 H         1 UNK         0.3000 
    150 H150       -1.5077  -20.2153  -43.9494 H         1 UNK         0.0600 
    151 H151        0.4397  -21.7186  -44.2656 H         1 UNK         0.0600 
    152 H152        0.9228  -20.2408  -43.4479 H         1 UNK         0.0600 
    153 H153        1.2981  -20.4674  -45.1533 H         1 UNK         0.0600 
    154 H154        0.2915  -18.1910  -44.9296 H         1 UNK         0.3000 
    155 H155       -2.1987  -15.7362  -45.5845 H         1 UNK         0.0600 
    156 H156       -1.8459  -15.5107  -43.1399 H         1 UNK         0.0600 
    157 H157       -0.7487  -14.4353  -43.9870 H         1 UNK         0.0600 
    158 H158       -0.1509  -15.9414  -43.3042 H         1 UNK         0.0600 
    159 H159        0.6370  -15.6382  -45.7156 H         1 UNK         0.3000 
    160 H160        1.0469  -17.0057  -48.9931 H         1 UNK         0.0600 
    161 H161        1.2660  -14.1772  -47.8341 H         1 UNK         0.0600 
    162 H162        0.5357  -14.6447  -49.3622 H         1 UNK         0.0600 
    163 H163        2.2683  -14.8056  -49.1421 H         1 UNK         0.0600 
    164 H164        2.7862  -15.9900  -46.8997 H         1 UNK         0.3000 
    165 H165        3.5156  -19.1909  -45.4879 H         1 UNK         0.0600 
    166 H166        5.8405  -18.6737  -46.1804 H         1 UNK         0.0600 
    167 H167        4.9083  -19.2212  -47.5646 H         1 UNK         0.0600 
    168 H168        5.2579  -17.5077  -47.3695 H         1 UNK         0.0600 
    169 H169        4.7059  -16.6259  -45.1198 H         1 UNK         0.3000 
    170 H170        2.2946  -15.0893  -43.1457 H         1 UNK         0.0600 
    171 H171        3.1242  -16.6449  -41.3703 H         1 UNK         0.0600 
    172 H172        4.7732  -16.4396  -41.9519 H         1 UNK         0.0600 
    173 H173        3.8980  -15.0716  -41.2618 H         1 UNK         0.0600 
    174 H174        4.9808  -14.3688  -43.3723 H         1 UNK         0.3000 
    175 H175        5.9744  -13.4735  -45.6065 H         1 UNK         0.0600 
    176 H176        3.7314  -11.7190  -46.7361 H         1 UNK         0.0600 
    177 H177        5.4516  -11.5241  -47.0601 H         1 UNK         0.0600 
    178 H178        4.6107  -12.9627  -47.6162 H         1 UNK         0.0600 
    179 H179        4.6265  -11.0995  -44.5448 H         1 UNK         0.3000 
    180 H180        6.2365  -11.2874  -41.3407 H         1 UNK         0.0600 
    181 H181        6.1703   -9.3089  -43.6834 H         1 UNK         0.0600 
    182 H182        7.6152   -9.9462  -42.9097 H         1 UNK         0.0600 
    183 H183        6.5217   -8.9125  -42.0031 H         1 UNK         0.0600 
    184 H184        3.9760   -9.9492  -42.7110 H         1 UNK         0.3000 
    185 H185        1.5188  -11.6314  -40.7948 H         1 UNK         0.0600 
    186 H186        2.2112   -9.8607  -39.1780 H         1 UNK         0.0600 
    187 H187        2.4285   -8.7170  -40.4973 H         1 UNK         0.0600 
    188 H188        0.8230   -9.3444  -40.1219 H         1 UNK         0.0600 
    189 H189        1.5065   -9.4224  -42.6667 H         1 UNK         0.3000 
    190 H190       -4.0554  -21.4808  -46.8403 H         1 UNK         0.3000 
    191 H191       -6.6876  -22.8444  -46.6533 H         1 UNK         0.0600 
    192 H192       -6.8791  -20.9889  -45.0381 H         1 UNK         0.0600 
    193 H193       -6.7201  -22.5091  -44.1721 H         1 UNK         0.0600 
    194 H194       -5.3393  -21.4231  -44.2991 H         1 UNK         0.0600 
    195 H195       -3.2889  -22.7446  -45.4590 H         1 UNK         0.3000 
    196 H196       -3.3770  -25.3495  -44.2730 H         1 UNK         0.0600 
    197 H197       -0.9456  -24.9668  -43.9748 H         1 UNK         0.0600 
    198 H198       -1.8208  -23.4979  -43.5687 H         1 UNK         0.0600 
    199 H199       -0.9795  -23.6286  -45.1136 H         1 UNK         0.0600 
    200 H200       -2.3596  -27.2582  -44.9280 H         1 UNK         0.3000 
    201 H201       -1.9110  -28.9776  -46.2574 H         1 UNK         0.0600 
    202 H202        0.2498  -27.7623  -46.5466 H         1 UNK         0.0600 
    203 H203       -0.3827  -26.9483  -47.9752 H         1 UNK         0.0600 
    204 H204       -0.1566  -28.6915  -47.9798 H         1 UNK         0.0600 
    205 H205       -4.4176  -28.0775  -46.5799 H         1 UNK         0.3000 
    206 H206       -6.2798  -28.0690  -47.7920 H         1 UNK         0.0600 
    207 H207       -5.5736  -30.3826  -48.4348 H         1 UNK         0.0600 
    208 H208       -6.4896  -29.6056  -49.7162 H         1 UNK         0.0600 
    209 H209       -4.7436  -29.7453  -49.8533 H         1 UNK         0.0600 
    210 H210       -5.0383  -25.7702  -47.8496 H         1 UNK         0.3000 
    211 H211       -4.6146  -23.8168  -48.8056 H         1 UNK         0.0600 
    212 H212       -6.6234  -24.6685  -50.9615 H         1 UNK         0.0600 
    213 H213       -6.1564  -23.0238  -50.5512 H         1 UNK         0.0600 
    214 H214       -7.0495  -23.9854  -49.3925 H         1 UNK         0.0600 
    215 H215       -2.5598  -25.2544  -49.1058 H         1 UNK         0.3000 
    216 H216       -0.7060  -25.8305  -50.1898 H         1 UNK         0.0600 
    217 H217        0.1833  -24.1230  -51.8028 H         1 UNK         0.0600 
    218 H218       -0.5144  -23.3807  -50.3740 H         1 UNK         0.0600 
    219 H219       -1.4095  -23.3765  -51.8878 H         1 UNK         0.0600 
    220 H220       -2.5009  -27.6072  -50.8353 H         1 UNK         0.3000 
    221 H221       -3.3009  -29.1317  -52.2179 H         1 UNK         0.0600 
    222 H222       -0.8845  -28.5005  -53.9974 H         1 UNK         0.0600 
    223 H223       -0.8774  -29.5887  -52.6101 H         1 UNK         0.0600 
    224 H224       -1.8410  -29.9754  -54.0265 H         1 UNK         0.0600 
    225 H225       -4.7000  -26.9180  -52.3522 H         1 UNK         0.3000 
    226 H226       -6.2646  -25.7981  -53.3450 H         1 UNK         0.0600 
    227 H227       -6.9606  -28.0391  -54.2196 H         1 UNK         0.0600 
    228 H228       -7.4456  -26.7318  -55.2843 H         1 UNK         0.0600 
    229 H229       -6.0656  -27.7331  -55.7084 H         1 UNK         0.0600 
    230 H230       -3.3299  -25.1263  -54.0506 H         1 UNK         0.3000 
    231 H231       -3.5827  -23.5120  -56.4797 H         1 UNK         0.0600 
    232 H232       -1.4502  -23.4643  -54.2832 H         1 UNK         0.0600 
    233 H233       -1.3447  -22.6849  -55.8550 H         1 UNK         0.0600 
    234 H234       -1.3772  -24.4395  -55.7493 H         1 UNK         0.0600 
    235 H235       -4.0542  -23.1162  -53.0155 H         1 UNK         0.3000 
    236 H236       -4.8345  -21.5665  -51.6885 H         1 UNK         0.0600 
    237 H237       -6.8401  -22.2076  -53.0300 H         1 UNK         0.0600 
    238 H238       -6.9744  -20.5651  -52.4261 H         1 UNK         0.0600 
    239 H239       -6.5574  -20.8463  -54.1139 H         1 UNK         0.0600 
    240 H240       -2.4218  -20.6552  -52.7904 H         1 UNK         0.3000 
    241 H241       -1.0881  -18.8960  -52.8169 H         1 UNK         0.0600 
    242 H242       -2.7523  -18.1302  -56.2649 H         1 UNK         0.3800 
    243 H243       -3.1439  -19.4868  -55.2405 H         1 UNK         0.3800 
    244 H244       -3.3022  -16.9966  -51.9734 H         1 UNK         0.0800 
    245 H245       -2.5828  -18.0968  -50.8318 H         1 UNK         0.0800 
    246 H246       -1.1802  -14.0206  -51.6562 H         1 UNK         0.0800 
    247 H247       -2.6588  -14.7760  -52.1737 H         1 UNK         0.0800 
@<TRIPOS>BOND
     1    1    2 1    
     2    1  127 1    
     3    1  128 1    
     4    1  129 1    
     5    2    3 2    
     6    2    4 am   BACKBONE|DICT|INTERRES
     7    4    5 1    
     8    4  130 1    
     9    5    6 1    
    10    5   65 1    
    11    5  131 1    
    12    6    7 1    
    13    6  132 1    
    14    6  133 1    
    15    7    8 1    
    16    8    9 1    
    17    8  134 1    
    18    8  135 1    
    19    9   10 ar   
    20    9   14 ar   
    21   10   11 ar   
    22   10  136 1    
    23   11   12 ar   
    24   11  126 1    
    25   12   13 ar   
    26   12  137 1    
    27   13   14 ar   
    28   13   15 1    
    29   14  138 1    
    30   15   16 1    
    31   15  139 1    
    32   15  140 1    
    33   16   17 1    
    34   17   18 1    
    35   17  141 1    
    36   17  142 1    
    37   18   19 1    
    38   18   67 1    
    39   18  143 1    
    40   19   20 am   BACKBONE|DICT|INTERRES
    41   19  144 1    
    42   20   21 2    
    43   20   22 1    
    44   22   23 1    
    45   22   24 1    
    46   22  145 1    
    47   23  146 1    
    48   23  147 1    
    49   23  148 1    
    50   24   25 am   BACKBONE|DICT|INTERRES
    51   24  149 1    
    52   25   26 2    
    53   25   27 1    
    54   27   28 1    
    55   27   29 1    
    56   27  150 1    
    57   28  151 1    
    58   28  152 1    
    59   28  153 1    
    60   29   30 am   BACKBONE|DICT|INTERRES
    61   29  154 1    
    62   30   31 2    
    63   30   32 1    
    64   32   33 1    
    65   32   34 1    
    66   32  155 1    
    67   33  156 1    
    68   33  157 1    
    69   33  158 1    
    70   34   35 am   BACKBONE|DICT|INTERRES
    71   34  159 1    
    72   35   36 2    
    73   35   37 1    
    74   37   38 1    
    75   37   39 1    
    76   37  160 1    
    77   38  161 1    
    78   38  162 1    
    79   38  163 1    
    80   39   40 am   BACKBONE|DICT|INTERRES
    81   39  164 1    
    82   40   41 2    
    83   40   42 1    
    84   42   43 1    
    85   42   44 1    
    86   42  165 1    
    87   43  166 1    
    88   43  167 1    
    89   43  168 1    
    90   44   45 am   BACKBONE|DICT|INTERRES
    91   44  169 1    
    92   45   46 2    
    93   45   47 1    
    94   47   48 1    
    95   47   49 1    
    96   47  170 1    
    97   48  171 1    
    98   48  172 1    
    99   48  173 1    
   100   49   50 am   BACKBONE|DICT|INTERRES
   101   49  174 1    
   102   50   51 2    
   103   50   52 1    
   104   52   53 1    
   105   52   54 1    
   106   52  175 1    
   107   53  176 1    
   108   53  177 1    
   109   53  178 1    
   110   54   55 am   BACKBONE|DICT|INTERRES
   111   54  179 1    
   112   55   56 2    
   113   55   57 1    
   114   57   58 1    
   115   57   59 1    
   116   57  180 1    
   117   58  181 1    
   118   58  182 1    
   119   58  183 1    
   120   59   60 am   BACKBONE|DICT|INTERRES
   121   59  184 1    
   122   60   61 2    
   123   60   62 1    
   124   62   63 1    
   125   62   64 1    
   126   62  185 1    
   127   63  186 1    
   128   63  187 1    
   129   63  188 1    
   130   64   65 am   BACKBONE|DICT|INTERRES
   131   64  189 1    
   132   65   66 2    
   133   67   68 2    
   134   67   69 am   BACKBONE|DICT|INTERRES
   135   69   70 1    
   136   69  190 1    
   137   70   71 1    
   138   70   72 1    
   139   70  191 1    
   140   71  192 1    
   141   71  193 1    
   142   71  194 1    
   143   72   73 2    
   144   72   74 am   BACKBONE|DICT|INTERRES
   145   74   75 1    
   146   74  195 1    
   147   75   76 1    
   148   75   77 1    
   149   75  196 1    
   150   76  197 1    
   151   76  198 1    
   152   76  199 1    
   153   77   78 2    
   154   77   79 am   BACKBONE|DICT|INTERRES
   155   79   80 1    
   156   79  200 1    
   157   80   81 1    
   158   80   82 1    
   159   80  201 1    
   160   81  202 1    
   161   81  203 1    
   162   81  204 1    
   163   82   83 2    
   164   82   84 am   BACKBONE|DICT|INTERRES
   165   84   85 1    
   166   84  205 1    
   167   85   86 1    
   168   85   87 1    
   169   85  206 1    
   170   86  207 1    
   171   86  208 1    
   172   86  209 1    
   173   87   88 2    
   174   87   89 am   BACKBONE|DICT|INTERRES
   175   89   90 1    
   176   89  210 1    
   177   90   91 1    
   178   90   92 1    
   179   90  211 1    
   180   91  212 1    
   181   91  213 1    
   182   91  214 1    
   183   92   93 2    
   184   92   94 am   BACKBONE|DICT|INTERRES
   185   94   95 1    
   186   94  215 1    
   187   95   96 1    
   188   95   97 1    
   189   95  216 1    
   190   96  217 1    
   191   96  218 1    
   192   96  219 1    
   193   97   98 2    
   194   97   99 am   BACKBONE|DICT|INTERRES
   195   99  100 1    
   196   99  220 1    
   197  100  101 1    
   198  100  102 1    
   199  100  221 1    
   200  101  222 1    
   201  101  223 1    
   202  101  224 1    
   203  102  103 2    
   204  102  104 am   BACKBONE|DICT|INTERRES
   205  104  105 1    
   206  104  225 1    
   207  105  106 1    
   208  105  107 1    
   209  105  226 1    
   210  106  227 1    
   211  106  228 1    
   212  106  229 1    
   213  107  108 2    
   214  107  109 am   BACKBONE|DICT|INTERRES
   215  109  110 1    
   216  109  230 1    
   217  110  111 1    
   218  110  112 1    
   219  110  231 1    
   220  111  232 1    
   221  111  233 1    
   222  111  234 1    
   223  112  113 2    
   224  112  114 am   BACKBONE|DICT|INTERRES
   225  114  115 1    
   226  114  235 1    
   227  115  116 1    
   228  115  117 1    
   229  115  236 1    
   230  116  237 1    
   231  116  238 1    
   232  116  239 1    
   233  117  118 2    
   234  117  119 am   BACKBONE|DICT|INTERRES
   235  119  120 1    
   236  119  240 1    
   237  120  121 1    
   238  120  124 1    
   239  120  241 1    
   240  121  122 am   BACKBONE|DICT|INTERRES
   241  121  123 2    
   242  122  242 1    
   243  122  243 1    
   244  124  125 1    
   245  124  244 1    
   246  124  245 1    
   247  125  126 1    
   248  126  246 1    
   249  126  247 1    
@<TRIPOS>SUBSTRUCTURE
     1 UNK         1 GROUP             0       ****    0 ROOT    
