@<TRIPOS>MOLECULE
3R540
247   249    1
SMALL
USER_CHARGES


@<TRIPOS>ATOM
      1 CA          9.9548  -14.2639  -48.7691 C.3       0 UNK        -0.1800 
      2 C           8.9824  -15.0980  -47.9474 C.2       0 UNK         0.5000 
      3 O           9.3105  -15.4977  -46.8302 O.2       0 UNK        -0.5000 
      4 N           7.7903  -15.3626  -48.4971 N.am      1 UNK        -0.5000 
      5 CA          6.7064  -16.1145  -47.8509 C.3       1 UNK         0.1400 
      6 C6          5.6483  -16.6042  -48.8707 C.3       23 UNK        -0.0398 
      7 S7          5.0192  -15.3050  -49.9892 S.3       23 UNK        -0.2404 
      8 C8          4.2748  -16.3040  -51.3177 C.3       23 UNK        -0.0205 
      9 C9          2.9972  -17.0015  -50.8704 C.ar      23 UNK        -0.0193 
     10 C10         1.7631  -16.3604  -50.9960 C.ar      23 UNK        -0.1150 
     11 C11         0.5845  -17.0019  -50.6058 C.ar      23 UNK        -0.0193 
     12 C12         0.6476  -18.2987  -50.0843 C.ar      23 UNK        -0.1150 
     13 C13         1.8797  -18.9585  -49.9504 C.ar      23 UNK        -0.0193 
     14 C14         3.0447  -18.2972  -50.3508 C.ar      23 UNK        -0.1150 
     15 C15         2.0305  -20.3773  -49.3917 C.3       23 UNK        -0.0205 
     16 S16         0.4910  -21.2579  -48.9668 S.3       23 UNK        -0.2404 
     17 C17        -0.0044  -20.4273  -47.4187 C.3       23 UNK        -0.0398 
     18 CA          0.1251  -21.3063  -46.1481 C.3       11 UNK         0.1400 
     19 N          -0.3100  -20.5864  -44.9503 N.am      11 UNK        -0.5000 
     20 C           0.0821  -20.8760  -43.7006 C.2       10 UNK         0.5000 
     21 O           0.9873  -21.6678  -43.4375 O.2       10 UNK        -0.5000 
     22 CA         -0.6762  -20.1942  -42.5439 C.3       10 UNK         0.1400 
     23 CB          0.1212  -19.0113  -41.9715 C.3       10 UNK        -0.1800 
     24 N          -2.0109  -19.7461  -42.9515 N.am      10 UNK        -0.5000 
     25 C          -3.0884  -20.5472  -42.9771 C.2       9 UNK         0.5000 
     26 O          -3.0790  -21.6986  -42.5428 O.2       9 UNK        -0.5000 
     27 CA         -4.3966  -19.9974  -43.5873 C.3       9 UNK         0.1400 
     28 CB         -5.3913  -19.6204  -42.4791 C.3       9 UNK        -0.1800 
     29 N          -4.2080  -18.8397  -44.4607 N.am      9 UNK        -0.5000 
     30 C          -3.5796  -18.8562  -45.6435 C.2       8 UNK         0.5000 
     31 O          -3.1450  -19.8822  -46.1662 O.2       8 UNK        -0.5000 
     32 CA         -3.3392  -17.4897  -46.3197 C.3       8 UNK         0.1400 
     33 CB         -4.4367  -17.1977  -47.3522 C.3       8 UNK        -0.1800 
     34 N          -3.2540  -16.3616  -45.3817 N.am      8 UNK        -0.5000 
     35 C          -2.3740  -16.2651  -44.3760 C.2       7 UNK         0.5000 
     36 O          -1.5370  -17.1309  -44.1224 O.2       7 UNK        -0.5000 
     37 CA         -2.4523  -15.0043  -43.5085 C.3       7 UNK         0.1400 
     38 CB         -2.2055  -15.3174  -42.0221 C.3       7 UNK        -0.1800 
     39 N          -1.4270  -14.0884  -43.9814 N.am      7 UNK        -0.5000 
     40 C          -1.6369  -12.8379  -44.4058 C.2       6 UNK         0.5000 
     41 O          -2.7285  -12.2689  -44.3619 O.2       6 UNK        -0.5000 
     42 CA         -0.4241  -12.1082  -45.0127 C.3       6 UNK         0.1400 
     43 CB          0.4591  -11.5099  -43.9079 C.3       6 UNK        -0.1800 
     44 N           0.3875  -12.9724  -45.8725 N.am      6 UNK        -0.5000 
     45 C          -0.0382  -13.5248  -47.0188 C.2       5 UNK         0.5000 
     46 O          -1.1622  -13.3517  -47.4905 O.2       5 UNK        -0.5000 
     47 CA          0.9597  -14.4214  -47.7643 C.3       5 UNK         0.1400 
     48 CB          1.9065  -13.5728  -48.6238 C.3       5 UNK        -0.1800 
     49 N           1.7234  -15.2529  -46.8361 N.am      5 UNK        -0.5000 
     50 C           1.2995  -16.4449  -46.3906 C.2       4 UNK         0.5000 
     51 O           0.2934  -17.0093  -46.8173 O.2       4 UNK        -0.5000 
     52 CA          2.1090  -17.1135  -45.2609 C.3       4 UNK         0.1400 
     53 CB          3.0486  -18.2001  -45.8034 C.3       4 UNK        -0.1800 
     54 N           2.8914  -16.1619  -44.4711 N.am      4 UNK        -0.5000 
     55 C           2.3613  -15.2881  -43.6038 C.2       3 UNK         0.5000 
     56 O           1.1576  -15.2065  -43.3674 O.2       3 UNK        -0.5000 
     57 CA          3.3273  -14.3028  -42.9192 C.3       3 UNK         0.1400 
     58 CB          3.8381  -14.8889  -41.5949 C.3       3 UNK        -0.1800 
     59 N           4.4714  -13.9163  -43.7467 N.am      3 UNK        -0.5000 
     60 C           4.4078  -13.3500  -44.9601 C.2       2 UNK         0.5000 
     61 O           3.3491  -13.0879  -45.5330 O.2       2 UNK        -0.5000 
     62 CA          5.7477  -13.0547  -45.6665 C.3       2 UNK         0.1400 
     63 CB          6.9421  -12.9390  -44.6944 C.3       2 UNK        -0.1800 
     64 N           6.0758  -14.0151  -46.7265 N.am      2 UNK        -0.5000 
     65 C           6.0750  -15.3573  -46.6595 C.2       1 UNK         0.5000 
     66 O           5.6487  -16.0021  -45.6997 O.2       1 UNK        -0.5000 
     67 C          -0.6646  -22.6285  -46.2451 C.2       11 UNK         0.5000 
     68 O          -0.0651  -23.7046  -46.2042 O.2       11 UNK        -0.5000 
     69 N          -1.9984  -22.5112  -46.3388 N.am      12 UNK        -0.5000 
     70 CA         -2.9758  -23.5951  -46.4507 C.3       12 UNK         0.1400 
     71 CB         -3.1985  -24.2465  -45.0685 C.3       12 UNK        -0.1800 
     72 C          -2.6300  -24.5995  -47.5738 C.2       12 UNK         0.5000 
     73 O          -2.4216  -24.1913  -48.7197 O.2       12 UNK        -0.5000 
     74 N          -2.5491  -25.8902  -47.2245 N.am      13 UNK        -0.5000 
     75 CA         -2.3048  -27.0340  -48.1062 C.3       13 UNK         0.1400 
     76 CB         -2.4104  -28.3210  -47.2730 C.3       13 UNK        -0.1800 
     77 C          -0.9762  -27.0067  -48.8906 C.2       13 UNK         0.5000 
     78 O          -0.8278  -27.7948  -49.8249 O.2       13 UNK        -0.5000 
     79 N          -0.0488  -26.1043  -48.5358 N.am      14 UNK        -0.5000 
     80 CA          1.1976  -25.8669  -49.2680 C.3       14 UNK         0.1400 
     81 CB          2.0918  -24.9143  -48.4611 C.3       14 UNK        -0.1800 
     82 C           0.9753  -25.3243  -50.6955 C.2       14 UNK         0.5000 
     83 O           1.8025  -25.5899  -51.5689 O.2       14 UNK        -0.5000 
     84 N          -0.1333  -24.6016  -50.9131 N.am      15 UNK        -0.5000 
     85 CA         -0.5320  -24.0741  -52.2221 C.3       15 UNK         0.1400 
     86 CB         -0.1247  -22.5923  -52.3119 C.3       15 UNK        -0.1800 
     87 C          -2.0362  -24.2452  -52.5088 C.2       15 UNK         0.5000 
     88 O          -2.4830  -23.8149  -53.5708 O.2       15 UNK        -0.5000 
     89 N          -2.7926  -24.8279  -51.5636 N.am      16 UNK        -0.5000 
     90 CA         -4.2625  -24.8247  -51.4747 C.3       16 UNK         0.1400 
     91 CB         -4.9241  -25.5240  -52.6804 C.3       16 UNK        -0.1800 
     92 C          -4.8168  -23.4061  -51.2189 C.2       16 UNK         0.5000 
     93 O          -5.9111  -23.0607  -51.6739 O.2       16 UNK        -0.5000 
     94 N          -4.0290  -22.6021  -50.4947 N.am      17 UNK        -0.5000 
     95 CA         -4.3388  -21.2388  -50.0879 C.3       17 UNK         0.1400 
     96 CB         -3.0681  -20.6057  -49.5142 C.3       17 UNK        -0.1800 
     97 C          -5.4846  -21.2121  -49.0659 C.2       17 UNK         0.5000 
     98 O          -5.6805  -22.1852  -48.3336 O.2       17 UNK        -0.5000 
     99 N          -6.2565  -20.1203  -49.0813 N.am      18 UNK        -0.5000 
    100 CA        -7.5195  -19.8732  -48.3729 C.3       18 UNK         0.1400 
    101 CB        -7.3341  -19.9331  -46.8436 C.3       18 UNK        -0.1800 
    102 C         -8.6830  -20.7786  -48.8344 C.2       18 UNK         0.5000 
    103 O         -9.8080  -20.2960  -48.9669 O.2       18 UNK        -0.5000 
    104 N         -8.3946  -22.0619  -49.0813 N.am      19 UNK        -0.5000 
    105 CA        -9.3201  -23.0821  -49.5598 C.3       19 UNK         0.1400 
    106 CB        -8.6573  -24.4623  -49.4242 C.3       19 UNK        -0.1800 
    107 C         -9.7863  -22.8455  -51.0065 C.2       19 UNK         0.5000 
    108 O        -10.9783  -22.9982  -51.2793 O.2       19 UNK        -0.5000 
    109 N         -8.8562  -22.4891  -51.9048 N.am      20 UNK        -0.5000 
    110 CA        -9.1459  -22.3083  -53.3290 C.3       20 UNK         0.1400 
    111 CB        -9.1258  -23.6729  -54.0431 C.3       20 UNK        -0.1800 
    112 C         -8.1992  -21.3232  -54.0314 C.2       20 UNK         0.5000 
    113 O         -8.6631  -20.5594  -54.8796 O.2       20 UNK        -0.5000 
    114 N         -6.8996  -21.3795  -53.7133 N.am      21 UNK        -0.5000 
    115 CA        -5.8478  -20.6352  -54.4053 C.3       21 UNK         0.1400 
    116 CB        -4.6013  -21.5347  -54.5159 C.3       21 UNK        -0.1800 
    117 C         -5.5799  -19.2717  -53.7340 C.2       21 UNK         0.5000 
    118 O         -6.4796  -18.4315  -53.6871 O.2       21 UNK        -0.5000 
    119 N         -4.3379  -19.0613  -53.2771 N.am      22 UNK        -0.5000 
    120 CA        -3.8189  -17.8252  -52.6712 C.3       22 UNK         0.1400 
    121 C         -4.6077  -17.3353  -51.4205 C.2       22 UNK         0.5000 
    122 N         -4.5913  -16.0416  -51.1337 N.am      22 UNK        -0.7600 
    123 O         -5.2113  -18.1174  -50.6923 O.2       22 UNK        -0.5000 
    124 C124       -2.3014  -17.9744  -52.3768 C.3       23 UNK        -0.0398 
    125 S125       -1.4144  -16.3819  -52.4254 S.3       23 UNK        -0.2404 
    126 C126       -0.7480  -16.2756  -50.7360 C.3       23 UNK        -0.0205 
    127 H127       10.2096  -13.3494  -48.2335 H         1 UNK         0.0600 
    128 H128        9.5342  -13.9858  -49.7359 H         1 UNK         0.0600 
    129 H129       10.8730  -14.8239  -48.9464 H         1 UNK         0.0600 
    130 H130        7.5773  -15.0110  -49.4205 H         1 UNK         0.3000 
    131 H131        7.1592  -17.0105  -47.4203 H         1 UNK         0.0600 
    132 H132        6.0939  -17.3886  -49.4838 H         1 UNK         0.0800 
    133 H133        4.8030  -17.0711  -48.3663 H         1 UNK         0.0800 
    134 H134        5.0000  -17.0333  -51.6819 H         1 UNK         0.0800 
    135 H135        4.0563  -15.6505  -52.1636 H         1 UNK         0.0800 
    136 H136        1.7186  -15.3586  -51.3998 H         1 UNK         0.1150 
    137 H137       -0.2697  -18.7802  -49.7823 H         1 UNK         0.1150 
    138 H138        3.9985  -18.7975  -50.2593 H         1 UNK         0.1150 
    139 H139        2.5534  -20.9809  -50.1350 H         1 UNK         0.0800 
    140 H140        2.6751  -20.3505  -48.5122 H         1 UNK         0.0800 
    141 H141       -1.0229  -20.0675  -47.5442 H         1 UNK         0.0800 
    142 H142        0.5915  -19.5262  -47.3013 H         1 UNK         0.0800 
    143 H143        1.1816  -21.5608  -46.0370 H         1 UNK         0.0600 
    144 H144       -1.0813  -19.9449  -45.0704 H         1 UNK         0.3000 
    145 H145       -0.7767  -20.9316  -41.7445 H         1 UNK         0.0600 
    146 H146       -0.4009  -18.5552  -41.1304 H         1 UNK         0.0600 
    147 H147        1.0970  -19.3383  -41.6105 H         1 UNK         0.0600 
    148 H148        0.2945  -18.2347  -42.7137 H         1 UNK         0.0600 
    149 H149       -2.0679  -18.8035  -43.3270 H         1 UNK         0.3000 
    150 H150       -4.8368  -20.7989  -44.1847 H         1 UNK         0.0600 
    151 H151       -5.5870  -20.4699  -41.8233 H         1 UNK         0.0600 
    152 H152       -6.3485  -19.3084  -42.8975 H         1 UNK         0.0600 
    153 H153       -5.0126  -18.8070  -41.8589 H         1 UNK         0.0600 
    154 H154       -4.5266  -17.9509  -44.1051 H         1 UNK         0.3000 
    155 H155       -2.3848  -17.5570  -46.8457 H         1 UNK         0.0600 
    156 H156       -5.4027  -17.0230  -46.8774 H         1 UNK         0.0600 
    157 H157       -4.5595  -18.0326  -48.0408 H         1 UNK         0.0600 
    158 H158       -4.1906  -16.3203  -47.9504 H         1 UNK         0.0600 
    159 H159       -3.8970  -15.5992  -45.5402 H         1 UNK         0.3000 
    160 H160       -3.4501  -14.5720  -43.6080 H         1 UNK         0.0600 
    161 H161       -1.2101  -15.7315  -41.8539 H         1 UNK         0.0600 
    162 H162       -2.9305  -16.0420  -41.6497 H         1 UNK         0.0600 
    163 H163       -2.2980  -14.4187  -41.4124 H         1 UNK         0.0600 
    164 H164       -0.4884  -14.4795  -44.0237 H         1 UNK         0.3000 
    165 H165       -0.7997  -11.2886  -45.6287 H         1 UNK         0.0600 
    166 H166        1.3277  -10.9996  -44.3248 H         1 UNK         0.0600 
    167 H167       -0.0978  -10.7798  -43.3195 H         1 UNK         0.0600 
    168 H168        0.8153  -12.2770  -43.2212 H         1 UNK         0.0600 
    169 H169        1.3513  -13.1217  -45.5933 H         1 UNK         0.3000 
    170 H170        0.3891  -15.0641  -48.4336 H         1 UNK         0.0600 
    171 H171        2.5548  -14.2063  -49.2227 H         1 UNK         0.0600 
    172 H172        1.3457  -12.9433  -49.3157 H         1 UNK         0.0600 
    173 H173        2.5373  -12.9188  -48.0223 H         1 UNK         0.0600 
    174 H174        2.5331  -14.8236  -46.4061 H         1 UNK         0.3000 
    175 H175        1.3893  -17.5969  -44.5994 H         1 UNK         0.0600 
    176 H176        3.5896  -18.6912  -44.9944 H         1 UNK         0.0600 
    177 H177        2.4994  -18.9736  -46.3354 H         1 UNK         0.0600 
    178 H178        3.7819  -17.7880  -46.4929 H         1 UNK         0.0600 
    179 H179        3.8901  -16.1314  -44.6529 H         1 UNK         0.3000 
    180 H180        2.7684  -13.3941  -42.6933 H         1 UNK         0.0600 
    181 H181        3.0074  -15.1662  -40.9444 H         1 UNK         0.0600 
    182 H182        4.4472  -14.1662  -41.0516 H         1 UNK         0.0600 
    183 H183        4.4409  -15.7834  -41.7573 H         1 UNK         0.0600 
    184 H184        5.3849  -14.1299  -43.3741 H         1 UNK         0.3000 
    185 H185        5.6240  -12.0857  -46.1523 H         1 UNK         0.0600 
    186 H186        6.7357  -12.2255  -43.8953 H         1 UNK         0.0600 
    187 H187        7.1944  -13.8956  -44.2353 H         1 UNK         0.0600 
    188 H188        7.8316  -12.5854  -45.2161 H         1 UNK         0.0600 
    189 H189        6.4139  -13.6054  -47.5854 H         1 UNK         0.3000 
    190 H190       -2.3969  -21.5750  -46.3567 H         1 UNK         0.3000 
    191 H191       -3.9144  -23.1279  -46.7441 H         1 UNK         0.0600 
    192 H192       -2.2864  -24.6956  -44.6736 H         1 UNK         0.0600 
    193 H193       -3.9697  -25.0168  -45.1067 H         1 UNK         0.0600 
    194 H194       -3.5390  -23.5060  -44.3471 H         1 UNK         0.0600 
    195 H195       -2.6952  -26.1150  -46.2511 H         1 UNK         0.3000 
    196 H196       -3.1056  -27.0441  -48.8482 H         1 UNK         0.0600 
    197 H197       -2.2789  -29.2064  -47.8966 H         1 UNK         0.0600 
    198 H198       -3.3879  -28.4058  -46.7977 H         1 UNK         0.0600 
    199 H199       -1.6512  -28.3551  -46.4907 H         1 UNK         0.0600 
    200 H200       -0.2441  -25.4834  -47.7601 H         1 UNK         0.3000 
    201 H201        1.7171  -26.8232  -49.3579 H         1 UNK         0.0600 
    202 H202        2.2978  -25.3110  -47.4669 H         1 UNK         0.0600 
    203 H203        1.6290  -23.9353  -48.3412 H         1 UNK         0.0600 
    204 H204        3.0510  -24.7637  -48.9578 H         1 UNK         0.0600 
    205 H205       -0.7327  -24.3846  -50.1256 H         1 UNK         0.3000 
    206 H206       -0.0161  -24.6194  -53.0149 H         1 UNK         0.0600 
    207 H207        0.9362  -22.4574  -52.1005 H         1 UNK         0.0600 
    208 H208       -0.3095  -22.1928  -53.3096 H         1 UNK         0.0600 
    209 H209       -0.6880  -21.9811  -51.6069 H         1 UNK         0.0600 
    210 H210       -2.3256  -25.1376  -50.7237 H         1 UNK         0.3000 
    211 H211       -4.5103  -25.4056  -50.5853 H         1 UNK         0.0600 
    212 H212       -4.8264  -24.9411  -53.5964 H         1 UNK         0.0600 
    213 H213       -5.9907  -25.6690  -52.5052 H         1 UNK         0.0600 
    214 H214       -4.4867  -26.5065  -52.8566 H         1 UNK         0.0600 
    215 H215       -3.2174  -23.0217  -50.0544 H         1 UNK         0.3000 
    216 H216       -4.6452  -20.6865  -50.9768 H         1 UNK         0.0600 
    217 H217       -3.2353  -19.5720  -49.2135 H         1 UNK         0.0600 
    218 H218       -2.2616  -20.6070  -50.2464 H         1 UNK         0.0600 
    219 H219       -2.7259  -21.1558  -48.6396 H         1 UNK         0.0600 
    220 H220       -5.9777  -19.3711  -49.7172 H         1 UNK         0.3000 
    221 H221       -7.7991  -18.8499  -48.6285 H         1 UNK         0.0600 
    222 H222       -7.0852  -20.9365  -46.4978 H         1 UNK         0.0600 
    223 H223       -6.5422  -19.2616  -46.5148 H         1 UNK         0.0600 
    224 H224       -8.2484  -19.6323  -46.3311 H         1 UNK         0.0600 
    225 H225       -7.4388  -22.3578  -48.9015 H         1 UNK         0.3000 
    226 H226      -10.2022  -23.0628  -48.9163 H         1 UNK         0.0600 
    227 H227       -8.3961  -24.6737  -48.3871 H         1 UNK         0.0600 
    228 H228       -9.3297  -25.2535  -49.7582 H         1 UNK         0.0600 
    229 H229       -7.7458  -24.5325  -50.0192 H         1 UNK         0.0600 
    230 H230       -7.8879  -22.4131  -51.6150 H         1 UNK         0.3000 
    231 H231      -10.1480  -21.8859  -53.4322 H         1 UNK         0.0600 
    232 H232       -8.1617  -24.1698  -53.9264 H         1 UNK         0.0600 
    233 H233       -9.3116  -23.5601  -55.1120 H         1 UNK         0.0600 
    234 H234       -9.8947  -24.3385  -53.6507 H         1 UNK         0.0600 
    235 H235       -6.5847  -22.0338  -53.0008 H         1 UNK         0.3000 
    236 H236       -6.1696  -20.4183  -55.4261 H         1 UNK         0.0600 
    237 H237       -3.8247  -21.0665  -55.1219 H         1 UNK         0.0600 
    238 H238       -4.1741  -21.7603  -53.5396 H         1 UNK         0.0600 
    239 H239       -4.8445  -22.4847  -54.9924 H         1 UNK         0.0600 
    240 H240       -3.6764  -19.8174  -53.3670 H         1 UNK         0.3000 
    241 H241       -3.9455  -17.0619  -53.4415 H         1 UNK         0.0600 
    242 H242       -5.1002  -15.7142  -50.3289 H         1 UNK         0.3800 
    243 H243       -4.0839  -15.3832  -51.7041 H         1 UNK         0.3800 
    244 H244       -1.8279  -18.6014  -53.1337 H         1 UNK         0.0800 
    245 H245       -2.1317  -18.4845  -51.4282 H         1 UNK         0.0800 
    246 H246       -1.4728  -16.6540  -50.0130 H         1 UNK         0.0800 
    247 H247       -0.6107  -15.2201  -50.4986 H         1 UNK         0.0800 
@<TRIPOS>BOND
     1    1    2 1    
     2    1  127 1    
     3    1  128 1    
     4    1  129 1    
     5    2    3 2    
     6    2    4 am   BACKBONE|DICT|INTERRES
     7    4    5 1    
     8    4  130 1    
     9    5    6 1    
    10    5   65 1    
    11    5  131 1    
    12    6    7 1    
    13    6  132 1    
    14    6  133 1    
    15    7    8 1    
    16    8    9 1    
    17    8  134 1    
    18    8  135 1    
    19    9   10 ar   
    20    9   14 ar   
    21   10   11 ar   
    22   10  136 1    
    23   11   12 ar   
    24   11  126 1    
    25   12   13 ar   
    26   12  137 1    
    27   13   14 ar   
    28   13   15 1    
    29   14  138 1    
    30   15   16 1    
    31   15  139 1    
    32   15  140 1    
    33   16   17 1    
    34   17   18 1    
    35   17  141 1    
    36   17  142 1    
    37   18   19 1    
    38   18   67 1    
    39   18  143 1    
    40   19   20 am   BACKBONE|DICT|INTERRES
    41   19  144 1    
    42   20   21 2    
    43   20   22 1    
    44   22   23 1    
    45   22   24 1    
    46   22  145 1    
    47   23  146 1    
    48   23  147 1    
    49   23  148 1    
    50   24   25 am   BACKBONE|DICT|INTERRES
    51   24  149 1    
    52   25   26 2    
    53   25   27 1    
    54   27   28 1    
    55   27   29 1    
    56   27  150 1    
    57   28  151 1    
    58   28  152 1    
    59   28  153 1    
    60   29   30 am   BACKBONE|DICT|INTERRES
    61   29  154 1    
    62   30   31 2    
    63   30   32 1    
    64   32   33 1    
    65   32   34 1    
    66   32  155 1    
    67   33  156 1    
    68   33  157 1    
    69   33  158 1    
    70   34   35 am   BACKBONE|DICT|INTERRES
    71   34  159 1    
    72   35   36 2    
    73   35   37 1    
    74   37   38 1    
    75   37   39 1    
    76   37  160 1    
    77   38  161 1    
    78   38  162 1    
    79   38  163 1    
    80   39   40 am   BACKBONE|DICT|INTERRES
    81   39  164 1    
    82   40   41 2    
    83   40   42 1    
    84   42   43 1    
    85   42   44 1    
    86   42  165 1    
    87   43  166 1    
    88   43  167 1    
    89   43  168 1    
    90   44   45 am   BACKBONE|DICT|INTERRES
    91   44  169 1    
    92   45   46 2    
    93   45   47 1    
    94   47   48 1    
    95   47   49 1    
    96   47  170 1    
    97   48  171 1    
    98   48  172 1    
    99   48  173 1    
   100   49   50 am   BACKBONE|DICT|INTERRES
   101   49  174 1    
   102   50   51 2    
   103   50   52 1    
   104   52   53 1    
   105   52   54 1    
   106   52  175 1    
   107   53  176 1    
   108   53  177 1    
   109   53  178 1    
   110   54   55 am   BACKBONE|DICT|INTERRES
   111   54  179 1    
   112   55   56 2    
   113   55   57 1    
   114   57   58 1    
   115   57   59 1    
   116   57  180 1    
   117   58  181 1    
   118   58  182 1    
   119   58  183 1    
   120   59   60 am   BACKBONE|DICT|INTERRES
   121   59  184 1    
   122   60   61 2    
   123   60   62 1    
   124   62   63 1    
   125   62   64 1    
   126   62  185 1    
   127   63  186 1    
   128   63  187 1    
   129   63  188 1    
   130   64   65 am   BACKBONE|DICT|INTERRES
   131   64  189 1    
   132   65   66 2    
   133   67   68 2    
   134   67   69 am   BACKBONE|DICT|INTERRES
   135   69   70 1    
   136   69  190 1    
   137   70   71 1    
   138   70   72 1    
   139   70  191 1    
   140   71  192 1    
   141   71  193 1    
   142   71  194 1    
   143   72   73 2    
   144   72   74 am   BACKBONE|DICT|INTERRES
   145   74   75 1    
   146   74  195 1    
   147   75   76 1    
   148   75   77 1    
   149   75  196 1    
   150   76  197 1    
   151   76  198 1    
   152   76  199 1    
   153   77   78 2    
   154   77   79 am   BACKBONE|DICT|INTERRES
   155   79   80 1    
   156   79  200 1    
   157   80   81 1    
   158   80   82 1    
   159   80  201 1    
   160   81  202 1    
   161   81  203 1    
   162   81  204 1    
   163   82   83 2    
   164   82   84 am   BACKBONE|DICT|INTERRES
   165   84   85 1    
   166   84  205 1    
   167   85   86 1    
   168   85   87 1    
   169   85  206 1    
   170   86  207 1    
   171   86  208 1    
   172   86  209 1    
   173   87   88 2    
   174   87   89 am   BACKBONE|DICT|INTERRES
   175   89   90 1    
   176   89  210 1    
   177   90   91 1    
   178   90   92 1    
   179   90  211 1    
   180   91  212 1    
   181   91  213 1    
   182   91  214 1    
   183   92   93 2    
   184   92   94 am   BACKBONE|DICT|INTERRES
   185   94   95 1    
   186   94  215 1    
   187   95   96 1    
   188   95   97 1    
   189   95  216 1    
   190   96  217 1    
   191   96  218 1    
   192   96  219 1    
   193   97   98 2    
   194   97   99 am   BACKBONE|DICT|INTERRES
   195   99  100 1    
   196   99  220 1    
   197  100  101 1    
   198  100  102 1    
   199  100  221 1    
   200  101  222 1    
   201  101  223 1    
   202  101  224 1    
   203  102  103 2    
   204  102  104 am   BACKBONE|DICT|INTERRES
   205  104  105 1    
   206  104  225 1    
   207  105  106 1    
   208  105  107 1    
   209  105  226 1    
   210  106  227 1    
   211  106  228 1    
   212  106  229 1    
   213  107  108 2    
   214  107  109 am   BACKBONE|DICT|INTERRES
   215  109  110 1    
   216  109  230 1    
   217  110  111 1    
   218  110  112 1    
   219  110  231 1    
   220  111  232 1    
   221  111  233 1    
   222  111  234 1    
   223  112  113 2    
   224  112  114 am   BACKBONE|DICT|INTERRES
   225  114  115 1    
   226  114  235 1    
   227  115  116 1    
   228  115  117 1    
   229  115  236 1    
   230  116  237 1    
   231  116  238 1    
   232  116  239 1    
   233  117  118 2    
   234  117  119 am   BACKBONE|DICT|INTERRES
   235  119  120 1    
   236  119  240 1    
   237  120  121 1    
   238  120  124 1    
   239  120  241 1    
   240  121  122 am   BACKBONE|DICT|INTERRES
   241  121  123 2    
   242  122  242 1    
   243  122  243 1    
   244  124  125 1    
   245  124  244 1    
   246  124  245 1    
   247  125  126 1    
   248  126  246 1    
   249  126  247 1    
@<TRIPOS>SUBSTRUCTURE
     1 UNK         1 GROUP             0       ****    0 ROOT    
