@<TRIPOS>MOLECULE
3R540
247   249    1
SMALL
USER_CHARGES


@<TRIPOS>ATOM
      1 CA         -5.2189  -15.1334  -49.6848 C.3       0 UNK        -0.1800 
      2 C          -4.0692  -14.5848  -48.8531 C.2       0 UNK         0.5000 
      3 O          -4.2511  -13.6128  -48.1190 O.2       0 UNK        -0.5000 
      4 N          -2.8884  -15.2128  -48.9396 N.am      1 UNK        -0.5000 
      5 CA         -1.6678  -14.8072  -48.2295 C.3       1 UNK         0.1400 
      6 C6         -0.3835  -15.3896  -48.8653 C.3       23 UNK        -0.0398 
      7 S7         -0.2570  -15.0164  -50.6497 S.3       23 UNK        -0.2404 
      8 C8          1.4710  -15.4632  -50.9969 C.3       23 UNK        -0.0205 
      9 C9          1.7316  -16.9582  -50.8689 C.ar      23 UNK        -0.0193 
     10 C10         1.4284  -17.8230  -51.9249 C.ar      23 UNK        -0.1150 
     11 C11         1.7437  -19.1824  -51.8389 C.ar      23 UNK        -0.0193 
     12 C12         2.3511  -19.6757  -50.6814 C.ar      23 UNK        -0.1150 
     13 C13         2.6405  -18.8278  -49.6044 C.ar      23 UNK        -0.0193 
     14 C14         2.3293  -17.4691  -49.7133 C.ar      23 UNK        -0.1150 
     15 C15         3.3425  -19.3214  -48.3380 C.3       23 UNK        -0.0205 
     16 S16         3.1509  -21.0993  -47.9774 S.3       23 UNK        -0.2404 
     17 C17         1.3772  -21.1730  -47.5624 C.3       23 UNK        -0.0398 
     18 CA          0.9734  -22.5403  -46.9615 C.3       11 UNK         0.1400 
     19 N           1.7997  -22.9000  -45.8026 N.am      11 UNK        -0.5000 
     20 C           1.8555  -24.1032  -45.2120 C.2       10 UNK         0.5000 
     21 O           1.0975  -25.0335  -45.4915 O.2       10 UNK        -0.5000 
     22 CA          2.9496  -24.3061  -44.1482 C.3       10 UNK         0.1400 
     23 CB          4.0918  -25.1216  -44.7967 C.3       10 UNK        -0.1800 
     24 N           3.3843  -23.0053  -43.6087 N.am      10 UNK        -0.5000 
     25 C           4.5564  -22.6502  -43.0580 C.2       9 UNK         0.5000 
     26 O           5.5116  -23.4059  -42.8807 O.2       9 UNK        -0.5000 
     27 CA          4.6901  -21.1776  -42.6224 C.3       9 UNK         0.1400 
     28 CB          5.2887  -20.3386  -43.7622 C.3       9 UNK        -0.1800 
     29 N           3.4200  -20.5838  -42.2006 N.am      9 UNK        -0.5000 
     30 C           2.7765  -20.9101  -41.0687 C.2       8 UNK         0.5000 
     31 O           3.2160  -21.7176  -40.2492 O.2       8 UNK        -0.5000 
     32 CA          1.4165  -20.2362  -40.7929 C.3       8 UNK         0.1400 
     33 CB          1.5624  -19.1552  -39.7106 C.3       8 UNK        -0.1800 
     34 N           0.7853  -19.6366  -41.9689 N.am      8 UNK        -0.5000 
     35 C           0.3492  -20.3057  -43.0446 C.2       7 UNK         0.5000 
     36 O           0.4703  -21.5224  -43.1949 O.2       7 UNK        -0.5000 
     37 CA         -0.2662  -19.4577  -44.1732 C.3       7 UNK         0.1400 
     38 CB         -1.7709  -19.2531  -43.9532 C.3       7 UNK        -0.1800 
     39 N           0.3678  -18.1489  -44.3366 N.am      7 UNK        -0.5000 
     40 C           1.6684  -17.9327  -44.5794 C.2       6 UNK         0.5000 
     41 O           2.4927  -18.8346  -44.7244 O.2       6 UNK        -0.5000 
     42 CA          2.1256  -16.4638  -44.6420 C.3       6 UNK         0.1400 
     43 CB          2.2712  -16.0133  -46.1002 C.3       6 UNK        -0.1800 
     44 N           1.2146  -15.5505  -43.9450 N.am      6 UNK        -0.5000 
     45 C           1.1161  -15.4600  -42.6096 C.2       5 UNK         0.5000 
     46 O           1.7421  -16.1923  -41.8418 O.2       5 UNK        -0.5000 
     47 CA          0.1363  -14.4151  -42.0329 C.3       5 UNK         0.1400 
     48 CB          0.6266  -13.8145  -40.6992 C.3       5 UNK        -0.1800 
     49 N          -0.2418  -13.3607  -42.9805 N.am      5 UNK        -0.5000 
     50 C           0.5406  -12.4167  -43.5300 C.2       4 UNK         0.5000 
     51 O           1.7357  -12.2824  -43.2655 O.2       4 UNK        -0.5000 
     52 CA         -0.1094  -11.4776  -44.5695 C.3       4 UNK         0.1400 
     53 CB          0.6830  -11.4853  -45.8888 C.3       4 UNK        -0.1800 
     54 N          -1.4930  -11.8579  -44.8598 N.am      4 UNK        -0.5000 
     55 C          -2.5849  -11.3121  -44.3065 C.2       3 UNK         0.5000 
     56 O          -2.5545  -10.3486  -43.5407 O.2       3 UNK        -0.5000 
     57 CA         -3.9401  -11.9727  -44.6400 C.3       3 UNK         0.1400 
     58 CB         -4.6464  -11.2060  -45.7676 C.3       3 UNK        -0.1800 
     59 N          -3.8214  -13.3847  -45.0195 N.am      3 UNK        -0.5000 
     60 C          -3.4195  -14.3642  -44.1934 C.2       2 UNK         0.5000 
     61 O          -3.1658  -14.1836  -43.0032 O.2       2 UNK        -0.5000 
     62 CA         -3.1856  -15.7612  -44.8031 C.3       2 UNK         0.1400 
     63 CB         -4.4456  -16.6233  -44.6345 C.3       2 UNK        -0.1800 
     64 N          -2.8006  -15.7166  -46.2166 N.am      2 UNK        -0.5000 
     65 C          -1.7299  -15.0691  -46.7054 C.2       1 UNK         0.5000 
     66 O          -0.8428  -14.6148  -45.9801 O.2       1 UNK        -0.5000 
     67 C          -0.5510  -22.6251  -46.7226 C.2       11 UNK         0.5000 
     68 O          -1.2998  -22.6007  -47.6967 O.2       11 UNK        -0.5000 
     69 N          -0.9889  -22.7916  -45.4639 N.am      12 UNK        -0.5000 
     70 CA         -2.3640  -23.1034  -45.0497 C.3       12 UNK         0.1400 
     71 CB         -2.4038  -23.2279  -43.5171 C.3       12 UNK        -0.1800 
     72 C          -2.9602  -24.3812  -45.6832 C.2       12 UNK         0.5000 
     73 O          -4.1784  -24.5581  -45.6472 O.2       12 UNK        -0.5000 
     74 N          -2.1066  -25.2446  -46.2542 N.am      13 UNK        -0.5000 
     75 CA         -2.4915  -26.3798  -47.0940 C.3       13 UNK         0.1400 
     76 CB         -1.2349  -27.1993  -47.4242 C.3       13 UNK        -0.1800 
     77 C          -3.2231  -25.9635  -48.3898 C.2       13 UNK         0.5000 
     78 O          -4.0488  -26.7316  -48.8854 O.2       13 UNK        -0.5000 
     79 N          -2.9305  -24.7596  -48.9012 N.am      14 UNK        -0.5000 
     80 CA         -3.6821  -24.1025  -49.9663 C.3       14 UNK         0.1400 
     81 CB         -2.7124  -23.2743  -50.8241 C.3       14 UNK        -0.1800 
     82 C          -4.7581  -23.2047  -49.3333 C.2       14 UNK         0.5000 
     83 O          -4.5119  -22.6122  -48.2801 O.2       14 UNK        -0.5000 
     84 N          -5.9251  -23.1081  -49.9855 N.am      15 UNK        -0.5000 
     85 CA         -7.0920  -22.3358  -49.5442 C.3       15 UNK         0.1400 
     86 CB         -8.2093  -22.4638  -50.5919 C.3       15 UNK        -0.1800 
     87 C          -6.7515  -20.8575  -49.2742 C.2       15 UNK         0.5000 
     88 O          -6.4374  -20.1247  -50.2136 O.2       15 UNK        -0.5000 
     89 N          -6.7434  -20.4832  -47.9850 N.am      16 UNK        -0.5000 
     90 CA         -6.3361  -19.1830  -47.4302 C.3       16 UNK         0.1400 
     91 CB         -7.3439  -18.0875  -47.8354 C.3       16 UNK        -0.1800 
     92 C          -4.8835  -18.7754  -47.7672 C.2       16 UNK         0.5000 
     93 O          -4.5503  -17.5940  -47.6738 O.2       16 UNK        -0.5000 
     94 N          -4.0528  -19.7444  -48.1810 N.am      17 UNK        -0.5000 
     95 CA         -2.7316  -19.5684  -48.7868 C.3       17 UNK         0.1400 
     96 CB         -1.7051  -19.1003  -47.7357 C.3       17 UNK        -0.1800 
     97 C          -2.7563  -18.6759  -50.0477 C.2       17 UNK         0.5000 
     98 O          -1.7985  -17.9477  -50.2933 O.2       17 UNK        -0.5000 
     99 N          -3.8579  -18.7007  -50.8127 N.am      18 UNK        -0.5000 
    100 CA        -3.9968  -17.9460  -52.0574 C.3       18 UNK         0.1400 
    101 CB        -5.4656  -17.9697  -52.5067 C.3       18 UNK        -0.1800 
    102 C         -3.0919  -18.5264  -53.1540 C.2       18 UNK         0.5000 
    103 O         -3.0501  -19.7459  -53.3173 O.2       18 UNK        -0.5000 
    104 N         -2.4280  -17.6517  -53.9209 N.am      19 UNK        -0.5000 
    105 CA        -1.4764  -18.0238  -54.9738 C.3       19 UNK         0.1400 
    106 CB        -0.8295  -16.7529  -55.5429 C.3       19 UNK        -0.1800 
    107 C         -2.0814  -18.8837  -56.1019 C.2       19 UNK         0.5000 
    108 O         -1.3759  -19.7110  -56.6784 O.2       19 UNK        -0.5000 
    109 N         -3.3820  -18.7020  -56.3685 N.am      20 UNK        -0.5000 
    110 CA        -4.1583  -19.5198  -57.3009 C.3       20 UNK         0.1400 
    111 CB        -5.4656  -18.7872  -57.6389 C.3       20 UNK        -0.1800 
    112 C         -4.4585  -20.9306  -56.7554 C.2       20 UNK         0.5000 
    113 O         -4.5685  -21.8711  -57.5427 O.2       20 UNK        -0.5000 
    114 N         -4.5778  -21.0602  -55.4264 N.am      21 UNK        -0.5000 
    115 CA        -4.8354  -22.3234  -54.7338 C.3       21 UNK         0.1400 
    116 CB        -5.5537  -22.0403  -53.4052 C.3       21 UNK        -0.1800 
    117 C         -3.5523  -23.1459  -54.5107 C.2       21 UNK         0.5000 
    118 O         -3.6464  -24.3596  -54.3256 O.2       21 UNK        -0.5000 
    119 N         -2.3839  -22.4895  -54.5542 N.am      22 UNK        -0.5000 
    120 CA        -1.0545  -23.1241  -54.5222 C.3       22 UNK         0.1400 
    121 C         -0.7381  -24.0336  -55.7495 C.2       22 UNK         0.5000 
    122 N         -1.4558  -23.9341  -56.8628 N.am      22 UNK        -0.7600 
    123 O          0.1788  -24.8481  -55.6876 O.2       22 UNK        -0.5000 
    124 C124        0.0851  -22.0883  -54.3410 C.3       23 UNK        -0.0398 
    125 S125       -0.0098  -21.1168  -52.8011 S.3       23 UNK        -0.2404 
    126 C126        1.4931  -20.1128  -53.0152 C.3       23 UNK        -0.0205 
    127 H127       -6.1454  -15.1047  -49.1114 H         1 UNK         0.0600 
    128 H128       -5.0415  -16.1682  -49.9724 H         1 UNK         0.0600 
    129 H129       -5.3524  -14.5379  -50.5876 H         1 UNK         0.0600 
    130 H130       -2.7843  -16.0252  -49.5348 H         1 UNK         0.3000 
    131 H131       -1.5954  -13.7219  -48.3288 H         1 UNK         0.0600 
    132 H132       -0.3320  -16.4695  -48.7221 H         1 UNK         0.0800 
    133 H133        0.4959  -14.9658  -48.3789 H         1 UNK         0.0800 
    134 H134        2.1309  -14.8996  -50.3355 H         1 UNK         0.0800 
    135 H135        1.7159  -15.1415  -52.0102 H         1 UNK         0.0800 
    136 H136        0.9695  -17.4312  -52.8213 H         1 UNK         0.1150 
    137 H137        2.6091  -20.7236  -50.6369 H         1 UNK         0.1150 
    138 H138        2.5754  -16.7976  -48.9041 H         1 UNK         0.1150 
    139 H139        4.4070  -19.1042  -48.4323 H         1 UNK         0.0800 
    140 H140        2.9893  -18.7591  -47.4734 H         1 UNK         0.0800 
    141 H141        0.8096  -20.9742  -48.4735 H         1 UNK         0.0800 
    142 H142        1.1543  -20.3606  -46.8724 H         1 UNK         0.0800 
    143 H143        1.1829  -23.2939  -47.7239 H         1 UNK         0.0600 
    144 H144        2.4970  -22.2166  -45.5471 H         1 UNK         0.3000 
    145 H145        2.5144  -24.8826  -43.3305 H         1 UNK         0.0600 
    146 H146        4.7734  -25.5250  -44.0487 H         1 UNK         0.0600 
    147 H147        3.7047  -25.9807  -45.3469 H         1 UNK         0.0600 
    148 H148        4.6700  -24.5194  -45.4986 H         1 UNK         0.0600 
    149 H149        2.6531  -22.3046  -43.5940 H         1 UNK         0.3000 
    150 H150        5.3797  -21.1402  -41.7763 H         1 UNK         0.0600 
    151 H151        6.2803  -20.7030  -44.0332 H         1 UNK         0.0600 
    152 H152        5.3939  -19.2929  -43.4729 H         1 UNK         0.0600 
    153 H153        4.6713  -20.3782  -44.6604 H         1 UNK         0.0600 
    154 H154        2.9998  -19.9131  -42.8324 H         1 UNK         0.3000 
    155 H155        0.7450  -21.0102  -40.4156 H         1 UNK         0.0600 
    156 H156        2.2140  -18.3445  -40.0393 H         1 UNK         0.0600 
    157 H157        1.9896  -19.5698  -38.7965 H         1 UNK         0.0600 
    158 H158        0.5960  -18.7238  -39.4491 H         1 UNK         0.0600 
    159 H159        0.6964  -18.6303  -41.9612 H         1 UNK         0.3000 
    160 H160       -0.1327  -20.0099  -45.1007 H         1 UNK         0.0600 
    161 H161       -1.9756  -18.6940  -43.0394 H         1 UNK         0.0600 
    162 H162       -2.2954  -20.2045  -43.8826 H         1 UNK         0.0600 
    163 H163       -2.2133  -18.7102  -44.7867 H         1 UNK         0.0600 
    164 H164       -0.2255  -17.3399  -44.2366 H         1 UNK         0.3000 
    165 H165        3.1057  -16.3978  -44.1649 H         1 UNK         0.0600 
    166 H166        2.4690  -14.9436  -46.1732 H         1 UNK         0.0600 
    167 H167        3.1027  -16.5300  -46.5793 H         1 UNK         0.0600 
    168 H168        1.3707  -16.2330  -46.6719 H         1 UNK         0.0600 
    169 H169        0.6362  -14.9527  -44.5253 H         1 UNK         0.3000 
    170 H170       -0.7818  -14.9639  -41.8198 H         1 UNK         0.0600 
    171 H171        0.7437  -14.5890  -39.9404 H         1 UNK         0.0600 
    172 H172        1.5910  -13.3177  -40.8069 H         1 UNK         0.0600 
    173 H173       -0.0852  -13.0869  -40.3093 H         1 UNK         0.0600 
    174 H174       -1.2180  -13.3720  -43.2490 H         1 UNK         0.3000 
    175 H175       -0.0762  -10.4663  -44.1595 H         1 UNK         0.0600 
    176 H176        0.7427  -12.4846  -46.3207 H         1 UNK         0.0600 
    177 H177        0.2244  -10.8279  -46.6276 H         1 UNK         0.0600 
    178 H178        1.7042  -11.1346  -45.7351 H         1 UNK         0.0600 
    179 H179       -1.6031  -12.6725  -45.4501 H         1 UNK         0.3000 
    180 H180       -4.5634  -11.9161  -43.7452 H         1 UNK         0.0600 
    181 H181       -4.0632  -11.2205  -46.6893 H         1 UNK         0.0600 
    182 H182       -4.8012  -10.1618  -45.4934 H         1 UNK         0.0600 
    183 H183       -5.6252  -11.6343  -45.9842 H         1 UNK         0.0600 
    184 H184       -4.0031  -13.6053  -45.9932 H         1 UNK         0.3000 
    185 H185       -2.3693  -16.2273  -44.2489 H         1 UNK         0.0600 
    186 H186       -4.7555  -16.6656  -43.5895 H         1 UNK         0.0600 
    187 H187       -5.2824  -16.2265  -45.2109 H         1 UNK         0.0600 
    188 H188       -4.2749  -17.6484  -44.9594 H         1 UNK         0.0600 
    189 H189       -3.4636  -16.1203  -46.8734 H         1 UNK         0.3000 
    190 H190       -0.3033  -22.7618  -44.7182 H         1 UNK         0.3000 
    191 H191       -2.9970  -22.2672  -45.3533 H         1 UNK         0.0600 
    192 H192       -2.0892  -22.3097  -43.0252 H         1 UNK         0.0600 
    193 H193       -1.7540  -24.0306  -43.1662 H         1 UNK         0.0600 
    194 H194       -3.4134  -23.4464  -43.1665 H         1 UNK         0.0600 
    195 H195       -1.1153  -25.0532  -46.1799 H         1 UNK         0.3000 
    196 H196       -3.1720  -27.0089  -46.5167 H         1 UNK         0.0600 
    197 H197       -1.4843  -28.0717  -48.0295 H         1 UNK         0.0600 
    198 H198       -0.7497  -27.5604  -46.5171 H         1 UNK         0.0600 
    199 H199       -0.5058  -26.6089  -47.9808 H         1 UNK         0.0600 
    200 H200       -2.3072  -24.1476  -48.3823 H         1 UNK         0.3000 
    201 H201       -4.1643  -24.8437  -50.6071 H         1 UNK         0.0600 
    202 H202       -2.0117  -23.9192  -51.3538 H         1 UNK         0.0600 
    203 H203       -2.1288  -22.5772  -50.2247 H         1 UNK         0.0600 
    204 H204       -3.2446  -22.6884  -51.5723 H         1 UNK         0.0600 
    205 H205       -6.0388  -23.6168  -50.8490 H         1 UNK         0.3000 
    206 H206       -7.4502  -22.7882  -48.6173 H         1 UNK         0.0600 
    207 H207       -8.4969  -23.5048  -50.7400 H         1 UNK         0.0600 
    208 H208       -9.1020  -21.9227  -50.2758 H         1 UNK         0.0600 
    209 H209       -7.9073  -22.0575  -51.5575 H         1 UNK         0.0600 
    210 H210       -6.9630  -21.1872  -47.2941 H         1 UNK         0.3000 
    211 H211       -6.3744  -19.2859  -46.3451 H         1 UNK         0.0600 
    212 H212       -7.3024  -17.8771  -48.9048 H         1 UNK         0.0600 
    213 H213       -7.1397  -17.1525  -47.3120 H         1 UNK         0.0600 
    214 H214       -8.3649  -18.3786  -47.5892 H         1 UNK         0.0600 
    215 H215       -4.3986  -20.7008  -48.1878 H         1 UNK         0.3000 
    216 H216       -2.4212  -20.5546  -49.1291 H         1 UNK         0.0600 
    217 H217       -0.7020  -19.0471  -48.1594 H         1 UNK         0.0600 
    218 H218       -1.6706  -19.7974  -46.9011 H         1 UNK         0.0600 
    219 H219       -1.9446  -18.1143  -47.3423 H         1 UNK         0.0600 
    220 H220       -4.6343  -19.3038  -50.5593 H         1 UNK         0.3000 
    221 H221       -3.7072  -16.9102  -51.8691 H         1 UNK         0.0600 
    222 H222       -5.8038  -18.9841  -52.7220 H         1 UNK         0.0600 
    223 H223       -6.1214  -17.5594  -51.7386 H         1 UNK         0.0600 
    224 H224       -5.6095  -17.3760  -53.4100 H         1 UNK         0.0600 
    225 H225       -2.5213  -16.6644  -53.7317 H         1 UNK         0.3000 
    226 H226       -0.6942  -18.6202  -54.5032 H         1 UNK         0.0600 
    227 H227       -0.3137  -16.1897  -54.7647 H         1 UNK         0.0600 
    228 H228       -0.0910  -16.9992  -56.3071 H         1 UNK         0.0600 
    229 H229       -1.5695  -16.0953  -56.0005 H         1 UNK         0.0600 
    230 H230       -3.8831  -17.9928  -55.8543 H         1 UNK         0.3000 
    231 H231       -3.5837  -19.6348  -58.2225 H         1 UNK         0.0600 
    232 H232       -5.2676  -17.8142  -58.0889 H         1 UNK         0.0600 
    233 H233       -6.0804  -18.6292  -56.7518 H         1 UNK         0.0600 
    234 H234       -6.0601  -19.3591  -58.3527 H         1 UNK         0.0600 
    235 H235       -4.3725  -20.2666  -54.8324 H         1 UNK         0.3000 
    236 H236       -5.5059  -22.9292  -55.3471 H         1 UNK         0.0600 
    237 H237       -5.8112  -22.9721  -52.9021 H         1 UNK         0.0600 
    238 H238       -4.9407  -21.4550  -52.7203 H         1 UNK         0.0600 
    239 H239       -6.4820  -21.4932  -53.5694 H         1 UNK         0.0600 
    240 H240       -2.4005  -21.4798  -54.6129 H         1 UNK         0.3000 
    241 H241       -1.0407  -23.7826  -53.6521 H         1 UNK         0.0600 
    242 H242       -2.2117  -23.2706  -56.9312 H         1 UNK         0.3800 
    243 H243       -1.2406  -24.5309  -57.6460 H         1 UNK         0.3800 
    244 H244        1.0537  -22.5921  -54.3413 H         1 UNK         0.0800 
    245 H245        0.1025  -21.3986  -55.1861 H         1 UNK         0.0800 
    246 H246        2.3517  -20.7751  -53.1367 H         1 UNK         0.0800 
    247 H247        1.4207  -19.5400  -53.9405 H         1 UNK         0.0800 
@<TRIPOS>BOND
     1    1    2 1    
     2    1  127 1    
     3    1  128 1    
     4    1  129 1    
     5    2    3 2    
     6    2    4 am   BACKBONE|DICT|INTERRES
     7    4    5 1    
     8    4  130 1    
     9    5    6 1    
    10    5   65 1    
    11    5  131 1    
    12    6    7 1    
    13    6  132 1    
    14    6  133 1    
    15    7    8 1    
    16    8    9 1    
    17    8  134 1    
    18    8  135 1    
    19    9   10 ar   
    20    9   14 ar   
    21   10   11 ar   
    22   10  136 1    
    23   11   12 ar   
    24   11  126 1    
    25   12   13 ar   
    26   12  137 1    
    27   13   14 ar   
    28   13   15 1    
    29   14  138 1    
    30   15   16 1    
    31   15  139 1    
    32   15  140 1    
    33   16   17 1    
    34   17   18 1    
    35   17  141 1    
    36   17  142 1    
    37   18   19 1    
    38   18   67 1    
    39   18  143 1    
    40   19   20 am   BACKBONE|DICT|INTERRES
    41   19  144 1    
    42   20   21 2    
    43   20   22 1    
    44   22   23 1    
    45   22   24 1    
    46   22  145 1    
    47   23  146 1    
    48   23  147 1    
    49   23  148 1    
    50   24   25 am   BACKBONE|DICT|INTERRES
    51   24  149 1    
    52   25   26 2    
    53   25   27 1    
    54   27   28 1    
    55   27   29 1    
    56   27  150 1    
    57   28  151 1    
    58   28  152 1    
    59   28  153 1    
    60   29   30 am   BACKBONE|DICT|INTERRES
    61   29  154 1    
    62   30   31 2    
    63   30   32 1    
    64   32   33 1    
    65   32   34 1    
    66   32  155 1    
    67   33  156 1    
    68   33  157 1    
    69   33  158 1    
    70   34   35 am   BACKBONE|DICT|INTERRES
    71   34  159 1    
    72   35   36 2    
    73   35   37 1    
    74   37   38 1    
    75   37   39 1    
    76   37  160 1    
    77   38  161 1    
    78   38  162 1    
    79   38  163 1    
    80   39   40 am   BACKBONE|DICT|INTERRES
    81   39  164 1    
    82   40   41 2    
    83   40   42 1    
    84   42   43 1    
    85   42   44 1    
    86   42  165 1    
    87   43  166 1    
    88   43  167 1    
    89   43  168 1    
    90   44   45 am   BACKBONE|DICT|INTERRES
    91   44  169 1    
    92   45   46 2    
    93   45   47 1    
    94   47   48 1    
    95   47   49 1    
    96   47  170 1    
    97   48  171 1    
    98   48  172 1    
    99   48  173 1    
   100   49   50 am   BACKBONE|DICT|INTERRES
   101   49  174 1    
   102   50   51 2    
   103   50   52 1    
   104   52   53 1    
   105   52   54 1    
   106   52  175 1    
   107   53  176 1    
   108   53  177 1    
   109   53  178 1    
   110   54   55 am   BACKBONE|DICT|INTERRES
   111   54  179 1    
   112   55   56 2    
   113   55   57 1    
   114   57   58 1    
   115   57   59 1    
   116   57  180 1    
   117   58  181 1    
   118   58  182 1    
   119   58  183 1    
   120   59   60 am   BACKBONE|DICT|INTERRES
   121   59  184 1    
   122   60   61 2    
   123   60   62 1    
   124   62   63 1    
   125   62   64 1    
   126   62  185 1    
   127   63  186 1    
   128   63  187 1    
   129   63  188 1    
   130   64   65 am   BACKBONE|DICT|INTERRES
   131   64  189 1    
   132   65   66 2    
   133   67   68 2    
   134   67   69 am   BACKBONE|DICT|INTERRES
   135   69   70 1    
   136   69  190 1    
   137   70   71 1    
   138   70   72 1    
   139   70  191 1    
   140   71  192 1    
   141   71  193 1    
   142   71  194 1    
   143   72   73 2    
   144   72   74 am   BACKBONE|DICT|INTERRES
   145   74   75 1    
   146   74  195 1    
   147   75   76 1    
   148   75   77 1    
   149   75  196 1    
   150   76  197 1    
   151   76  198 1    
   152   76  199 1    
   153   77   78 2    
   154   77   79 am   BACKBONE|DICT|INTERRES
   155   79   80 1    
   156   79  200 1    
   157   80   81 1    
   158   80   82 1    
   159   80  201 1    
   160   81  202 1    
   161   81  203 1    
   162   81  204 1    
   163   82   83 2    
   164   82   84 am   BACKBONE|DICT|INTERRES
   165   84   85 1    
   166   84  205 1    
   167   85   86 1    
   168   85   87 1    
   169   85  206 1    
   170   86  207 1    
   171   86  208 1    
   172   86  209 1    
   173   87   88 2    
   174   87   89 am   BACKBONE|DICT|INTERRES
   175   89   90 1    
   176   89  210 1    
   177   90   91 1    
   178   90   92 1    
   179   90  211 1    
   180   91  212 1    
   181   91  213 1    
   182   91  214 1    
   183   92   93 2    
   184   92   94 am   BACKBONE|DICT|INTERRES
   185   94   95 1    
   186   94  215 1    
   187   95   96 1    
   188   95   97 1    
   189   95  216 1    
   190   96  217 1    
   191   96  218 1    
   192   96  219 1    
   193   97   98 2    
   194   97   99 am   BACKBONE|DICT|INTERRES
   195   99  100 1    
   196   99  220 1    
   197  100  101 1    
   198  100  102 1    
   199  100  221 1    
   200  101  222 1    
   201  101  223 1    
   202  101  224 1    
   203  102  103 2    
   204  102  104 am   BACKBONE|DICT|INTERRES
   205  104  105 1    
   206  104  225 1    
   207  105  106 1    
   208  105  107 1    
   209  105  226 1    
   210  106  227 1    
   211  106  228 1    
   212  106  229 1    
   213  107  108 2    
   214  107  109 am   BACKBONE|DICT|INTERRES
   215  109  110 1    
   216  109  230 1    
   217  110  111 1    
   218  110  112 1    
   219  110  231 1    
   220  111  232 1    
   221  111  233 1    
   222  111  234 1    
   223  112  113 2    
   224  112  114 am   BACKBONE|DICT|INTERRES
   225  114  115 1    
   226  114  235 1    
   227  115  116 1    
   228  115  117 1    
   229  115  236 1    
   230  116  237 1    
   231  116  238 1    
   232  116  239 1    
   233  117  118 2    
   234  117  119 am   BACKBONE|DICT|INTERRES
   235  119  120 1    
   236  119  240 1    
   237  120  121 1    
   238  120  124 1    
   239  120  241 1    
   240  121  122 am   BACKBONE|DICT|INTERRES
   241  121  123 2    
   242  122  242 1    
   243  122  243 1    
   244  124  125 1    
   245  124  244 1    
   246  124  245 1    
   247  125  126 1    
   248  126  246 1    
   249  126  247 1    
@<TRIPOS>SUBSTRUCTURE
     1 UNK         1 GROUP             0       ****    0 ROOT    
