@<TRIPOS>MOLECULE
3R540
247   249    1
SMALL
USER_CHARGES


@<TRIPOS>ATOM
      1 CA          2.4762  -11.0320  -50.3162 C.3       0 UNK        -0.1800 
      2 C           2.4521  -12.5162  -49.9792 C.2       0 UNK         0.5000 
      3 O           2.8947  -13.3337  -50.7860 O.2       0 UNK        -0.5000 
      4 N           1.9351  -12.8639  -48.7932 N.am      1 UNK        -0.5000 
      5 CA          1.8346  -14.2383  -48.2855 C.3       1 UNK         0.1400 
      6 C6          0.9073  -14.3201  -47.0473 C.3       23 UNK        -0.0398 
      7 S7         -0.8529  -14.1734  -47.4983 S.3       23 UNK        -0.2404 
      8 C8         -1.3914  -15.8915  -47.2427 C.3       23 UNK        -0.0205 
      9 C9         -2.7485  -16.1605  -47.8667 C.ar      23 UNK        -0.0193 
     10 C10        -2.8367  -16.4384  -49.2325 C.ar      23 UNK        -0.1150 
     11 C11        -4.0628  -16.7517  -49.8237 C.ar      23 UNK        -0.0193 
     12 C12        -5.2126  -16.7754  -49.0250 C.ar      23 UNK        -0.1150 
     13 C13        -5.1400  -16.4994  -47.6565 C.ar      23 UNK        -0.0193 
     14 C14        -3.9055  -16.1762  -47.0842 C.ar      23 UNK        -0.1150 
     15 C15        -6.4005  -16.5619  -46.8037 C.3       23 UNK        -0.0205 
     16 S16        -6.2847  -17.7707  -45.4430 S.3       23 UNK        -0.2404 
     17 C17        -5.8305  -19.3188  -46.3053 C.3       23 UNK        -0.0398 
     18 CA         -4.3420  -19.6940  -46.0928 C.3       11 UNK         0.1400 
     19 N          -3.9765  -19.7542  -44.6705 N.am      11 UNK        -0.5000 
     20 C          -2.7192  -19.8095  -44.2163 C.2       10 UNK         0.5000 
     21 O          -1.7320  -19.8289  -44.9520 O.2       10 UNK        -0.5000 
     22 CA         -2.5388  -19.9242  -42.6942 C.3       10 UNK         0.1400 
     23 CB         -1.9627  -21.2996  -42.3241 C.3       10 UNK        -0.1800 
     24 N          -1.6600  -18.8768  -42.1826 N.am      10 UNK        -0.5000 
     25 C          -1.9986  -17.5826  -42.0949 C.2       9 UNK         0.5000 
     26 O          -3.1059  -17.1527  -42.4242 O.2       9 UNK        -0.5000 
     27 CA         -0.9338  -16.6077  -41.5430 C.3       9 UNK         0.1400 
     28 CB         -1.5440  -15.3330  -40.9239 C.3       9 UNK        -0.1800 
     29 N           0.0218  -17.2270  -40.6165 N.am      9 UNK        -0.5000 
     30 C          -0.2560  -17.8321  -39.4520 C.2       8 UNK         0.5000 
     31 O          -1.3880  -17.8942  -38.9684 O.2       8 UNK        -0.5000 
     32 CA          0.9320  -18.4812  -38.7053 C.3       8 UNK         0.1400 
     33 CB          0.4833  -19.6160  -37.7612 C.3       8 UNK        -0.1800 
     34 N           2.0173  -18.9564  -39.5735 N.am      8 UNK        -0.5000 
     35 C           1.9421  -19.8339  -40.5848 C.2       7 UNK         0.5000 
     36 O           0.8817  -20.3150  -40.9859 O.2       7 UNK        -0.5000 
     37 CA          3.2785  -20.2289  -41.2577 C.3       7 UNK         0.1400 
     38 CB          3.0682  -21.1119  -42.5001 C.3       7 UNK        -0.1800 
     39 N           4.0864  -19.0668  -41.6370 N.am      7 UNK        -0.5000 
     40 C           4.8013  -18.2972  -40.8048 C.2       6 UNK         0.5000 
     41 O           4.9189  -18.5260  -39.6003 O.2       6 UNK        -0.5000 
     42 CA          5.4194  -17.0164  -41.3980 C.3       6 UNK         0.1400 
     43 CB          6.7913  -17.3045  -42.0254 C.3       6 UNK        -0.1800 
     44 N           4.5533  -16.3735  -42.3885 N.am      6 UNK        -0.5000 
     45 C           3.3225  -15.8970  -42.1435 C.2       5 UNK         0.5000 
     46 O           2.7788  -15.9105  -41.0390 O.2       5 UNK        -0.5000 
     47 CA          2.5498  -15.3705  -43.3619 C.3       5 UNK         0.1400 
     48 CB          3.0349  -13.9631  -43.7466 C.3       5 UNK        -0.1800 
     49 N           2.6749  -16.3008  -44.4876 N.am      5 UNK        -0.5000 
     50 C           2.0549  -17.4927  -44.5400 C.2       4 UNK         0.5000 
     51 O           1.2318  -17.8625  -43.7054 O.2       4 UNK        -0.5000 
     52 CA          2.4418  -18.4550  -45.6794 C.3       4 UNK         0.1400 
     53 CB          1.4080  -18.4350  -46.8138 C.3       4 UNK        -0.1800 
     54 N           3.7740  -18.1865  -46.2182 N.am      4 UNK        -0.5000 
     55 C           4.9093  -18.5199  -45.5881 C.2       3 UNK         0.5000 
     56 O           4.9351  -19.1229  -44.5159 O.2       3 UNK        -0.5000 
     57 CA          6.2336  -18.0571  -46.2273 C.3       3 UNK         0.1400 
     58 CB          6.7706  -19.1286  -47.1871 C.3       3 UNK        -0.1800 
     59 N           6.1239  -16.7818  -46.9402 N.am      3 UNK        -0.5000 
     60 C           5.7634  -15.6188  -46.3808 C.2       2 UNK         0.5000 
     61 O           5.5163  -15.5001  -45.1804 O.2       2 UNK        -0.5000 
     62 CA          5.5967  -14.3981  -47.3123 C.3       2 UNK         0.1400 
     63 CB          6.3331  -14.5454  -48.6621 C.3       2 UNK        -0.1800 
     64 N           4.1876  -14.0525  -47.5489 N.am      2 UNK        -0.5000 
     65 C           3.2167  -14.8669  -47.9959 C.2       1 UNK         0.5000 
     66 O           3.3763  -16.0702  -48.2022 O.2       1 UNK        -0.5000 
     67 C          -3.9905  -21.0050  -46.8282 C.2       11 UNK         0.5000 
     68 O          -3.6526  -20.9738  -48.0096 O.2       11 UNK        -0.5000 
     69 N          -4.0201  -22.1313  -46.1000 N.am      12 UNK        -0.5000 
     70 CA         -3.6301  -23.4539  -46.5878 C.3       12 UNK         0.1400 
     71 CB         -4.0619  -24.5136  -45.5643 C.3       12 UNK        -0.1800 
     72 C          -2.1247  -23.5835  -46.8947 C.2       12 UNK         0.5000 
     73 O          -1.7509  -24.4298  -47.7068 O.2       12 UNK        -0.5000 
     74 N          -1.2830  -22.7423  -46.2743 N.am      13 UNK        -0.5000 
     75 CA          0.1558  -22.6968  -46.5456 C.3       13 UNK         0.1400 
     76 CB          0.8759  -21.9446  -45.4181 C.3       13 UNK        -0.1800 
     77 C           0.4780  -22.0856  -47.9234 C.2       13 UNK         0.5000 
     78 O           1.5256  -22.3964  -48.4912 O.2       13 UNK        -0.5000 
     79 N          -0.4416  -21.2760  -48.4685 N.am      14 UNK        -0.5000 
     80 CA         -0.3931  -20.7498  -49.8300 C.3       14 UNK         0.1400 
     81 CB         -1.1484  -19.4102  -49.8823 C.3       14 UNK        -0.1800 
     82 C          -0.9487  -21.7926  -50.8202 C.2       14 UNK         0.5000 
     83 O          -2.0059  -21.5846  -51.4148 O.2       14 UNK        -0.5000 
     84 N          -0.2309  -22.9182  -50.9503 N.am      15 UNK        -0.5000 
     85 CA         -0.4686  -24.0242  -51.8872 C.3       15 UNK         0.1400 
     86 CB         -0.0953  -23.5815  -53.3166 C.3       15 UNK        -0.1800 
     87 C          -1.8917  -24.6196  -51.7978 C.2       15 UNK         0.5000 
     88 O          -2.5537  -24.8083  -52.8205 O.2       15 UNK        -0.5000 
     89 N          -2.3526  -24.8635  -50.5611 N.am      16 UNK        -0.5000 
     90 CA         -3.6840  -25.3674  -50.1971 C.3       16 UNK         0.1400 
     91 CB         -3.9085  -26.7882  -50.7570 C.3       16 UNK        -0.1800 
     92 C          -4.8388  -24.4069  -50.5566 C.2       16 UNK         0.5000 
     93 O          -5.9911  -24.8400  -50.5918 O.2       16 UNK        -0.5000 
     94 N          -4.5195  -23.1350  -50.8431 N.am      17 UNK        -0.5000 
     95 CA         -5.3789  -22.0325  -51.2930 C.3       17 UNK         0.1400 
     96 CB         -6.4711  -21.7115  -50.2565 C.3       17 UNK        -0.1800 
     97 C          -5.9798  -22.2234  -52.7021 C.2       17 UNK         0.5000 
     98 O          -6.1052  -21.2499  -53.4450 O.2       17 UNK        -0.5000 
     99 N          -6.3325  -23.4628  -53.0624 N.am      18 UNK        -0.5000 
    100 CA        -6.9284  -23.8517  -54.3383 C.3       18 UNK         0.1400 
    101 CB        -7.3215  -25.3355  -54.2811 C.3       18 UNK        -0.1800 
    102 C         -6.0164  -23.5734  -55.5450 C.2       18 UNK         0.5000 
    103 O         -6.4785  -22.9940  -56.5281 O.2       18 UNK        -0.5000 
    104 N         -4.7335  -23.9519  -55.4427 N.am      19 UNK        -0.5000 
    105 CA        -3.7416  -23.7450  -56.5040 C.3       19 UNK         0.1400 
    106 CB        -2.5400  -24.6710  -56.2745 C.3       19 UNK        -0.1800 
    107 C         -3.2889  -22.2770  -56.6217 C.2       19 UNK         0.5000 
    108 O         -2.8796  -21.8529  -57.7027 O.2       19 UNK        -0.5000 
    109 N         -3.4012  -21.5227  -55.5206 N.am      20 UNK        -0.5000 
    110 CA        -3.1697  -20.0784  -55.4647 C.3       20 UNK         0.1400 
    111 CB        -2.7458  -19.7059  -54.0366 C.3       20 UNK        -0.1800 
    112 C         -4.3940  -19.2543  -55.9211 C.2       20 UNK         0.5000 
    113 O         -4.2783  -18.0351  -56.0512 O.2       20 UNK        -0.5000 
    114 N         -5.5295  -19.9280  -56.1657 N.am      21 UNK        -0.5000 
    115 CA        -6.8229  -19.3903  -56.5961 C.3       21 UNK         0.1400 
    116 CB        -6.7234  -18.7856  -58.0124 C.3       21 UNK        -0.1800 
    117 C         -7.4545  -18.4320  -55.5642 C.2       21 UNK         0.5000 
    118 O         -8.0518  -17.4218  -55.9423 O.2       21 UNK        -0.5000 
    119 N         -7.3175  -18.7748  -54.2790 N.am      22 UNK        -0.5000 
    120 CA        -7.8306  -18.0124  -53.1293 C.3       22 UNK         0.1400 
    121 C         -8.7073  -18.8547  -52.1575 C.2       22 UNK         0.5000 
    122 N         -9.0161  -20.1104  -52.4593 N.am      22 UNK        -0.7600 
    123 O         -9.1467  -18.3522  -51.1266 O.2       22 UNK        -0.5000 
    124 C124       -6.7007  -17.2302  -52.4101 C.3       23 UNK        -0.0398 
    125 S125       -5.3393  -18.2908  -51.8126 S.3       23 UNK        -0.2404 
    126 C126       -4.1022  -17.0460  -51.3220 C.3       23 UNK        -0.0205 
    127 H127        1.9048  -10.8445  -51.2253 H         1 UNK         0.0600 
    128 H128        2.0498  -10.4268  -49.5159 H         1 UNK         0.0600 
    129 H129        3.5017  -10.7020  -50.4826 H         1 UNK         0.0600 
    130 H130        1.5625  -12.1442  -48.1902 H         1 UNK         0.3000 
    131 H131        1.3919  -14.8473  -49.0773 H         1 UNK         0.0600 
    132 H132        1.1364  -13.5202  -46.3443 H         1 UNK         0.0800 
    133 H133        1.0498  -15.2512  -46.4989 H         1 UNK         0.0800 
    134 H134       -1.4050  -16.1188  -46.1752 H         1 UNK         0.0800 
    135 H135       -0.6670  -16.5673  -47.6950 H         1 UNK         0.0800 
    136 H136       -1.9397  -16.4200  -49.8356 H         1 UNK         0.1150 
    137 H137       -6.1693  -17.0188  -49.4623 H         1 UNK         0.1150 
    138 H138       -3.8434  -15.9693  -46.0248 H         1 UNK         0.1150 
    139 H139       -6.5908  -15.5741  -46.3823 H         1 UNK         0.0800 
    140 H140       -7.2712  -16.8073  -47.4141 H         1 UNK         0.0800 
    141 H141       -6.4811  -20.1115  -45.9322 H         1 UNK         0.0800 
    142 H142       -6.0535  -19.2211  -47.3695 H         1 UNK         0.0800 
    143 H143       -3.7320  -18.9136  -46.5513 H         1 UNK         0.0600 
    144 H144       -4.7406  -19.7043  -44.0120 H         1 UNK         0.3000 
    145 H145       -3.5112  -19.8226  -42.2076 H         1 UNK         0.0600 
    146 H146       -1.8638  -21.4070  -41.2436 H         1 UNK         0.0600 
    147 H147       -2.6094  -22.1047  -42.6749 H         1 UNK         0.0600 
    148 H148       -0.9766  -21.4535  -42.7644 H         1 UNK         0.0600 
    149 H149       -0.7224  -19.1592  -41.9189 H         1 UNK         0.3000 
    150 H150       -0.3616  -16.2931  -42.4122 H         1 UNK         0.0600 
    151 H151       -2.1352  -14.7846  -41.6581 H         1 UNK         0.0600 
    152 H152       -0.7660  -14.6576  -40.5679 H         1 UNK         0.0600 
    153 H153       -2.1995  -15.5638  -40.0839 H         1 UNK         0.0600 
    154 H154        0.9893  -17.2137  -40.9164 H         1 UNK         0.3000 
    155 H155        1.3635  -17.6908  -38.0897 H         1 UNK         0.0600 
    156 H156        1.3316  -20.0427  -37.2260 H         1 UNK         0.0600 
    157 H157       -0.0086  -20.4217  -38.3074 H         1 UNK         0.0600 
    158 H158       -0.2192  -19.2512  -37.0110 H         1 UNK         0.0600 
    159 H159        2.9437  -18.6093  -39.3458 H         1 UNK         0.3000 
    160 H160        3.8407  -20.8152  -40.5283 H         1 UNK         0.0600 
    161 H161        2.4634  -20.6023  -43.2492 H         1 UNK         0.0600 
    162 H162        2.5555  -22.0390  -42.2413 H         1 UNK         0.0600 
    163 H163        4.0178  -21.3834  -42.9614 H         1 UNK         0.0600 
    164 H164        4.0905  -18.8311  -42.6227 H         1 UNK         0.3000 
    165 H165        5.5621  -16.3088  -40.5788 H         1 UNK         0.0600 
    166 H166        6.7191  -18.0149  -42.8486 H         1 UNK         0.0600 
    167 H167        7.2495  -16.3928  -42.4094 H         1 UNK         0.0600 
    168 H168        7.4749  -17.7272  -41.2881 H         1 UNK         0.0600 
    169 H169        4.9227  -16.2846  -43.3286 H         1 UNK         0.3000 
    170 H170        1.4958  -15.2882  -43.0980 H         1 UNK         0.0600 
    171 H171        2.7359  -13.2387  -42.9883 H         1 UNK         0.0600 
    172 H172        4.1191  -13.9021  -43.8290 H         1 UNK         0.0600 
    173 H173        2.6133  -13.6324  -44.6918 H         1 UNK         0.0600 
    174 H174        3.4070  -16.1027  -45.1563 H         1 UNK         0.3000 
    175 H175        2.4444  -19.4610  -45.2602 H         1 UNK         0.0600 
    176 H176        1.3939  -17.4785  -47.3305 H         1 UNK         0.0600 
    177 H177        1.6247  -19.2056  -47.5533 H         1 UNK         0.0600 
    178 H178        0.4024  -18.6225  -46.4343 H         1 UNK         0.0600 
    179 H179        3.8193  -17.6390  -47.0731 H         1 UNK         0.3000 
    180 H180        6.9583  -17.9251  -45.4214 H         1 UNK         0.0600 
    181 H181        6.8851  -20.0865  -46.6779 H         1 UNK         0.0600 
    182 H182        6.0993  -19.2841  -48.0326 H         1 UNK         0.0600 
    183 H183        7.7490  -18.8520  -47.5803 H         1 UNK         0.0600 
    184 H184        6.2717  -16.8066  -47.9386 H         1 UNK         0.3000 
    185 H185        6.0417  -13.5532  -46.7847 H         1 UNK         0.0600 
    186 H186        7.3874  -14.7828  -48.5137 H         1 UNK         0.0600 
    187 H187        5.8982  -15.3251  -49.2885 H         1 UNK         0.0600 
    188 H188        6.2917  -13.6143  -49.2276 H         1 UNK         0.0600 
    189 H189        3.9502  -13.0824  -47.3983 H         1 UNK         0.3000 
    190 H190       -4.3019  -22.0700  -45.1329 H         1 UNK         0.3000 
    191 H191       -4.1708  -23.6365  -47.5183 H         1 UNK         0.0600 
    192 H192       -3.8131  -25.5172  -45.9122 H         1 UNK         0.0600 
    193 H193       -5.1391  -24.4871  -45.3987 H         1 UNK         0.0600 
    194 H194       -3.5692  -24.3681  -44.6020 H         1 UNK         0.0600 
    195 H195       -1.6503  -22.0347  -45.6522 H         1 UNK         0.3000 
    196 H196        0.5338  -23.7214  -46.5510 H         1 UNK         0.0600 
    197 H197        1.9543  -21.9374  -45.5815 H         1 UNK         0.0600 
    198 H198        0.6979  -22.4159  -44.4515 H         1 UNK         0.0600 
    199 H199        0.5484  -20.9089  -45.3499 H         1 UNK         0.0600 
    200 H200       -1.3063  -21.1179  -47.9678 H         1 UNK         0.3000 
    201 H201        0.6443  -20.5501  -50.1065 H         1 UNK         0.0600 
    202 H202       -0.7232  -18.6922  -49.1815 H         1 UNK         0.0600 
    203 H203       -2.2056  -19.5257  -49.6424 H         1 UNK         0.0600 
    204 H204       -1.0890  -18.9695  -50.8780 H         1 UNK         0.0600 
    205 H205        0.5912  -23.0072  -50.3640 H         1 UNK         0.3000 
    206 H206        0.2153  -24.8238  -51.5998 H         1 UNK         0.0600 
    207 H207        0.9077  -23.1563  -53.3494 H         1 UNK         0.0600 
    208 H208       -0.1054  -24.4302  -54.0007 H         1 UNK         0.0600 
    209 H209       -0.7888  -22.8329  -53.7025 H         1 UNK         0.0600 
    210 H210       -1.7582  -24.6458  -49.7678 H         1 UNK         0.3000 
    211 H211       -3.6956  -25.4508  -49.1110 H         1 UNK         0.0600 
    212 H212       -4.0151  -26.7876  -51.8420 H         1 UNK         0.0600 
    213 H213       -4.8142  -27.2331  -50.3433 H         1 UNK         0.0600 
    214 H214       -3.0801  -27.4486  -50.5006 H         1 UNK         0.0600 
    215 H215       -3.5346  -22.8915  -50.8369 H         1 UNK         0.3000 
    216 H216       -4.7203  -21.1656  -51.3507 H         1 UNK         0.0600 
    217 H217       -6.0448  -21.5748  -49.2632 H         1 UNK         0.0600 
    218 H218       -7.2230  -22.4985  -50.1957 H         1 UNK         0.0600 
    219 H219       -6.9863  -20.7864  -50.5146 H         1 UNK         0.0600 
    220 H220       -6.2360  -24.1883  -52.3586 H         1 UNK         0.3000 
    221 H221       -7.8388  -23.2634  -54.4694 H         1 UNK         0.0600 
    222 H222       -6.4568  -25.9755  -54.1005 H         1 UNK         0.0600 
    223 H223       -8.0448  -25.5201  -53.4866 H         1 UNK         0.0600 
    224 H224       -7.7792  -25.6558  -55.2179 H         1 UNK         0.0600 
    225 H225       -4.4104  -24.3957  -54.5927 H         1 UNK         0.3000 
    226 H226       -4.1973  -24.0235  -57.4568 H         1 UNK         0.0600 
    227 H227       -2.8484  -25.7147  -56.2136 H         1 UNK         0.0600 
    228 H228       -1.8223  -24.5892  -57.0917 H         1 UNK         0.0600 
    229 H229       -2.0163  -24.4206  -55.3545 H         1 UNK         0.0600 
    230 H230       -3.7544  -21.9530  -54.6782 H         1 UNK         0.3000 
    231 H231       -2.3462  -19.8221  -56.1343 H         1 UNK         0.0600 
    232 H232       -3.4870  -20.0235  -53.3038 H         1 UNK         0.0600 
    233 H233       -1.7981  -20.1764  -53.7750 H         1 UNK         0.0600 
    234 H234       -2.6136  -18.6289  -53.9278 H         1 UNK         0.0600 
    235 H235       -5.5197  -20.9257  -56.0011 H         1 UNK         0.3000 
    236 H236       -7.4956  -20.2469  -56.6561 H         1 UNK         0.0600 
    237 H237       -6.2881  -19.4972  -58.7141 H         1 UNK         0.0600 
    238 H238       -7.7097  -18.5185  -58.3932 H         1 UNK         0.0600 
    239 H239       -6.1125  -17.8827  -58.0271 H         1 UNK         0.0600 
    240 H240       -6.7909  -19.6136  -54.0419 H         1 UNK         0.3000 
    241 H241       -8.5312  -17.2627  -53.5003 H         1 UNK         0.0600 
    242 H242       -8.6646  -20.5346  -53.3021 H         1 UNK         0.3800 
    243 H243       -9.6022  -20.6394  -51.8338 H         1 UNK         0.3800 
    244 H244       -7.0992  -16.6475  -51.5788 H         1 UNK         0.0800 
    245 H245       -6.2822  -16.5029  -53.1069 H         1 UNK         0.0800 
    246 H246       -4.2642  -16.1145  -51.8649 H         1 UNK         0.0800 
    247 H247       -3.1293  -17.4202  -51.6439 H         1 UNK         0.0800 
@<TRIPOS>BOND
     1    1    2 1    
     2    1  127 1    
     3    1  128 1    
     4    1  129 1    
     5    2    3 2    
     6    2    4 am   BACKBONE|DICT|INTERRES
     7    4    5 1    
     8    4  130 1    
     9    5    6 1    
    10    5   65 1    
    11    5  131 1    
    12    6    7 1    
    13    6  132 1    
    14    6  133 1    
    15    7    8 1    
    16    8    9 1    
    17    8  134 1    
    18    8  135 1    
    19    9   10 ar   
    20    9   14 ar   
    21   10   11 ar   
    22   10  136 1    
    23   11   12 ar   
    24   11  126 1    
    25   12   13 ar   
    26   12  137 1    
    27   13   14 ar   
    28   13   15 1    
    29   14  138 1    
    30   15   16 1    
    31   15  139 1    
    32   15  140 1    
    33   16   17 1    
    34   17   18 1    
    35   17  141 1    
    36   17  142 1    
    37   18   19 1    
    38   18   67 1    
    39   18  143 1    
    40   19   20 am   BACKBONE|DICT|INTERRES
    41   19  144 1    
    42   20   21 2    
    43   20   22 1    
    44   22   23 1    
    45   22   24 1    
    46   22  145 1    
    47   23  146 1    
    48   23  147 1    
    49   23  148 1    
    50   24   25 am   BACKBONE|DICT|INTERRES
    51   24  149 1    
    52   25   26 2    
    53   25   27 1    
    54   27   28 1    
    55   27   29 1    
    56   27  150 1    
    57   28  151 1    
    58   28  152 1    
    59   28  153 1    
    60   29   30 am   BACKBONE|DICT|INTERRES
    61   29  154 1    
    62   30   31 2    
    63   30   32 1    
    64   32   33 1    
    65   32   34 1    
    66   32  155 1    
    67   33  156 1    
    68   33  157 1    
    69   33  158 1    
    70   34   35 am   BACKBONE|DICT|INTERRES
    71   34  159 1    
    72   35   36 2    
    73   35   37 1    
    74   37   38 1    
    75   37   39 1    
    76   37  160 1    
    77   38  161 1    
    78   38  162 1    
    79   38  163 1    
    80   39   40 am   BACKBONE|DICT|INTERRES
    81   39  164 1    
    82   40   41 2    
    83   40   42 1    
    84   42   43 1    
    85   42   44 1    
    86   42  165 1    
    87   43  166 1    
    88   43  167 1    
    89   43  168 1    
    90   44   45 am   BACKBONE|DICT|INTERRES
    91   44  169 1    
    92   45   46 2    
    93   45   47 1    
    94   47   48 1    
    95   47   49 1    
    96   47  170 1    
    97   48  171 1    
    98   48  172 1    
    99   48  173 1    
   100   49   50 am   BACKBONE|DICT|INTERRES
   101   49  174 1    
   102   50   51 2    
   103   50   52 1    
   104   52   53 1    
   105   52   54 1    
   106   52  175 1    
   107   53  176 1    
   108   53  177 1    
   109   53  178 1    
   110   54   55 am   BACKBONE|DICT|INTERRES
   111   54  179 1    
   112   55   56 2    
   113   55   57 1    
   114   57   58 1    
   115   57   59 1    
   116   57  180 1    
   117   58  181 1    
   118   58  182 1    
   119   58  183 1    
   120   59   60 am   BACKBONE|DICT|INTERRES
   121   59  184 1    
   122   60   61 2    
   123   60   62 1    
   124   62   63 1    
   125   62   64 1    
   126   62  185 1    
   127   63  186 1    
   128   63  187 1    
   129   63  188 1    
   130   64   65 am   BACKBONE|DICT|INTERRES
   131   64  189 1    
   132   65   66 2    
   133   67   68 2    
   134   67   69 am   BACKBONE|DICT|INTERRES
   135   69   70 1    
   136   69  190 1    
   137   70   71 1    
   138   70   72 1    
   139   70  191 1    
   140   71  192 1    
   141   71  193 1    
   142   71  194 1    
   143   72   73 2    
   144   72   74 am   BACKBONE|DICT|INTERRES
   145   74   75 1    
   146   74  195 1    
   147   75   76 1    
   148   75   77 1    
   149   75  196 1    
   150   76  197 1    
   151   76  198 1    
   152   76  199 1    
   153   77   78 2    
   154   77   79 am   BACKBONE|DICT|INTERRES
   155   79   80 1    
   156   79  200 1    
   157   80   81 1    
   158   80   82 1    
   159   80  201 1    
   160   81  202 1    
   161   81  203 1    
   162   81  204 1    
   163   82   83 2    
   164   82   84 am   BACKBONE|DICT|INTERRES
   165   84   85 1    
   166   84  205 1    
   167   85   86 1    
   168   85   87 1    
   169   85  206 1    
   170   86  207 1    
   171   86  208 1    
   172   86  209 1    
   173   87   88 2    
   174   87   89 am   BACKBONE|DICT|INTERRES
   175   89   90 1    
   176   89  210 1    
   177   90   91 1    
   178   90   92 1    
   179   90  211 1    
   180   91  212 1    
   181   91  213 1    
   182   91  214 1    
   183   92   93 2    
   184   92   94 am   BACKBONE|DICT|INTERRES
   185   94   95 1    
   186   94  215 1    
   187   95   96 1    
   188   95   97 1    
   189   95  216 1    
   190   96  217 1    
   191   96  218 1    
   192   96  219 1    
   193   97   98 2    
   194   97   99 am   BACKBONE|DICT|INTERRES
   195   99  100 1    
   196   99  220 1    
   197  100  101 1    
   198  100  102 1    
   199  100  221 1    
   200  101  222 1    
   201  101  223 1    
   202  101  224 1    
   203  102  103 2    
   204  102  104 am   BACKBONE|DICT|INTERRES
   205  104  105 1    
   206  104  225 1    
   207  105  106 1    
   208  105  107 1    
   209  105  226 1    
   210  106  227 1    
   211  106  228 1    
   212  106  229 1    
   213  107  108 2    
   214  107  109 am   BACKBONE|DICT|INTERRES
   215  109  110 1    
   216  109  230 1    
   217  110  111 1    
   218  110  112 1    
   219  110  231 1    
   220  111  232 1    
   221  111  233 1    
   222  111  234 1    
   223  112  113 2    
   224  112  114 am   BACKBONE|DICT|INTERRES
   225  114  115 1    
   226  114  235 1    
   227  115  116 1    
   228  115  117 1    
   229  115  236 1    
   230  116  237 1    
   231  116  238 1    
   232  116  239 1    
   233  117  118 2    
   234  117  119 am   BACKBONE|DICT|INTERRES
   235  119  120 1    
   236  119  240 1    
   237  120  121 1    
   238  120  124 1    
   239  120  241 1    
   240  121  122 am   BACKBONE|DICT|INTERRES
   241  121  123 2    
   242  122  242 1    
   243  122  243 1    
   244  124  125 1    
   245  124  244 1    
   246  124  245 1    
   247  125  126 1    
   248  126  246 1    
   249  126  247 1    
@<TRIPOS>SUBSTRUCTURE
     1 UNK         1 GROUP             0       ****    0 ROOT    
