@<TRIPOS>MOLECULE
3R540
247   249    1
SMALL
USER_CHARGES


@<TRIPOS>ATOM
      1 CA          6.2055  -11.7368  -51.0639 C.3       0 UNK        -0.1800 
      2 C           5.2365  -12.1111  -49.9512 C.2       0 UNK         0.5000 
      3 O           4.2666  -11.3892  -49.7290 O.2       0 UNK        -0.5000 
      4 N           5.5226  -13.2198  -49.2517 N.am      1 UNK        -0.5000 
      5 CA          4.7544  -13.8662  -48.1711 C.3       1 UNK         0.1400 
      6 C6          3.5443  -14.7107  -48.6645 C.3       23 UNK        -0.0398 
      7 S7          2.1091  -13.7522  -49.2736 S.3       23 UNK        -0.2404 
      8 C8          1.9511  -14.3470  -50.9879 C.3       23 UNK        -0.0205 
      9 C9          0.8331  -15.3711  -51.1269 C.ar      23 UNK        -0.0193 
     10 C10        -0.2730  -15.0900  -51.9338 C.ar      23 UNK        -0.1150 
     11 C11        -1.3091  -16.0177  -52.0734 C.ar      23 UNK        -0.0193 
     12 C12        -1.2434  -17.2302  -51.3803 C.ar      23 UNK        -0.1150 
     13 C13        -0.1508  -17.5169  -50.5564 C.ar      23 UNK        -0.0193 
     14 C14         0.8924  -16.5925  -50.4479 C.ar      23 UNK        -0.1150 
     15 C15        -0.1097  -18.8125  -49.7638 C.3       23 UNK        -0.0205 
     16 S16        -0.7690  -18.5594  -48.0835 S.3       23 UNK        -0.2404 
     17 C17        -1.9421  -19.9478  -47.9187 C.3       23 UNK        -0.0398 
     18 CA         -1.2867  -21.2092  -47.3084 C.3       11 UNK         0.1400 
     19 N          -0.6423  -20.9522  -46.0177 N.am      11 UNK        -0.5000 
     20 C           0.1923  -21.7979  -45.3978 C.2       10 UNK         0.5000 
     21 O           0.5419  -22.8791  -45.8671 O.2       10 UNK        -0.5000 
     22 CA          0.6673  -21.3902  -43.9932 C.3       10 UNK         0.1400 
     23 CB          1.9133  -20.4996  -44.0791 C.3       10 UNK        -0.1800 
     24 N          -0.3925  -20.7073  -43.2488 N.am      10 UNK        -0.5000 
     25 C          -1.4805  -21.3365  -42.7776 C.2       9 UNK         0.5000 
     26 O          -1.6544  -22.5517  -42.8732 O.2       9 UNK        -0.5000 
     27 CA         -2.5847  -20.4683  -42.1484 C.3       9 UNK         0.1400 
     28 CB         -2.3579  -20.3219  -40.6379 C.3       9 UNK        -0.1800 
     29 N          -2.6949  -19.1507  -42.7814 N.am      9 UNK        -0.5000 
     30 C          -3.1233  -18.9707  -44.0410 C.2       8 UNK         0.5000 
     31 O          -3.4882  -19.9052  -44.7552 O.2       8 UNK        -0.5000 
     32 CA         -3.0859  -17.5519  -44.6454 C.3       8 UNK         0.1400 
     33 CB         -4.3743  -17.2069  -45.4197 C.3       8 UNK        -0.1800 
     34 N          -2.7118  -16.4969  -43.6997 N.am      8 UNK        -0.5000 
     35 C          -3.4267  -15.9693  -42.6958 C.2       7 UNK         0.5000 
     36 O          -4.5913  -16.2753  -42.4375 O.2       7 UNK        -0.5000 
     37 CA         -2.6719  -14.9379  -41.8244 C.3       7 UNK         0.1400 
     38 CB         -3.3686  -14.6583  -40.4760 C.3       7 UNK        -0.1800 
     39 N          -1.2592  -15.2982  -41.6226 N.am      7 UNK        -0.5000 
     40 C          -0.7994  -16.4219  -41.0496 C.2       6 UNK         0.5000 
     41 O          -1.5309  -17.2808  -40.5591 O.2       6 UNK        -0.5000 
     42 CA          0.7267  -16.6418  -41.1038 C.3       6 UNK         0.1400 
     43 CB          1.1511  -18.0493  -40.6351 C.3       6 UNK        -0.1800 
     44 N           1.2893  -16.3603  -42.4289 N.am      6 UNK        -0.5000 
     45 C           0.9459  -16.9297  -43.5965 C.2       5 UNK         0.5000 
     46 O           0.0603  -17.7787  -43.7118 O.2       5 UNK        -0.5000 
     47 CA          1.7000  -16.4615  -44.8581 C.3       5 UNK         0.1400 
     48 CB          0.8617  -15.4046  -45.5933 C.3       5 UNK        -0.1800 
     49 N           3.0333  -15.9199  -44.5773 N.am      5 UNK        -0.5000 
     50 C           4.0504  -16.6323  -44.0676 C.2       4 UNK         0.5000 
     51 O           4.0074  -17.8502  -43.8956 O.2       4 UNK        -0.5000 
     52 CA          5.3203  -15.8674  -43.6452 C.3       4 UNK         0.1400 
     53 CB          6.3948  -15.9623  -44.7383 C.3       4 UNK        -0.1800 
     54 N           5.1094  -14.4570  -43.3126 N.am      4 UNK        -0.5000 
     55 C           4.3119  -13.9610  -42.3580 C.2       3 UNK         0.5000 
     56 O           3.5942  -14.6599  -41.6421 O.2       3 UNK        -0.5000 
     57 CA          4.2724  -12.4260  -42.1930 C.3       3 UNK         0.1400 
     58 CB          5.3439  -11.9447  -41.1964 C.3       3 UNK        -0.1800 
     59 N           4.3291  -11.6790  -43.4594 N.am      3 UNK        -0.5000 
     60 C           5.3391  -11.5824  -44.3350 C.2       2 UNK         0.5000 
     61 O           6.4576  -12.0719  -44.1633 O.2       2 UNK        -0.5000 
     62 CA          5.0113  -10.9048  -45.6764 C.3       2 UNK         0.1400 
     63 CB          5.9328   -9.7020  -45.9320 C.3       2 UNK        -0.1800 
     64 N           5.1335  -11.8493  -46.7879 N.am      2 UNK        -0.5000 
     65 C           4.4392  -12.9884  -46.9330 C.2       1 UNK         0.5000 
     66 O           3.6068  -13.3799  -46.1113 O.2       1 UNK        -0.5000 
     67 C          -2.3068  -22.3601  -47.2074 C.2       11 UNK         0.5000 
     68 O          -2.4104  -23.1568  -48.1392 O.2       11 UNK        -0.5000 
     69 N          -3.0230  -22.4482  -46.0783 N.am      12 UNK        -0.5000 
     70 CA         -3.9155  -23.5581  -45.7490 C.3       12 UNK         0.1400 
     71 CB         -4.7839  -23.1876  -44.5382 C.3       12 UNK        -0.1800 
     72 C          -3.1484  -24.8698  -45.5113 C.2       12 UNK         0.5000 
     73 O          -3.5418  -25.9005  -46.0567 O.2       12 UNK        -0.5000 
     74 N          -2.0446  -24.8040  -44.7520 N.am      13 UNK        -0.5000 
     75 CA         -1.1524  -25.9359  -44.4795 C.3       13 UNK         0.1400 
     76 CB         -0.1071  -25.5264  -43.4313 C.3       13 UNK        -0.1800 
     77 C          -0.4684  -26.4882  -45.7458 C.2       13 UNK         0.5000 
     78 O          -0.3420  -27.7047  -45.8889 O.2       13 UNK        -0.5000 
     79 N          -0.0771  -25.5875  -46.6571 N.am      14 UNK        -0.5000 
     80 CA          0.4839  -25.9057  -47.9724 C.3       14 UNK         0.1400 
     81 CB          1.1995  -24.6570  -48.5134 C.3       14 UNK        -0.1800 
     82 C          -0.5649  -26.3955  -48.9932 C.2       14 UNK         0.5000 
     83 O          -0.1796  -26.8623  -50.0654 O.2       14 UNK        -0.5000 
     84 N          -1.8575  -26.2472  -48.6640 N.am      15 UNK        -0.5000 
     85 CA         -3.0402  -26.5172  -49.4906 C.3       15 UNK         0.1400 
     86 CB         -3.1208  -28.0019  -49.8994 C.3       15 UNK        -0.1800 
     87 C          -3.1919  -25.5613  -50.6934 C.2       15 UNK         0.5000 
     88 O          -4.0050  -25.8203  -51.5797 O.2       15 UNK        -0.5000 
     89 N          -2.4603  -24.4402  -50.6820 N.am      16 UNK        -0.5000 
     90 CA         -2.5498  -23.3601  -51.6624 C.3       16 UNK         0.1400 
     91 CB         -1.3640  -22.4033  -51.4681 C.3       16 UNK        -0.1800 
     92 C          -3.8844  -22.6041  -51.5562 C.2       16 UNK         0.5000 
     93 O          -4.4592  -22.2339  -52.5793 O.2       16 UNK        -0.5000 
     94 N          -4.3811  -22.4305  -50.3227 N.am      17 UNK        -0.5000 
     95 CA         -5.6948  -21.8423  -50.0533 C.3       17 UNK         0.1400 
     96 CB         -5.8210  -21.5125  -48.5591 C.3       17 UNK        -0.1800 
     97 C          -6.8455  -22.7585  -50.5137 C.2       17 UNK         0.5000 
     98 O          -7.8441  -22.2624  -51.0338 O.2       17 UNK        -0.5000 
     99 N          -6.6642  -24.0787  -50.3568 N.am      18 UNK        -0.5000 
    100 CA        -7.5990  -25.1106  -50.8142 C.3       18 UNK         0.1400 
    101 CB        -7.2426  -26.4532  -50.1575 C.3       18 UNK        -0.1800 
    102 C         -7.6263  -25.2368  -52.3495 C.2       18 UNK         0.5000 
    103 O         -8.6969  -25.4273  -52.9267 O.2       18 UNK        -0.5000 
    104 N         -6.4553  -25.0822  -52.9831 N.am      19 UNK        -0.5000 
    105 CA        -6.2762  -25.0231  -54.4363 C.3       19 UNK         0.1400 
    106 CB        -4.7911  -25.2517  -54.7592 C.3       19 UNK        -0.1800 
    107 C         -6.7664  -23.7029  -55.0699 C.2       19 UNK         0.5000 
    108 O         -6.8344  -23.6202  -56.2969 O.2       19 UNK        -0.5000 
    109 N         -7.0913  -22.7064  -54.2327 N.am      20 UNK        -0.5000 
    110 CA        -7.5482  -21.3580  -54.5728 C.3       20 UNK         0.1400 
    111 CB        -8.9117  -21.3966  -55.2948 C.3       20 UNK        -0.1800 
    112 C         -6.4748  -20.5480  -55.3260 C.2       20 UNK         0.5000 
    113 O         -6.7586  -19.9487  -56.3670 O.2       20 UNK        -0.5000 
    114 N         -5.2516  -20.5438  -54.7757 N.am      21 UNK        -0.5000 
    115 CA        -4.1206  -19.7382  -55.2386 C.3       21 UNK         0.1400 
    116 CB        -2.9026  -20.0085  -54.3413 C.3       21 UNK        -0.1800 
    117 C         -4.4415  -18.2309  -55.2623 C.2       21 UNK         0.5000 
    118 O         -5.1610  -17.7392  -54.3892 O.2       21 UNK        -0.5000 
    119 N         -3.8945  -17.5400  -56.2678 N.am      22 UNK        -0.5000 
    120 CA        -4.1032  -16.1111  -56.5697 C.3       22 UNK         0.1400 
    121 C         -5.5068  -15.7664  -57.1587 C.2       22 UNK         0.5000 
    122 N         -6.3792  -16.7297  -57.4325 N.am      22 UNK        -0.7600 
    123 O         -5.8022  -14.6002  -57.4061 O.2       22 UNK        -0.5000 
    124 C124       -3.7166  -15.1472  -55.4101 C.3       23 UNK        -0.0398 
    125 S125       -2.0684  -15.4760  -54.6924 S.3       23 UNK        -0.2404 
    126 C126       -2.5156  -15.6899  -52.9396 C.3       23 UNK        -0.0205 
    127 H127        7.0267  -12.4492  -51.1462 H         1 UNK         0.0600 
    128 H128        6.6291  -10.7500  -50.8769 H         1 UNK         0.0600 
    129 H129        5.6836  -11.7088  -52.0205 H         1 UNK         0.0600 
    130 H130        6.3661  -13.7172  -49.5025 H         1 UNK         0.3000 
    131 H131        5.4624  -14.5956  -47.7769 H         1 UNK         0.0600 
    132 H132        3.8856  -15.3974  -49.4388 H         1 UNK         0.0800 
    133 H133        3.1951  -15.3590  -47.8603 H         1 UNK         0.0800 
    134 H134        2.8885  -14.7705  -51.3493 H         1 UNK         0.0800 
    135 H135        1.7535  -13.4822  -51.6230 H         1 UNK         0.0800 
    136 H136       -0.3318  -14.1471  -52.4594 H         1 UNK         0.1150 
    137 H137       -2.0511  -17.9437  -51.4654 H         1 UNK         0.1150 
    138 H138        1.7369  -16.8118  -49.8102 H         1 UNK         0.1150 
    139 H139        0.9163  -19.1764  -49.6920 H         1 UNK         0.0800 
    140 H140       -0.6676  -19.5852  -50.2928 H         1 UNK         0.0800 
    141 H141       -2.3829  -20.1688  -48.8923 H         1 UNK         0.0800 
    142 H142       -2.7685  -19.6065  -47.2943 H         1 UNK         0.0800 
    143 H143       -0.5066  -21.5395  -47.9977 H         1 UNK         0.0600 
    144 H144       -0.8801  -20.0856  -45.5594 H         1 UNK         0.3000 
    145 H145        0.9393  -22.2965  -43.4484 H         1 UNK         0.0600 
    146 H146        2.7548  -21.0514  -44.4991 H         1 UNK         0.0600 
    147 H147        2.2174  -20.1401  -43.0958 H         1 UNK         0.0600 
    148 H148        1.7470  -19.6328  -44.7176 H         1 UNK         0.0600 
    149 H149       -0.3308  -19.6958  -43.1838 H         1 UNK         0.3000 
    150 H150       -3.5356  -20.9854  -42.2920 H         1 UNK         0.0600 
    151 H151       -1.3797  -19.8958  -40.4155 H         1 UNK         0.0600 
    152 H152       -2.4076  -21.2929  -40.1437 H         1 UNK         0.0600 
    153 H153       -3.1159  -19.6847  -40.1821 H         1 UNK         0.0600 
    154 H154       -2.3791  -18.3548  -42.2397 H         1 UNK         0.3000 
    155 H155       -2.2759  -17.5757  -45.3758 H         1 UNK         0.0600 
    156 H156       -5.2579  -17.2554  -44.7834 H         1 UNK         0.0600 
    157 H157       -4.5323  -17.9040  -46.2434 H         1 UNK         0.0600 
    158 H158       -4.3212  -16.2068  -45.8497 H         1 UNK         0.0600 
    159 H159       -1.7437  -16.2155  -43.7616 H         1 UNK         0.3000 
    160 H160       -2.6732  -14.0063  -42.3920 H         1 UNK         0.0600 
    161 H161       -3.4680  -15.5617  -39.8737 H         1 UNK         0.0600 
    162 H162       -4.3713  -14.2583  -40.6305 H         1 UNK         0.0600 
    163 H163       -2.8145  -13.9245  -39.8909 H         1 UNK         0.0600 
    164 H164       -0.5817  -14.6552  -42.0080 H         1 UNK         0.3000 
    165 H165        1.1671  -15.9171  -40.4177 H         1 UNK         0.0600 
    166 H166        0.8238  -18.2375  -39.6120 H         1 UNK         0.0600 
    167 H167        0.7277  -18.8323  -41.2638 H         1 UNK         0.0600 
    168 H168        2.2356  -18.1580  -40.6544 H         1 UNK         0.0600 
    169 H169        2.0537  -15.6924  -42.4296 H         1 UNK         0.3000 
    170 H170        1.8152  -17.3249  -45.5160 H         1 UNK         0.0600 
    171 H171        1.3224  -15.1151  -46.5360 H         1 UNK         0.0600 
    172 H172        0.7360  -14.5017  -44.9945 H         1 UNK         0.0600 
    173 H173       -0.1323  -15.7870  -45.8300 H         1 UNK         0.0600 
    174 H174        3.1749  -14.9323  -44.7614 H         1 UNK         0.3000 
    175 H175        5.7034  -16.3561  -42.7473 H         1 UNK         0.0600 
    176 H176        6.6027  -17.0017  -44.9961 H         1 UNK         0.0600 
    177 H177        6.0833  -15.4529  -45.6494 H         1 UNK         0.0600 
    178 H178        7.3333  -15.5158  -44.4090 H         1 UNK         0.0600 
    179 H179        5.6703  -13.7832  -43.8249 H         1 UNK         0.3000 
    180 H180        3.2991  -12.1895  -41.7600 H         1 UNK         0.0600 
    181 H181        6.3534  -12.1850  -41.5303 H         1 UNK         0.0600 
    182 H182        5.2054  -12.4164  -40.2228 H         1 UNK         0.0600 
    183 H183        5.2870  -10.8667  -41.0461 H         1 UNK         0.0600 
    184 H184        3.4436  -11.2813  -43.7412 H         1 UNK         0.3000 
    185 H185        3.9801  -10.5465  -45.6556 H         1 UNK         0.0600 
    186 H186        5.8555   -8.9734  -45.1240 H         1 UNK         0.0600 
    187 H187        6.9788  -10.0027  -46.0042 H         1 UNK         0.0600 
    188 H188        5.6661   -9.1905  -46.8572 H         1 UNK         0.0600 
    189 H189        5.8052  -11.6157  -47.5035 H         1 UNK         0.3000 
    190 H190       -2.9558  -21.6978  -45.3981 H         1 UNK         0.3000 
    191 H191       -4.5785  -23.7243  -46.5986 H         1 UNK         0.0600 
    192 H192       -5.3572  -22.2801  -44.7290 H         1 UNK         0.0600 
    193 H193       -5.4958  -23.9823  -44.3123 H         1 UNK         0.0600 
    194 H194       -4.1841  -23.0217  -43.6439 H         1 UNK         0.0600 
    195 H195       -1.8155  -23.9260  -44.2959 H         1 UNK         0.3000 
    196 H196       -1.7590  -26.7389  -44.0559 H         1 UNK         0.0600 
    197 H197        0.5422  -26.3656  -43.1790 H         1 UNK         0.0600 
    198 H198       -0.5826  -25.1939  -42.5084 H         1 UNK         0.0600 
    199 H199        0.5282  -24.7171  -43.7911 H         1 UNK         0.0600 
    200 H200       -0.1352  -24.6009  -46.4198 H         1 UNK         0.3000 
    201 H201        1.2226  -26.7008  -47.8528 H         1 UNK         0.0600 
    202 H202        1.6667  -24.8566  -49.4786 H         1 UNK         0.0600 
    203 H203        1.9871  -24.3289  -47.8349 H         1 UNK         0.0600 
    204 H204        0.5068  -23.8255  -48.6492 H         1 UNK         0.0600 
    205 H205       -2.0612  -25.8574  -47.7523 H         1 UNK         0.3000 
    206 H206       -3.8970  -26.3136  -48.8471 H         1 UNK         0.0600 
    207 H207       -3.0146  -28.6552  -49.0334 H         1 UNK         0.0600 
    208 H208       -4.0832  -28.2289  -50.3592 H         1 UNK         0.0600 
    209 H209       -2.3480  -28.2690  -50.6204 H         1 UNK         0.0600 
    210 H210       -1.9084  -24.2533  -49.8542 H         1 UNK         0.3000 
    211 H211       -2.4846  -23.7936  -52.6621 H         1 UNK         0.0600 
    212 H212       -0.4152  -22.9202  -51.6134 H         1 UNK         0.0600 
    213 H213       -1.3994  -21.5817  -52.1842 H         1 UNK         0.0600 
    214 H214       -1.3565  -21.9691  -50.4687 H         1 UNK         0.0600 
    215 H215       -3.8396  -22.7629  -49.5323 H         1 UNK         0.3000 
    216 H216       -5.7674  -20.9069  -50.6128 H         1 UNK         0.0600 
    217 H217       -5.8255  -22.4134  -47.9478 H         1 UNK         0.0600 
    218 H218       -6.7517  -20.9807  -48.3580 H         1 UNK         0.0600 
    219 H219       -5.0044  -20.8755  -48.2193 H         1 UNK         0.0600 
    220 H220       -5.8022  -24.3989  -49.9442 H         1 UNK         0.3000 
    221 H221       -8.6020  -24.8294  -50.4858 H         1 UNK         0.0600 
    222 H222       -6.2523  -26.7999  -50.4520 H         1 UNK         0.0600 
    223 H223       -7.2634  -26.3793  -49.0701 H         1 UNK         0.0600 
    224 H224       -7.9566  -27.2264  -50.4438 H         1 UNK         0.0600 
    225 H225       -5.6075  -25.0239  -52.4279 H         1 UNK         0.3000 
    226 H226       -6.8525  -25.8342  -54.8859 H         1 UNK         0.0600 
    227 H227       -4.4409  -26.2029  -54.3580 H         1 UNK         0.0600 
    228 H228       -4.6214  -25.2722  -55.8364 H         1 UNK         0.0600 
    229 H229       -4.1657  -24.4613  -54.3438 H         1 UNK         0.0600 
    230 H230       -6.9654  -22.8801  -53.2452 H         1 UNK         0.3000 
    231 H231       -7.7005  -20.8441  -53.6225 H         1 UNK         0.0600 
    232 H232       -8.8389  -21.8515  -56.2829 H         1 UNK         0.0600 
    233 H233       -9.3083  -20.3897  -55.4290 H         1 UNK         0.0600 
    234 H234       -9.6457  -21.9602  -54.7188 H         1 UNK         0.0600 
    235 H235       -5.0890  -21.1000  -53.9397 H         1 UNK         0.3000 
    236 H236       -3.8837  -20.0629  -56.2537 H         1 UNK         0.0600 
    237 H237       -3.1073  -19.7529  -53.3008 H         1 UNK         0.0600 
    238 H238       -2.6117  -21.0583  -54.3797 H         1 UNK         0.0600 
    239 H239       -2.0406  -19.4204  -54.6594 H         1 UNK         0.0600 
    240 H240       -3.3166  -18.0336  -56.9330 H         1 UNK         0.3000 
    241 H241       -3.4124  -15.9039  -57.3877 H         1 UNK         0.0600 
    242 H242       -7.2753  -16.4866  -57.8247 H         1 UNK         0.3800 
    243 H243       -6.1768  -17.6948  -57.2144 H         1 UNK         0.3800 
    244 H244       -3.7114  -14.1163  -55.7678 H         1 UNK         0.0800 
    245 H245       -4.4737  -15.1808  -54.6254 H         1 UNK         0.0800 
    246 H246       -2.9787  -14.7737  -52.5706 H         1 UNK         0.0800 
    247 H247       -3.2692  -16.4744  -52.8561 H         1 UNK         0.0800 
@<TRIPOS>BOND
     1    1    2 1    
     2    1  127 1    
     3    1  128 1    
     4    1  129 1    
     5    2    3 2    
     6    2    4 am   BACKBONE|DICT|INTERRES
     7    4    5 1    
     8    4  130 1    
     9    5    6 1    
    10    5   65 1    
    11    5  131 1    
    12    6    7 1    
    13    6  132 1    
    14    6  133 1    
    15    7    8 1    
    16    8    9 1    
    17    8  134 1    
    18    8  135 1    
    19    9   10 ar   
    20    9   14 ar   
    21   10   11 ar   
    22   10  136 1    
    23   11   12 ar   
    24   11  126 1    
    25   12   13 ar   
    26   12  137 1    
    27   13   14 ar   
    28   13   15 1    
    29   14  138 1    
    30   15   16 1    
    31   15  139 1    
    32   15  140 1    
    33   16   17 1    
    34   17   18 1    
    35   17  141 1    
    36   17  142 1    
    37   18   19 1    
    38   18   67 1    
    39   18  143 1    
    40   19   20 am   BACKBONE|DICT|INTERRES
    41   19  144 1    
    42   20   21 2    
    43   20   22 1    
    44   22   23 1    
    45   22   24 1    
    46   22  145 1    
    47   23  146 1    
    48   23  147 1    
    49   23  148 1    
    50   24   25 am   BACKBONE|DICT|INTERRES
    51   24  149 1    
    52   25   26 2    
    53   25   27 1    
    54   27   28 1    
    55   27   29 1    
    56   27  150 1    
    57   28  151 1    
    58   28  152 1    
    59   28  153 1    
    60   29   30 am   BACKBONE|DICT|INTERRES
    61   29  154 1    
    62   30   31 2    
    63   30   32 1    
    64   32   33 1    
    65   32   34 1    
    66   32  155 1    
    67   33  156 1    
    68   33  157 1    
    69   33  158 1    
    70   34   35 am   BACKBONE|DICT|INTERRES
    71   34  159 1    
    72   35   36 2    
    73   35   37 1    
    74   37   38 1    
    75   37   39 1    
    76   37  160 1    
    77   38  161 1    
    78   38  162 1    
    79   38  163 1    
    80   39   40 am   BACKBONE|DICT|INTERRES
    81   39  164 1    
    82   40   41 2    
    83   40   42 1    
    84   42   43 1    
    85   42   44 1    
    86   42  165 1    
    87   43  166 1    
    88   43  167 1    
    89   43  168 1    
    90   44   45 am   BACKBONE|DICT|INTERRES
    91   44  169 1    
    92   45   46 2    
    93   45   47 1    
    94   47   48 1    
    95   47   49 1    
    96   47  170 1    
    97   48  171 1    
    98   48  172 1    
    99   48  173 1    
   100   49   50 am   BACKBONE|DICT|INTERRES
   101   49  174 1    
   102   50   51 2    
   103   50   52 1    
   104   52   53 1    
   105   52   54 1    
   106   52  175 1    
   107   53  176 1    
   108   53  177 1    
   109   53  178 1    
   110   54   55 am   BACKBONE|DICT|INTERRES
   111   54  179 1    
   112   55   56 2    
   113   55   57 1    
   114   57   58 1    
   115   57   59 1    
   116   57  180 1    
   117   58  181 1    
   118   58  182 1    
   119   58  183 1    
   120   59   60 am   BACKBONE|DICT|INTERRES
   121   59  184 1    
   122   60   61 2    
   123   60   62 1    
   124   62   63 1    
   125   62   64 1    
   126   62  185 1    
   127   63  186 1    
   128   63  187 1    
   129   63  188 1    
   130   64   65 am   BACKBONE|DICT|INTERRES
   131   64  189 1    
   132   65   66 2    
   133   67   68 2    
   134   67   69 am   BACKBONE|DICT|INTERRES
   135   69   70 1    
   136   69  190 1    
   137   70   71 1    
   138   70   72 1    
   139   70  191 1    
   140   71  192 1    
   141   71  193 1    
   142   71  194 1    
   143   72   73 2    
   144   72   74 am   BACKBONE|DICT|INTERRES
   145   74   75 1    
   146   74  195 1    
   147   75   76 1    
   148   75   77 1    
   149   75  196 1    
   150   76  197 1    
   151   76  198 1    
   152   76  199 1    
   153   77   78 2    
   154   77   79 am   BACKBONE|DICT|INTERRES
   155   79   80 1    
   156   79  200 1    
   157   80   81 1    
   158   80   82 1    
   159   80  201 1    
   160   81  202 1    
   161   81  203 1    
   162   81  204 1    
   163   82   83 2    
   164   82   84 am   BACKBONE|DICT|INTERRES
   165   84   85 1    
   166   84  205 1    
   167   85   86 1    
   168   85   87 1    
   169   85  206 1    
   170   86  207 1    
   171   86  208 1    
   172   86  209 1    
   173   87   88 2    
   174   87   89 am   BACKBONE|DICT|INTERRES
   175   89   90 1    
   176   89  210 1    
   177   90   91 1    
   178   90   92 1    
   179   90  211 1    
   180   91  212 1    
   181   91  213 1    
   182   91  214 1    
   183   92   93 2    
   184   92   94 am   BACKBONE|DICT|INTERRES
   185   94   95 1    
   186   94  215 1    
   187   95   96 1    
   188   95   97 1    
   189   95  216 1    
   190   96  217 1    
   191   96  218 1    
   192   96  219 1    
   193   97   98 2    
   194   97   99 am   BACKBONE|DICT|INTERRES
   195   99  100 1    
   196   99  220 1    
   197  100  101 1    
   198  100  102 1    
   199  100  221 1    
   200  101  222 1    
   201  101  223 1    
   202  101  224 1    
   203  102  103 2    
   204  102  104 am   BACKBONE|DICT|INTERRES
   205  104  105 1    
   206  104  225 1    
   207  105  106 1    
   208  105  107 1    
   209  105  226 1    
   210  106  227 1    
   211  106  228 1    
   212  106  229 1    
   213  107  108 2    
   214  107  109 am   BACKBONE|DICT|INTERRES
   215  109  110 1    
   216  109  230 1    
   217  110  111 1    
   218  110  112 1    
   219  110  231 1    
   220  111  232 1    
   221  111  233 1    
   222  111  234 1    
   223  112  113 2    
   224  112  114 am   BACKBONE|DICT|INTERRES
   225  114  115 1    
   226  114  235 1    
   227  115  116 1    
   228  115  117 1    
   229  115  236 1    
   230  116  237 1    
   231  116  238 1    
   232  116  239 1    
   233  117  118 2    
   234  117  119 am   BACKBONE|DICT|INTERRES
   235  119  120 1    
   236  119  240 1    
   237  120  121 1    
   238  120  124 1    
   239  120  241 1    
   240  121  122 am   BACKBONE|DICT|INTERRES
   241  121  123 2    
   242  122  242 1    
   243  122  243 1    
   244  124  125 1    
   245  124  244 1    
   246  124  245 1    
   247  125  126 1    
   248  126  246 1    
   249  126  247 1    
@<TRIPOS>SUBSTRUCTURE
     1 UNK         1 GROUP             0       ****    0 ROOT    
