@<TRIPOS>MOLECULE
3R540
247   249    1
SMALL
USER_CHARGES


@<TRIPOS>ATOM
      1 CA          4.2327  -16.3291  -45.4225 C.3       0 UNK        -0.1800 
      2 C           3.5633  -14.9639  -45.4828 C.2       0 UNK         0.5000 
      3 O           3.3296  -14.3457  -44.4456 O.2       0 UNK        -0.5000 
      4 N           3.2780  -14.4799  -46.6977 N.am      1 UNK        -0.5000 
      5 CA          2.5631  -13.2260  -46.9881 C.3       1 UNK         0.1400 
      6 C6          2.2920  -13.0548  -48.5037 C.3       23 UNK        -0.0398 
      7 S7          1.3847  -14.4725  -49.2065 S.3       23 UNK        -0.2404 
      8 C8          2.6740  -15.2909  -50.1997 C.3       23 UNK        -0.0205 
      9 C9          2.3337  -16.7531  -50.4495 C.ar      23 UNK        -0.0193 
     10 C10         1.2001  -17.0928  -51.1931 C.ar      23 UNK        -0.1150 
     11 C11         0.8593  -18.4293  -51.4177 C.ar      23 UNK        -0.0193 
     12 C12         1.6765  -19.4335  -50.8796 C.ar      23 UNK        -0.1150 
     13 C13         2.8293  -19.1122  -50.1551 C.ar      23 UNK        -0.0193 
     14 C14         3.1517  -17.7678  -49.9440 C.ar      23 UNK        -0.1150 
     15 C15         3.7375  -20.2291  -49.6472 C.3       23 UNK        -0.0205 
     16 S16         4.2413  -20.0713  -47.8982 S.3       23 UNK        -0.2404 
     17 C17         2.6496  -19.9748  -47.0155 C.3       23 UNK        -0.0398 
     18 CA          2.0901  -21.3500  -46.5639 C.3       11 UNK         0.1400 
     19 N           1.2401  -21.2180  -45.3750 N.am      11 UNK        -0.5000 
     20 C           0.6918  -22.2292  -44.6869 C.2       10 UNK         0.5000 
     21 O           0.9160  -23.4147  -44.9275 O.2       10 UNK        -0.5000 
     22 CA         -0.3011  -21.8571  -43.5682 C.3       10 UNK         0.1400 
     23 CB          0.4357  -21.5442  -42.2574 C.3       10 UNK        -0.1800 
     24 N          -1.1583  -20.7277  -43.9345 N.am      10 UNK        -0.5000 
     25 C          -2.1308  -20.7850  -44.8563 C.2       9 UNK         0.5000 
     26 O          -2.4641  -21.8181  -45.4349 O.2       9 UNK        -0.5000 
     27 CA         -2.8286  -19.4611  -45.2231 C.3       9 UNK         0.1400 
     28 CB         -3.9917  -19.1709  -44.2635 C.3       9 UNK        -0.1800 
     29 N          -1.9147  -18.3174  -45.2464 N.am      9 UNK        -0.5000 
     30 C          -0.8790  -18.1915  -46.0882 C.2       8 UNK         0.5000 
     31 O          -0.6078  -19.0130  -46.9614 O.2       8 UNK        -0.5000 
     32 CA          0.0409  -16.9751  -45.8838 C.3       8 UNK         0.1400 
     33 CB         -0.6013  -15.7195  -46.4869 C.3       8 UNK        -0.1800 
     34 N           0.3635  -16.7467  -44.4729 N.am      8 UNK        -0.5000 
     35 C           0.9984  -17.6269  -43.6849 C.2       7 UNK         0.5000 
     36 O           1.4469  -18.6971  -44.0888 O.2       7 UNK        -0.5000 
     37 CA          1.0936  -17.2977  -42.1856 C.3       7 UNK         0.1400 
     38 CB          2.2889  -16.3869  -41.8771 C.3       7 UNK        -0.1800 
     39 N          -0.1373  -16.6894  -41.6875 N.am      7 UNK        -0.5000 
     40 C          -1.2954  -17.3481  -41.5412 C.2       6 UNK         0.5000 
     41 O          -1.4270  -18.5541  -41.7505 O.2       6 UNK        -0.5000 
     42 CA         -2.5173  -16.5021  -41.1380 C.3       6 UNK         0.1400 
     43 CB         -2.5714  -16.3199  -39.6139 C.3       6 UNK        -0.1800 
     44 N          -2.5166  -15.1877  -41.7843 N.am      6 UNK        -0.5000 
     45 C          -2.6813  -14.9946  -43.1011 C.2       5 UNK         0.5000 
     46 O          -2.9248  -15.9037  -43.8935 O.2       5 UNK        -0.5000 
     47 CA         -2.4930  -13.5554  -43.6228 C.3       5 UNK         0.1400 
     48 CB         -3.8231  -12.7891  -43.5836 C.3       5 UNK        -0.1800 
     49 N          -1.4774  -12.8081  -42.8734 N.am      5 UNK        -0.5000 
     50 C          -0.1723  -13.1098  -42.8641 C.2       4 UNK         0.5000 
     51 O           0.3205  -14.0153  -43.5377 O.2       4 UNK        -0.5000 
     52 CA          0.6977  -12.3300  -41.8703 C.3       4 UNK         0.1400 
     53 CB          0.4385  -12.8558  -40.4409 C.3       4 UNK        -0.1800 
     54 N           2.1159  -12.4656  -42.2073 N.am      4 UNK        -0.5000 
     55 C           3.0976  -11.7464  -41.6449 C.2       3 UNK         0.5000 
     56 O           2.8998  -10.8281  -40.8477 O.2       3 UNK        -0.5000 
     57 CA          4.5423  -12.1011  -42.0259 C.3       3 UNK         0.1400 
     58 CB          4.9259  -13.5087  -41.5388 C.3       3 UNK        -0.1800 
     59 N           4.7478  -12.0004  -43.4672 N.am      3 UNK        -0.5000 
     60 C           5.1974  -10.9027  -44.0926 C.2       2 UNK         0.5000 
     61 O           5.4864   -9.8565  -43.5098 O.2       2 UNK        -0.5000 
     62 CA          5.3797  -10.9755  -45.6227 C.3       2 UNK         0.1400 
     63 CB          6.8571  -11.2075  -45.9758 C.3       2 UNK        -0.1800 
     64 N           4.5772  -12.0236  -46.2508 N.am      2 UNK        -0.5000 
     65 C           3.2505  -11.9644  -46.4245 C.2       1 UNK         0.5000 
     66 O           2.5700  -10.9766  -46.1450 O.2       1 UNK        -0.5000 
     67 C           1.3303  -22.0450  -47.7132 C.2       11 UNK         0.5000 
     68 O           1.8318  -23.0003  -48.3063 O.2       11 UNK        -0.5000 
     69 N           0.1069  -21.5693  -47.9682 N.am      12 UNK        -0.5000 
     70 CA         -0.7942  -22.0363  -49.0151 C.3       12 UNK         0.1400 
     71 CB         -1.6877  -20.8617  -49.4328 C.3       12 UNK        -0.1800 
     72 C          -1.6457  -23.2533  -48.6051 C.2       12 UNK         0.5000 
     73 O          -2.6375  -23.5366  -49.2798 O.2       12 UNK        -0.5000 
     74 N          -1.2801  -23.9634  -47.5274 N.am      13 UNK        -0.5000 
     75 CA         -1.9957  -25.1399  -47.0183 C.3       13 UNK         0.1400 
     76 CB         -1.3614  -25.6043  -45.7011 C.3       13 UNK        -0.1800 
     77 C          -2.0648  -26.3022  -48.0283 C.2       13 UNK         0.5000 
     78 O          -3.0683  -27.0140  -48.0675 O.2       13 UNK        -0.5000 
     79 N          -1.0332  -26.4249  -48.8763 N.am      14 UNK        -0.5000 
     80 CA         -0.9750  -27.3558  -50.0082 C.3       14 UNK         0.1400 
     81 CB          0.4555  -27.3637  -50.5679 C.3       14 UNK        -0.1800 
     82 C          -1.9892  -27.0309  -51.1270 C.2       14 UNK         0.5000 
     83 O          -2.3364  -27.9184  -51.9062 O.2       14 UNK        -0.5000 
     84 N          -2.4599  -25.7781  -51.1684 N.am      15 UNK        -0.5000 
     85 CA         -3.5041  -25.2707  -52.0559 C.3       15 UNK         0.1400 
     86 CB         -3.0027  -23.9632  -52.6942 C.3       15 UNK        -0.1800 
     87 C          -4.8257  -25.0629  -51.2858 C.2       15 UNK         0.5000 
     88 O          -5.6360  -24.2272  -51.6875 O.2       15 UNK        -0.5000 
     89 N          -5.0069  -25.8006  -50.1778 N.am      16 UNK        -0.5000 
     90 CA         -6.1670  -25.7996  -49.2798 C.3       16 UNK         0.1400 
     91 CB         -7.3952  -26.4148  -49.9805 C.3       16 UNK        -0.1800 
     92 C          -6.4474  -24.4191  -48.6494 C.2       16 UNK         0.5000 
     93 O          -7.6012  -23.9949  -48.5724 O.2       16 UNK        -0.5000 
     94 N          -5.3682  -23.7503  -48.2171 N.am      17 UNK        -0.5000 
     95 CA         -5.3235  -22.3968  -47.6547 C.3       17 UNK         0.1400 
     96 CB         -6.1282  -22.2930  -46.3425 C.3       17 UNK        -0.1800 
     97 C          -5.7006  -21.3357  -48.7059 C.2       17 UNK         0.5000 
     98 O          -6.5149  -20.4506  -48.4389 O.2       17 UNK        -0.5000 
     99 N          -5.0782  -21.4646  -49.8863 N.am      18 UNK        -0.5000 
    100 CA        -5.2258  -20.6138  -51.0694 C.3       18 UNK         0.1400 
    101 CB        -4.7096  -19.1829  -50.8015 C.3       18 UNK        -0.1800 
    102 C         -6.6478  -20.6384  -51.6615 C.2       18 UNK         0.5000 
    103 O         -7.2241  -19.5860  -51.9466 O.2       18 UNK        -0.5000 
    104 N         -7.1798  -21.8462  -51.8860 N.am      19 UNK        -0.5000 
    105 CA        -8.4559  -22.0908  -52.5599 C.3       19 UNK         0.1400 
    106 CB        -8.9800  -23.4757  -52.1445 C.3       19 UNK        -0.1800 
    107 C         -8.2994  -21.9517  -54.0892 C.2       19 UNK         0.5000 
    108 O         -8.4199  -22.9360  -54.8205 O.2       19 UNK        -0.5000 
    109 N         -7.9661  -20.7324  -54.5359 N.am      20 UNK        -0.5000 
    110 CA        -7.6990  -20.2722  -55.9077 C.3       20 UNK         0.1400 
    111 CB        -8.9241  -20.4799  -56.8176 C.3       20 UNK        -0.1800 
    112 C         -6.4243  -20.8513  -56.5577 C.2       20 UNK         0.5000 
    113 O         -5.7464  -20.1325  -57.2933 O.2       20 UNK        -0.5000 
    114 N         -6.0957  -22.1150  -56.2609 N.am      21 UNK        -0.5000 
    115 CA        -4.9694  -22.8789  -56.8079 C.3       21 UNK         0.1400 
    116 CB        -5.0493  -24.3187  -56.2760 C.3       21 UNK        -0.1800 
    117 C         -3.5759  -22.2747  -56.5350 C.2       21 UNK         0.5000 
    118 O         -2.6430  -22.5496  -57.2907 O.2       21 UNK        -0.5000 
    119 N         -3.4631  -21.4565  -55.4810 N.am      22 UNK        -0.5000 
    120 CA        -2.2607  -20.6738  -55.1494 C.3       22 UNK         0.1400 
    121 C         -2.0886  -19.3772  -56.0003 C.2       22 UNK         0.5000 
    122 N         -3.0520  -18.9799  -56.8249 N.am      22 UNK        -0.7600 
    123 O         -1.0552  -18.7198  -55.9230 O.2       22 UNK        -0.5000 
    124 C124       -2.1944  -20.3858  -53.6258 C.3       23 UNK        -0.0398 
    125 S125       -0.4997  -20.3977  -52.9523 S.3       23 UNK        -0.2404 
    126 C126       -0.4112  -18.7289  -52.2169 C.3       23 UNK        -0.0205 
    127 H127        3.6566  -17.0048  -44.7927 H         1 UNK         0.0600 
    128 H128        5.2316  -16.2369  -44.9970 H         1 UNK         0.0600 
    129 H129        4.3210  -16.7827  -46.4101 H         1 UNK         0.0600 
    130 H130        3.4914  -15.0438  -47.5063 H         1 UNK         0.3000 
    131 H131        1.6013  -13.2871  -46.4778 H         1 UNK         0.0600 
    132 H132        3.2235  -12.9038  -49.0521 H         1 UNK         0.0800 
    133 H133        1.6892  -12.1621  -48.6812 H         1 UNK         0.0800 
    134 H134        2.7776  -14.7725  -51.1539 H         1 UNK         0.0800 
    135 H135        3.6382  -15.2088  -49.6965 H         1 UNK         0.0800 
    136 H136        0.5714  -16.3064  -51.5872 H         1 UNK         0.1150 
    137 H137        1.4271  -20.4735  -51.0294 H         1 UNK         0.1150 
    138 H138        4.0418  -17.5150  -49.3854 H         1 UNK         0.1150 
    139 H139        3.2682  -21.2028  -49.7902 H         1 UNK         0.0800 
    140 H140        4.6381  -20.2401  -50.2621 H         1 UNK         0.0800 
    141 H141        1.9244  -19.4053  -47.5977 H         1 UNK         0.0800 
    142 H142        2.8538  -19.3602  -46.1392 H         1 UNK         0.0800 
    143 H143        2.9264  -21.9918  -46.2789 H         1 UNK         0.0600 
    144 H144        1.0646  -20.2703  -45.0518 H         1 UNK         0.3000 
    145 H145       -0.9424  -22.7235  -43.3931 H         1 UNK         0.0600 
    146 H146       -0.2666  -21.3170  -41.4551 H         1 UNK         0.0600 
    147 H147        1.0343  -22.3970  -41.9352 H         1 UNK         0.0600 
    148 H148        1.1088  -20.6938  -42.3623 H         1 UNK         0.0600 
    149 H149       -0.9824  -19.8471  -43.4660 H         1 UNK         0.3000 
    150 H150       -3.2402  -19.5761  -46.2281 H         1 UNK         0.0600 
    151 H151       -4.5462  -18.2850  -44.5739 H         1 UNK         0.0600 
    152 H152       -4.6951  -20.0036  -44.2368 H         1 UNK         0.0600 
    153 H153       -3.6421  -19.0056  -43.2445 H         1 UNK         0.0600 
    154 H154       -2.1065  -17.5641  -44.5929 H         1 UNK         0.3000 
    155 H155        0.9787  -17.1647  -46.4103 H         1 UNK         0.0600 
    156 H156       -1.5876  -15.5227  -46.0710 H         1 UNK         0.0600 
    157 H157       -0.7250  -15.8313  -47.5643 H         1 UNK         0.0600 
    158 H158        0.0127  -14.8389  -46.3142 H         1 UNK         0.0600 
    159 H159        0.1068  -15.8439  -44.0842 H         1 UNK         0.3000 
    160 H160        1.2483  -18.2382  -41.6525 H         1 UNK         0.0600 
    161 H161        2.4104  -16.2454  -40.8032 H         1 UNK         0.0600 
    162 H162        2.1729  -15.4046  -42.3299 H         1 UNK         0.0600 
    163 H163        3.2173  -16.8153  -42.2565 H         1 UNK         0.0600 
    164 H164       -0.1240  -15.6925  -41.5405 H         1 UNK         0.3000 
    165 H165       -3.4149  -17.0393  -41.4519 H         1 UNK         0.0600 
    166 H166       -3.4703  -15.7814  -39.3133 H         1 UNK         0.0600 
    167 H167       -2.5872  -17.2855  -39.1066 H         1 UNK         0.0600 
    168 H168       -1.7079  -15.7672  -39.2414 H         1 UNK         0.0600 
    169 H169       -2.3398  -14.3874  -41.1961 H         1 UNK         0.3000 
    170 H170       -2.1669  -13.6184  -44.6627 H         1 UNK         0.0600 
    171 H171       -4.5917  -13.3134  -44.1531 H         1 UNK         0.0600 
    172 H172       -4.1924  -12.6720  -42.5640 H         1 UNK         0.0600 
    173 H173       -3.7186  -11.7955  -44.0198 H         1 UNK         0.0600 
    174 H174       -1.8122  -12.0521  -42.2932 H         1 UNK         0.3000 
    175 H175        0.4206  -11.2757  -41.9323 H         1 UNK         0.0600 
    176 H176        0.7649  -13.8905  -40.3298 H         1 UNK         0.0600 
    177 H177        0.9620  -12.2627  -39.6916 H         1 UNK         0.0600 
    178 H178       -0.6207  -12.8154  -40.1846 H         1 UNK         0.0600 
    179 H179        2.3311  -13.1762  -42.9021 H         1 UNK         0.3000 
    180 H180        5.2007  -11.3974  -41.5117 H         1 UNK         0.0600 
    181 H181        4.3432  -14.2875  -42.0283 H         1 UNK         0.0600 
    182 H182        4.7650  -13.6066  -40.4646 H         1 UNK         0.0600 
    183 H183        5.9790  -13.7145  -41.7298 H         1 UNK         0.0600 
    184 H184        4.4525  -12.8020  -44.0153 H         1 UNK         0.3000 
    185 H185        5.0776  -10.0113  -46.0371 H         1 UNK         0.0600 
    186 H186        7.4882  -10.4260  -45.5503 H         1 UNK         0.0600 
    187 H187        7.2168  -12.1638  -45.5939 H         1 UNK         0.0600 
    188 H188        7.0118  -11.1960  -47.0549 H         1 UNK         0.0600 
    189 H189        5.0561  -12.8763  -46.5011 H         1 UNK         0.3000 
    190 H190       -0.2136  -20.7574  -47.4436 H         1 UNK         0.3000 
    191 H191       -0.2018  -22.3327  -49.8830 H         1 UNK         0.0600 
    192 H192       -1.0958  -19.9704  -49.6362 H         1 UNK         0.0600 
    193 H193       -2.2396  -21.0995  -50.3419 H         1 UNK         0.0600 
    194 H194       -2.4087  -20.6076  -48.6548 H         1 UNK         0.0600 
    195 H195       -0.4718  -23.6607  -47.0012 H         1 UNK         0.3000 
    196 H196       -3.0209  -24.8327  -46.8035 H         1 UNK         0.0600 
    197 H197       -1.8645  -26.4910  -45.3133 H         1 UNK         0.0600 
    198 H198       -1.4390  -24.8305  -44.9373 H         1 UNK         0.0600 
    199 H199       -0.3064  -25.8510  -45.8265 H         1 UNK         0.0600 
    200 H200       -0.2529  -25.7926  -48.7701 H         1 UNK         0.3000 
    201 H201       -1.2055  -28.3564  -49.6366 H         1 UNK         0.0600 
    202 H202        1.1758  -27.6638  -49.8066 H         1 UNK         0.0600 
    203 H203        0.7476  -26.3803  -50.9387 H         1 UNK         0.0600 
    204 H204        0.5479  -28.0677  -51.3960 H         1 UNK         0.0600 
    205 H205       -2.1622  -25.1252  -50.4530 H         1 UNK         0.3000 
    206 H206       -3.7096  -25.9846  -52.8555 H         1 UNK         0.0600 
    207 H207       -2.0964  -24.1308  -53.2762 H         1 UNK         0.0600 
    208 H208       -3.7445  -23.5373  -53.3692 H         1 UNK         0.0600 
    209 H209       -2.7776  -23.2127  -51.9369 H         1 UNK         0.0600 
    210 H210       -4.2575  -26.4220  -49.9013 H         1 UNK         0.3000 
    211 H211       -5.9064  -26.4567  -48.4488 H         1 UNK         0.0600 
    212 H212       -7.7278  -25.8075  -50.8205 H         1 UNK         0.0600 
    213 H213       -8.2349  -26.5092  -49.2911 H         1 UNK         0.0600 
    214 H214       -7.1731  -27.4130  -50.3577 H         1 UNK         0.0600 
    215 H215       -4.4611  -24.1511  -48.4218 H         1 UNK         0.3000 
    216 H216       -4.2798  -22.2081  -47.4021 H         1 UNK         0.0600 
    217 H217       -5.9862  -21.3164  -45.8795 H         1 UNK         0.0600 
    218 H218       -5.8025  -23.0431  -45.6220 H         1 UNK         0.0600 
    219 H219       -7.1984  -22.4213  -46.5044 H         1 UNK         0.0600 
    220 H220       -4.4506  -22.2520  -49.9890 H         1 UNK         0.3000 
    221 H221       -4.5864  -21.0563  -51.8309 H         1 UNK         0.0600 
    222 H222       -5.3280  -18.6582  -50.0729 H         1 UNK         0.0600 
    223 H223       -3.6874  -19.1850  -50.4281 H         1 UNK         0.0600 
    224 H224       -4.7137  -18.5899  -51.7167 H         1 UNK         0.0600 
    225 H225       -6.6261  -22.6757  -51.6774 H         1 UNK         0.3000 
    226 H226       -9.1843  -21.3472  -52.2299 H         1 UNK         0.0600 
    227 H227       -9.0754  -23.5535  -51.0612 H         1 UNK         0.0600 
    228 H228       -9.9640  -23.6661  -52.5743 H         1 UNK         0.0600 
    229 H229       -8.3151  -24.2715  -52.4811 H         1 UNK         0.0600 
    230 H230       -7.8313  -20.0260  -53.8184 H         1 UNK         0.3000 
    231 H231       -7.5362  -19.1965  -55.8242 H         1 UNK         0.0600 
    232 H232       -9.1409  -21.5364  -56.9773 H         1 UNK         0.0600 
    233 H233       -8.7593  -20.0316  -57.7982 H         1 UNK         0.0600 
    234 H234       -9.8138  -20.0146  -56.3934 H         1 UNK         0.0600 
    235 H235       -6.7522  -22.6281  -55.6793 H         1 UNK         0.3000 
    236 H236       -5.0942  -22.9097  -57.8920 H         1 UNK         0.0600 
    237 H237       -5.9708  -24.8046  -56.5975 H         1 UNK         0.0600 
    238 H238       -4.2193  -24.9230  -56.6446 H         1 UNK         0.0600 
    239 H239       -5.0216  -24.3486  -55.1867 H         1 UNK         0.0600 
    240 H240       -4.2918  -21.2698  -54.9382 H         1 UNK         0.3000 
    241 H241       -1.4039  -21.3020  -55.4011 H         1 UNK         0.0600 
    242 H242       -2.9145  -18.1430  -57.3689 H         1 UNK         0.3800 
    243 H243       -3.9173  -19.5003  -56.9278 H         1 UNK         0.3800 
    244 H244       -2.7099  -19.4576  -53.3732 H         1 UNK         0.0800 
    245 H245       -2.7188  -21.1665  -53.0807 H         1 UNK         0.0800 
    246 H246       -1.2700  -18.5803  -51.5617 H         1 UNK         0.0800 
    247 H247       -0.5083  -18.0027  -53.0258 H         1 UNK         0.0800 
@<TRIPOS>BOND
     1    1    2 1    
     2    1  127 1    
     3    1  128 1    
     4    1  129 1    
     5    2    3 2    
     6    2    4 am   BACKBONE|DICT|INTERRES
     7    4    5 1    
     8    4  130 1    
     9    5    6 1    
    10    5   65 1    
    11    5  131 1    
    12    6    7 1    
    13    6  132 1    
    14    6  133 1    
    15    7    8 1    
    16    8    9 1    
    17    8  134 1    
    18    8  135 1    
    19    9   10 ar   
    20    9   14 ar   
    21   10   11 ar   
    22   10  136 1    
    23   11   12 ar   
    24   11  126 1    
    25   12   13 ar   
    26   12  137 1    
    27   13   14 ar   
    28   13   15 1    
    29   14  138 1    
    30   15   16 1    
    31   15  139 1    
    32   15  140 1    
    33   16   17 1    
    34   17   18 1    
    35   17  141 1    
    36   17  142 1    
    37   18   19 1    
    38   18   67 1    
    39   18  143 1    
    40   19   20 am   BACKBONE|DICT|INTERRES
    41   19  144 1    
    42   20   21 2    
    43   20   22 1    
    44   22   23 1    
    45   22   24 1    
    46   22  145 1    
    47   23  146 1    
    48   23  147 1    
    49   23  148 1    
    50   24   25 am   BACKBONE|DICT|INTERRES
    51   24  149 1    
    52   25   26 2    
    53   25   27 1    
    54   27   28 1    
    55   27   29 1    
    56   27  150 1    
    57   28  151 1    
    58   28  152 1    
    59   28  153 1    
    60   29   30 am   BACKBONE|DICT|INTERRES
    61   29  154 1    
    62   30   31 2    
    63   30   32 1    
    64   32   33 1    
    65   32   34 1    
    66   32  155 1    
    67   33  156 1    
    68   33  157 1    
    69   33  158 1    
    70   34   35 am   BACKBONE|DICT|INTERRES
    71   34  159 1    
    72   35   36 2    
    73   35   37 1    
    74   37   38 1    
    75   37   39 1    
    76   37  160 1    
    77   38  161 1    
    78   38  162 1    
    79   38  163 1    
    80   39   40 am   BACKBONE|DICT|INTERRES
    81   39  164 1    
    82   40   41 2    
    83   40   42 1    
    84   42   43 1    
    85   42   44 1    
    86   42  165 1    
    87   43  166 1    
    88   43  167 1    
    89   43  168 1    
    90   44   45 am   BACKBONE|DICT|INTERRES
    91   44  169 1    
    92   45   46 2    
    93   45   47 1    
    94   47   48 1    
    95   47   49 1    
    96   47  170 1    
    97   48  171 1    
    98   48  172 1    
    99   48  173 1    
   100   49   50 am   BACKBONE|DICT|INTERRES
   101   49  174 1    
   102   50   51 2    
   103   50   52 1    
   104   52   53 1    
   105   52   54 1    
   106   52  175 1    
   107   53  176 1    
   108   53  177 1    
   109   53  178 1    
   110   54   55 am   BACKBONE|DICT|INTERRES
   111   54  179 1    
   112   55   56 2    
   113   55   57 1    
   114   57   58 1    
   115   57   59 1    
   116   57  180 1    
   117   58  181 1    
   118   58  182 1    
   119   58  183 1    
   120   59   60 am   BACKBONE|DICT|INTERRES
   121   59  184 1    
   122   60   61 2    
   123   60   62 1    
   124   62   63 1    
   125   62   64 1    
   126   62  185 1    
   127   63  186 1    
   128   63  187 1    
   129   63  188 1    
   130   64   65 am   BACKBONE|DICT|INTERRES
   131   64  189 1    
   132   65   66 2    
   133   67   68 2    
   134   67   69 am   BACKBONE|DICT|INTERRES
   135   69   70 1    
   136   69  190 1    
   137   70   71 1    
   138   70   72 1    
   139   70  191 1    
   140   71  192 1    
   141   71  193 1    
   142   71  194 1    
   143   72   73 2    
   144   72   74 am   BACKBONE|DICT|INTERRES
   145   74   75 1    
   146   74  195 1    
   147   75   76 1    
   148   75   77 1    
   149   75  196 1    
   150   76  197 1    
   151   76  198 1    
   152   76  199 1    
   153   77   78 2    
   154   77   79 am   BACKBONE|DICT|INTERRES
   155   79   80 1    
   156   79  200 1    
   157   80   81 1    
   158   80   82 1    
   159   80  201 1    
   160   81  202 1    
   161   81  203 1    
   162   81  204 1    
   163   82   83 2    
   164   82   84 am   BACKBONE|DICT|INTERRES
   165   84   85 1    
   166   84  205 1    
   167   85   86 1    
   168   85   87 1    
   169   85  206 1    
   170   86  207 1    
   171   86  208 1    
   172   86  209 1    
   173   87   88 2    
   174   87   89 am   BACKBONE|DICT|INTERRES
   175   89   90 1    
   176   89  210 1    
   177   90   91 1    
   178   90   92 1    
   179   90  211 1    
   180   91  212 1    
   181   91  213 1    
   182   91  214 1    
   183   92   93 2    
   184   92   94 am   BACKBONE|DICT|INTERRES
   185   94   95 1    
   186   94  215 1    
   187   95   96 1    
   188   95   97 1    
   189   95  216 1    
   190   96  217 1    
   191   96  218 1    
   192   96  219 1    
   193   97   98 2    
   194   97   99 am   BACKBONE|DICT|INTERRES
   195   99  100 1    
   196   99  220 1    
   197  100  101 1    
   198  100  102 1    
   199  100  221 1    
   200  101  222 1    
   201  101  223 1    
   202  101  224 1    
   203  102  103 2    
   204  102  104 am   BACKBONE|DICT|INTERRES
   205  104  105 1    
   206  104  225 1    
   207  105  106 1    
   208  105  107 1    
   209  105  226 1    
   210  106  227 1    
   211  106  228 1    
   212  106  229 1    
   213  107  108 2    
   214  107  109 am   BACKBONE|DICT|INTERRES
   215  109  110 1    
   216  109  230 1    
   217  110  111 1    
   218  110  112 1    
   219  110  231 1    
   220  111  232 1    
   221  111  233 1    
   222  111  234 1    
   223  112  113 2    
   224  112  114 am   BACKBONE|DICT|INTERRES
   225  114  115 1    
   226  114  235 1    
   227  115  116 1    
   228  115  117 1    
   229  115  236 1    
   230  116  237 1    
   231  116  238 1    
   232  116  239 1    
   233  117  118 2    
   234  117  119 am   BACKBONE|DICT|INTERRES
   235  119  120 1    
   236  119  240 1    
   237  120  121 1    
   238  120  124 1    
   239  120  241 1    
   240  121  122 am   BACKBONE|DICT|INTERRES
   241  121  123 2    
   242  122  242 1    
   243  122  243 1    
   244  124  125 1    
   245  124  244 1    
   246  124  245 1    
   247  125  126 1    
   248  126  246 1    
   249  126  247 1    
@<TRIPOS>SUBSTRUCTURE
     1 UNK         1 GROUP             0       ****    0 ROOT    
