@<TRIPOS>MOLECULE
3R540
247   249    1
SMALL
USER_CHARGES


@<TRIPOS>ATOM
      1 CA         -5.0610  -17.8683  -46.3887 C.3       0 UNK        -0.1800 
      2 C          -4.3796  -16.8242  -47.2598 C.2       0 UNK         0.5000 
      3 O          -5.0003  -16.2957  -48.1823 O.2       0 UNK        -0.5000 
      4 N          -3.1065  -16.5295  -46.9743 N.am      1 UNK        -0.5000 
      5 CA         -2.3219  -15.4957  -47.6536 C.3       1 UNK         0.1400 
      6 C6         -0.8068  -15.6775  -47.3863 C.3       23 UNK        -0.0398 
      7 S7         -0.1141  -17.0605  -48.3466 S.3       23 UNK        -0.2404 
      8 C8          1.3035  -16.2324  -49.1406 C.3       23 UNK        -0.0205 
      9 C9          2.0705  -17.1803  -50.0479 C.ar      23 UNK        -0.0193 
     10 C10         2.1731  -16.9337  -51.4211 C.ar      23 UNK        -0.1150 
     11 C11         2.8591  -17.8271  -52.2510 C.ar      23 UNK        -0.0193 
     12 C12         3.4348  -18.9748  -51.7000 C.ar      23 UNK        -0.1150 
     13 C13         3.3297  -19.2333  -50.3317 C.ar      23 UNK        -0.0193 
     14 C14         2.6733  -18.3177  -49.5073 C.ar      23 UNK        -0.1150 
     15 C15         3.8720  -20.5291  -49.7521 C.3       23 UNK        -0.0205 
     16 S16         2.8502  -21.9529  -50.2506 S.3       23 UNK        -0.2404 
     17 C17         1.2016  -21.5079  -49.5959 C.3       23 UNK        -0.0398 
     18 CA          0.7027  -22.5290  -48.5537 C.3       11 UNK         0.1400 
     19 N           1.5634  -22.5293  -47.3697 N.am      11 UNK        -0.5000 
     20 C           1.6408  -23.5200  -46.4755 C.2       10 UNK         0.5000 
     21 O           0.9874  -24.5598  -46.5470 O.2       10 UNK        -0.5000 
     22 CA          2.5671  -23.2667  -45.2695 C.3       10 UNK         0.1400 
     23 CB          4.0079  -23.6810  -45.6031 C.3       10 UNK        -0.1800 
     24 N           2.5566  -21.8715  -44.8057 N.am      10 UNK        -0.5000 
     25 C           1.4623  -21.2338  -44.3694 C.2       9 UNK         0.5000 
     26 O           0.3410  -21.7441  -44.3744 O.2       9 UNK        -0.5000 
     27 CA          1.6270  -19.7762  -43.8991 C.3       9 UNK         0.1400 
     28 CB          1.3453  -18.8070  -45.0595 C.3       9 UNK        -0.1800 
     29 N           0.7133  -19.4742  -42.7966 N.am      9 UNK        -0.5000 
     30 C           0.7775  -20.0395  -41.5812 C.2       8 UNK         0.5000 
     31 O           1.6967  -20.7808  -41.2293 O.2       8 UNK        -0.5000 
     32 CA         -0.3558  -19.7333  -40.5822 C.3       8 UNK         0.1400 
     33 CB          0.1958  -19.0673  -39.3102 C.3       8 UNK        -0.1800 
     34 N          -1.4073  -18.8865  -41.1502 N.am      8 UNK        -0.5000 
     35 C          -2.4841  -19.3459  -41.8038 C.2       7 UNK         0.5000 
     36 O          -2.7035  -20.5419  -41.9943 O.2       7 UNK        -0.5000 
     37 CA         -3.4953  -18.3086  -42.3315 C.3       7 UNK         0.1400 
     38 CB         -4.7236  -18.2385  -41.4118 C.3       7 UNK        -0.1800 
     39 N          -2.9364  -16.9642  -42.4724 N.am      7 UNK        -0.5000 
     40 C          -2.0963  -16.5784  -43.4405 C.2       6 UNK         0.5000 
     41 O          -1.7347  -17.3116  -44.3606 O.2       6 UNK        -0.5000 
     42 CA         -1.5543  -15.1377  -43.3683 C.3       6 UNK         0.1400 
     43 CB         -2.4231  -14.1811  -42.5233 C.3       6 UNK        -0.1800 
     44 N          -0.1627  -15.0884  -42.9231 N.am      6 UNK        -0.5000 
     45 C           0.3562  -15.5830  -41.7915 C.2       5 UNK         0.5000 
     46 O          -0.3021  -16.2106  -40.9623 O.2       5 UNK        -0.5000 
     47 CA          1.8424  -15.2925  -41.4949 C.3       5 UNK         0.1400 
     48 CB          2.7326  -16.5104  -41.8111 C.3       5 UNK        -0.1800 
     49 N           2.3447  -14.0541  -42.1120 N.am      5 UNK        -0.5000 
     50 C           2.6124  -13.8057  -43.4012 C.2       4 UNK         0.5000 
     51 O           2.5794  -14.6560  -44.2929 O.2       4 UNK        -0.5000 
     52 CA          2.9354  -12.3366  -43.7435 C.3       4 UNK         0.1400 
     53 CB          4.4461  -12.0817  -43.6271 C.3       4 UNK        -0.1800 
     54 N           2.4896  -11.9275  -45.0795 N.am      4 UNK        -0.5000 
     55 C           1.2531  -12.0570  -45.5834 C.2       3 UNK         0.5000 
     56 O           0.3040  -12.5364  -44.9569 O.2       3 UNK        -0.5000 
     57 CA          1.0699  -11.5733  -47.0393 C.3       3 UNK         0.1400 
     58 CB          2.0679  -12.2626  -47.9890 C.3       3 UNK        -0.1800 
     59 N          -0.2776  -11.8259  -47.5468 N.am      3 UNK        -0.5000 
     60 C          -1.3867  -11.1363  -47.2450 C.2       2 UNK         0.5000 
     61 O          -1.3963  -10.1169  -46.5538 O.2       2 UNK        -0.5000 
     62 CA         -2.7092  -11.6818  -47.8263 C.3       2 UNK         0.1400 
     63 CB         -3.0895  -10.9197  -49.1053 C.3       2 UNK        -0.1800 
     64 N          -2.6184  -13.1139  -48.1327 N.am      2 UNK        -0.5000 
     65 C          -2.7721  -14.0841  -47.2219 C.2       1 UNK         0.5000 
     66 O          -3.1888  -13.8879  -46.0785 O.2       1 UNK        -0.5000 
     67 C          -0.7805  -22.2730  -48.2073 C.2       11 UNK         0.5000 
     68 O          -1.6555  -22.6540  -48.9878 O.2       11 UNK        -0.5000 
     69 N          -1.0425  -21.6419  -47.0533 N.am      12 UNK        -0.5000 
     70 CA         -2.3846  -21.4574  -46.5069 C.3       12 UNK         0.1400 
     71 CB         -2.4246  -20.2192  -45.6053 C.3       12 UNK        -0.1800 
     72 C          -2.8451  -22.7161  -45.7550 C.2       12 UNK         0.5000 
     73 O          -3.9933  -23.1297  -45.9094 O.2       12 UNK        -0.5000 
     74 N          -1.9246  -23.3370  -45.0036 N.am      13 UNK        -0.5000 
     75 CA         -2.1211  -24.6087  -44.3048 C.3       13 UNK         0.1400 
     76 CB         -0.8919  -24.9023  -43.4325 C.3       13 UNK        -0.1800 
     77 C          -2.4130  -25.7858  -45.2573 C.2       13 UNK         0.5000 
     78 O          -3.1551  -26.6963  -44.8863 O.2       13 UNK        -0.5000 
     79 N          -1.8791  -25.7224  -46.4855 N.am      14 UNK        -0.5000 
     80 CA         -2.1395  -26.6350  -47.6025 C.3       14 UNK         0.1400 
     81 CB         -1.0145  -26.4668  -48.6403 C.3       14 UNK        -0.1800 
     82 C          -3.5441  -26.4371  -48.2222 C.2       14 UNK         0.5000 
     83 O          -3.6652  -26.2154  -49.4292 O.2       14 UNK        -0.5000 
     84 N          -4.5834  -26.4882  -47.3747 N.am      15 UNK        -0.5000 
     85 CA         -6.0155  -26.3496  -47.6809 C.3       15 UNK         0.1400 
     86 CB         -6.5095  -27.5939  -48.4473 C.3       15 UNK        -0.1800 
     87 C          -6.3845  -25.0336  -48.4043 C.2       15 UNK         0.5000 
     88 O          -7.3737  -24.9917  -49.1373 O.2       15 UNK        -0.5000 
     89 N          -5.5544  -23.9978  -48.2145 N.am      16 UNK        -0.5000 
     90 CA         -5.5463  -22.6961  -48.8878 C.3       16 UNK         0.1400 
     91 CB         -6.7923  -21.8733  -48.5056 C.3       16 UNK        -0.1800 
     92 C          -5.3275  -22.7494  -50.4148 C.2       16 UNK         0.5000 
     93 O          -5.4450  -21.7117  -51.0644 O.2       16 UNK        -0.5000 
     94 N          -5.0031  -23.9241  -50.9736 N.am      17 UNK        -0.5000 
     95 CA         -4.9252  -24.1589  -52.4147 C.3       17 UNK         0.1400 
     96 CB         -4.8405  -25.6690  -52.6835 C.3       17 UNK        -0.1800 
     97 C          -3.7536  -23.4141  -53.0697 C.2       17 UNK         0.5000 
     98 O          -3.9444  -22.7410  -54.0831 O.2       17 UNK        -0.5000 
     99 N          -2.5689  -23.5186  -52.4557 N.am      18 UNK        -0.5000 
    100 CA        -1.3595  -22.8388  -52.9136 C.3       18 UNK         0.1400 
    101 CB        -0.1299  -23.4969  -52.2742 C.3       18 UNK        -0.1800 
    102 C         -1.4128  -21.3211  -52.6576 C.2       18 UNK         0.5000 
    103 O         -0.9578  -20.5518  -53.5027 O.2       18 UNK        -0.5000 
    104 N         -2.0155  -20.9116  -51.5305 N.am      19 UNK        -0.5000 
    105 CA        -2.2724  -19.5068  -51.2038 C.3       19 UNK         0.1400 
    106 CB        -2.7960  -19.3863  -49.7649 C.3       19 UNK        -0.1800 
    107 C         -3.2383  -18.8369  -52.1999 C.2       19 UNK         0.5000 
    108 O         -2.9831  -17.7087  -52.6197 O.2       19 UNK        -0.5000 
    109 N         -4.3017  -19.5557  -52.5914 N.am      20 UNK        -0.5000 
    110 CA        -5.2606  -19.1323  -53.6122 C.3       20 UNK         0.1400 
    111 CB        -6.4765  -20.0709  -53.6124 C.3       20 UNK        -0.1800 
    112 C         -4.6353  -19.0516  -55.0154 C.2       20 UNK         0.5000 
    113 O         -4.8983  -18.0868  -55.7342 O.2       20 UNK        -0.5000 
    114 N         -3.7889  -20.0314  -55.3692 N.am      21 UNK        -0.5000 
    115 CA        -3.0392  -20.0681  -56.6306 C.3       21 UNK         0.1400 
    116 CB        -2.2858  -21.4014  -56.7477 C.3       21 UNK        -0.1800 
    117 C         -2.0740  -18.8770  -56.8005 C.2       21 UNK         0.5000 
    118 O         -1.9041  -18.3874  -57.9178 O.2       21 UNK        -0.5000 
    119 N         -1.5024  -18.4083  -55.6855 N.am      22 UNK        -0.5000 
    120 CA        -0.7221  -17.1651  -55.5877 C.3       22 UNK         0.1400 
    121 C         -1.5750  -15.8584  -55.5914 C.2       22 UNK         0.5000 
    122 N         -2.9011  -15.9033  -55.6399 N.am      22 UNK        -0.7600 
    123 O         -1.0156  -14.7652  -55.5736 O.2       22 UNK        -0.5000 
    124 C124        0.2477  -17.2089  -54.3789 C.3       23 UNK        -0.0398 
    125 S125        1.6189  -18.3799  -54.6583 S.3       23 UNK        -0.2404 
    126 C126        2.9709  -17.5727  -53.7457 C.3       23 UNK        -0.0205 
    127 H127       -4.5654  -17.9587  -45.4234 H         1 UNK         0.0600 
    128 H128       -5.0453  -18.8400  -46.8828 H         1 UNK         0.0600 
    129 H129       -6.0996  -17.5919  -46.2067 H         1 UNK         0.0600 
    130 H130       -2.6503  -16.9728  -46.1840 H         1 UNK         0.3000 
    131 H131       -2.4996  -15.5844  -48.7281 H         1 UNK         0.0600 
    132 H132       -0.6088  -15.8552  -46.3287 H         1 UNK         0.0800 
    133 H133       -0.2514  -14.7735  -47.6377 H         1 UNK         0.0800 
    134 H134        1.9785  -15.8547  -48.3712 H         1 UNK         0.0800 
    135 H135        0.9482  -15.3677  -49.7032 H         1 UNK         0.0800 
    136 H136        1.7132  -16.0530  -51.8464 H         1 UNK         0.1150 
    137 H137        3.9389  -19.6847  -52.3410 H         1 UNK         0.1150 
    138 H138        2.5863  -18.5113  -48.4474 H         1 UNK         0.1150 
    139 H139        4.8939  -20.6834  -50.1012 H         1 UNK         0.0800 
    140 H140        3.9220  -20.4812  -48.6634 H         1 UNK         0.0800 
    141 H141        0.5234  -21.4420  -50.4445 H         1 UNK         0.0800 
    142 H142        1.2101  -20.5117  -49.1565 H         1 UNK         0.0800 
    143 H143        0.7500  -23.5236  -49.0023 H         1 UNK         0.0600 
    144 H144        2.1463  -21.7175  -47.2340 H         1 UNK         0.3000 
    145 H145        2.2134  -23.8919  -44.4472 H         1 UNK         0.0600 
    146 H146        4.6562  -23.5923  -44.7312 H         1 UNK         0.0600 
    147 H147        4.0487  -24.7204  -45.9319 H         1 UNK         0.0600 
    148 H148        4.4299  -23.0679  -46.4005 H         1 UNK         0.0600 
    149 H149        3.4479  -21.3972  -44.7812 H         1 UNK         0.3000 
    150 H150        2.6503  -19.6249  -43.5496 H         1 UNK         0.0600 
    151 H151        2.0432  -18.9644  -45.8824 H         1 UNK         0.0600 
    152 H152        1.4454  -17.7679  -44.7451 H         1 UNK         0.0600 
    153 H153        0.3375  -18.9328  -45.4572 H         1 UNK         0.0600 
    154 H154       -0.0930  -18.9086  -43.0199 H         1 UNK         0.3000 
    155 H155       -0.7883  -20.6921  -40.2886 H         1 UNK         0.0600 
    156 H156        0.7258  -18.1415  -39.5321 H         1 UNK         0.0600 
    157 H157        0.8970  -19.7269  -38.7977 H         1 UNK         0.0600 
    158 H158       -0.6038  -18.8363  -38.6062 H         1 UNK         0.0600 
    159 H159       -1.2671  -17.8835  -41.0587 H         1 UNK         0.3000 
    160 H160       -3.8279  -18.6502  -43.3120 H         1 UNK         0.0600 
    161 H161       -4.4584  -17.8916  -40.4122 H         1 UNK         0.0600 
    162 H162       -5.1898  -19.2191  -41.3062 H         1 UNK         0.0600 
    163 H163       -5.4791  -17.5630  -41.8135 H         1 UNK         0.0600 
    164 H164       -3.1578  -16.3041  -41.7411 H         1 UNK         0.3000 
    165 H165       -1.5452  -14.7602  -44.3882 H         1 UNK         0.0600 
    166 H166       -2.4153  -14.4359  -41.4632 H         1 UNK         0.0600 
    167 H167       -2.0652  -13.1556  -42.6170 H         1 UNK         0.0600 
    168 H168       -3.4592  -14.1888  -42.8647 H         1 UNK         0.0600 
    169 H169        0.4732  -14.6240  -43.5600 H         1 UNK         0.3000 
    170 H170        1.9055  -15.1221  -40.4190 H         1 UNK         0.0600 
    171 H171        2.4373  -17.3715  -41.2112 H         1 UNK         0.0600 
    172 H172        2.6639  -16.8107  -42.8561 H         1 UNK         0.0600 
    173 H173        3.7791  -16.3037  -41.5880 H         1 UNK         0.0600 
    174 H174        2.3978  -13.2721  -41.4735 H         1 UNK         0.3000 
    175 H175        2.4185  -11.6960  -43.0261 H         1 UNK         0.0600 
    176 H176        5.0087  -12.6713  -44.3522 H         1 UNK         0.0600 
    177 H177        4.6845  -11.0304  -43.7904 H         1 UNK         0.0600 
    178 H178        4.8140  -12.3453  -42.6345 H         1 UNK         0.0600 
    179 H179        3.2070  -11.5452  -45.6772 H         1 UNK         0.3000 
    180 H180        1.2520  -10.4969  -47.0600 H         1 UNK         0.0600 
    181 H181        1.9853  -13.3488  -47.9388 H         1 UNK         0.0600 
    182 H182        3.0984  -12.0013  -47.7470 H         1 UNK         0.0600 
    183 H183        1.9014  -11.9617  -49.0237 H         1 UNK         0.0600 
    184 H184       -0.3825  -12.6446  -48.1221 H         1 UNK         0.3000 
    185 H185       -3.4942  -11.5161  -47.0852 H         1 UNK         0.0600 
    186 H186       -4.0445  -11.2662  -49.5010 H         1 UNK         0.0600 
    187 H187       -3.1893   -9.8516  -48.9075 H         1 UNK         0.0600 
    188 H188       -2.3380  -11.0398  -49.8866 H         1 UNK         0.0600 
    189 H189       -2.3301  -13.3537  -49.0707 H         1 UNK         0.3000 
    190 H190       -0.2764  -21.4148  -46.4342 H         1 UNK         0.3000 
    191 H191       -3.0777  -21.2739  -47.3262 H         1 UNK         0.0600 
    192 H192       -3.4260  -20.0753  -45.2014 H         1 UNK         0.0600 
    193 H193       -2.1608  -19.3213  -46.1638 H         1 UNK         0.0600 
    194 H194       -1.7453  -20.2995  -44.7579 H         1 UNK         0.0600 
    195 H195       -1.0253  -22.8806  -44.8695 H         1 UNK         0.3000 
    196 H196       -2.9861  -24.4930  -43.6488 H         1 UNK         0.0600 
    197 H197        0.0056  -25.0393  -44.0354 H         1 UNK         0.0600 
    198 H198       -0.7027  -24.0894  -42.7307 H         1 UNK         0.0600 
    199 H199       -1.0366  -25.8117  -42.8480 H         1 UNK         0.0600 
    200 H200       -1.2364  -24.9640  -46.6738 H         1 UNK         0.3000 
    201 H201       -2.0970  -27.6590  -47.2267 H         1 UNK         0.0600 
    202 H202       -1.0044  -25.4609  -49.0615 H         1 UNK         0.0600 
    203 H203       -1.1335  -27.1687  -49.4666 H         1 UNK         0.0600 
    204 H204       -0.0365  -26.6533  -48.1964 H         1 UNK         0.0600 
    205 H205       -4.3570  -26.6423  -46.3958 H         1 UNK         0.3000 
    206 H206       -6.5323  -26.3217  -46.7208 H         1 UNK         0.0600 
    207 H207       -6.2543  -28.5110  -47.9164 H         1 UNK         0.0600 
    208 H208       -7.5938  -27.5808  -48.5637 H         1 UNK         0.0600 
    209 H209       -6.0732  -27.6514  -49.4452 H         1 UNK         0.0600 
    210 H210       -4.8105  -24.1183  -47.5359 H         1 UNK         0.3000 
    211 H211       -4.6785  -22.1701  -48.4994 H         1 UNK         0.0600 
    212 H212       -6.7208  -20.8528  -48.8840 H         1 UNK         0.0600 
    213 H213       -6.9027  -21.8080  -47.4232 H         1 UNK         0.0600 
    214 H214       -7.7053  -22.3088  -48.9122 H         1 UNK         0.0600 
    215 H215       -4.8419  -24.7240  -50.3717 H         1 UNK         0.3000 
    216 H216       -5.8477  -23.7868  -52.8656 H         1 UNK         0.0600 
    217 H217       -3.9490  -26.1106  -52.2363 H         1 UNK         0.0600 
    218 H218       -4.8082  -25.8740  -53.7542 H         1 UNK         0.0600 
    219 H219       -5.7086  -26.1893  -52.2779 H         1 UNK         0.0600 
    220 H220       -2.5045  -24.0654  -51.6085 H         1 UNK         0.3000 
    221 H221       -1.2774  -22.9779  -53.9936 H         1 UNK         0.0600 
    222 H222        0.0078  -24.5106  -52.6507 H         1 UNK         0.0600 
    223 H223       -0.2252  -23.5613  -51.1920 H         1 UNK         0.0600 
    224 H224        0.7804  -22.9406  -52.5022 H         1 UNK         0.0600 
    225 H225       -2.3410  -21.6062  -50.8706 H         1 UNK         0.3000 
    226 H226       -1.3212  -18.9722  -51.2590 H         1 UNK         0.0600 
    227 H227       -3.6937  -19.9838  -49.6057 H         1 UNK         0.0600 
    228 H228       -2.0418  -19.7028  -49.0460 H         1 UNK         0.0600 
    229 H229       -3.0429  -18.3508  -49.5290 H         1 UNK         0.0600 
    230 H230       -4.4848  -20.4526  -52.1497 H         1 UNK         0.3000 
    231 H231       -5.6088  -18.1317  -53.3477 H         1 UNK         0.0600 
    232 H232       -6.1897  -21.1029  -53.8171 H         1 UNK         0.0600 
    233 H233       -7.2010  -19.7734  -54.3715 H         1 UNK         0.0600 
    234 H234       -6.9885  -20.0508  -52.6503 H         1 UNK         0.0600 
    235 H235       -3.6650  -20.8202  -54.7430 H         1 UNK         0.3000 
    236 H236       -3.7663  -20.0190  -57.4436 H         1 UNK         0.0600 
    237 H237       -2.9683  -22.2489  -56.6836 H         1 UNK         0.0600 
    238 H238       -1.7676  -21.4727  -57.7047 H         1 UNK         0.0600 
    239 H239       -1.5379  -21.5111  -55.9629 H         1 UNK         0.0600 
    240 H240       -1.6517  -18.9100  -54.8183 H         1 UNK         0.3000 
    241 H241       -0.1118  -17.0920  -56.4899 H         1 UNK         0.0600 
    242 H242       -3.4188  -15.0393  -55.6483 H         1 UNK         0.3800 
    243 H243       -3.4046  -16.7826  -55.6657 H         1 UNK         0.3800 
    244 H244       -0.2806  -17.4878  -53.4657 H         1 UNK         0.0800 
    245 H245        0.6770  -16.2234  -54.1930 H         1 UNK         0.0800 
    246 H246        3.9206  -17.9653  -54.1123 H         1 UNK         0.0800 
    247 H247        2.9889  -16.5024  -53.9561 H         1 UNK         0.0800 
@<TRIPOS>BOND
     1    1    2 1    
     2    1  127 1    
     3    1  128 1    
     4    1  129 1    
     5    2    3 2    
     6    2    4 am   BACKBONE|DICT|INTERRES
     7    4    5 1    
     8    4  130 1    
     9    5    6 1    
    10    5   65 1    
    11    5  131 1    
    12    6    7 1    
    13    6  132 1    
    14    6  133 1    
    15    7    8 1    
    16    8    9 1    
    17    8  134 1    
    18    8  135 1    
    19    9   10 ar   
    20    9   14 ar   
    21   10   11 ar   
    22   10  136 1    
    23   11   12 ar   
    24   11  126 1    
    25   12   13 ar   
    26   12  137 1    
    27   13   14 ar   
    28   13   15 1    
    29   14  138 1    
    30   15   16 1    
    31   15  139 1    
    32   15  140 1    
    33   16   17 1    
    34   17   18 1    
    35   17  141 1    
    36   17  142 1    
    37   18   19 1    
    38   18   67 1    
    39   18  143 1    
    40   19   20 am   BACKBONE|DICT|INTERRES
    41   19  144 1    
    42   20   21 2    
    43   20   22 1    
    44   22   23 1    
    45   22   24 1    
    46   22  145 1    
    47   23  146 1    
    48   23  147 1    
    49   23  148 1    
    50   24   25 am   BACKBONE|DICT|INTERRES
    51   24  149 1    
    52   25   26 2    
    53   25   27 1    
    54   27   28 1    
    55   27   29 1    
    56   27  150 1    
    57   28  151 1    
    58   28  152 1    
    59   28  153 1    
    60   29   30 am   BACKBONE|DICT|INTERRES
    61   29  154 1    
    62   30   31 2    
    63   30   32 1    
    64   32   33 1    
    65   32   34 1    
    66   32  155 1    
    67   33  156 1    
    68   33  157 1    
    69   33  158 1    
    70   34   35 am   BACKBONE|DICT|INTERRES
    71   34  159 1    
    72   35   36 2    
    73   35   37 1    
    74   37   38 1    
    75   37   39 1    
    76   37  160 1    
    77   38  161 1    
    78   38  162 1    
    79   38  163 1    
    80   39   40 am   BACKBONE|DICT|INTERRES
    81   39  164 1    
    82   40   41 2    
    83   40   42 1    
    84   42   43 1    
    85   42   44 1    
    86   42  165 1    
    87   43  166 1    
    88   43  167 1    
    89   43  168 1    
    90   44   45 am   BACKBONE|DICT|INTERRES
    91   44  169 1    
    92   45   46 2    
    93   45   47 1    
    94   47   48 1    
    95   47   49 1    
    96   47  170 1    
    97   48  171 1    
    98   48  172 1    
    99   48  173 1    
   100   49   50 am   BACKBONE|DICT|INTERRES
   101   49  174 1    
   102   50   51 2    
   103   50   52 1    
   104   52   53 1    
   105   52   54 1    
   106   52  175 1    
   107   53  176 1    
   108   53  177 1    
   109   53  178 1    
   110   54   55 am   BACKBONE|DICT|INTERRES
   111   54  179 1    
   112   55   56 2    
   113   55   57 1    
   114   57   58 1    
   115   57   59 1    
   116   57  180 1    
   117   58  181 1    
   118   58  182 1    
   119   58  183 1    
   120   59   60 am   BACKBONE|DICT|INTERRES
   121   59  184 1    
   122   60   61 2    
   123   60   62 1    
   124   62   63 1    
   125   62   64 1    
   126   62  185 1    
   127   63  186 1    
   128   63  187 1    
   129   63  188 1    
   130   64   65 am   BACKBONE|DICT|INTERRES
   131   64  189 1    
   132   65   66 2    
   133   67   68 2    
   134   67   69 am   BACKBONE|DICT|INTERRES
   135   69   70 1    
   136   69  190 1    
   137   70   71 1    
   138   70   72 1    
   139   70  191 1    
   140   71  192 1    
   141   71  193 1    
   142   71  194 1    
   143   72   73 2    
   144   72   74 am   BACKBONE|DICT|INTERRES
   145   74   75 1    
   146   74  195 1    
   147   75   76 1    
   148   75   77 1    
   149   75  196 1    
   150   76  197 1    
   151   76  198 1    
   152   76  199 1    
   153   77   78 2    
   154   77   79 am   BACKBONE|DICT|INTERRES
   155   79   80 1    
   156   79  200 1    
   157   80   81 1    
   158   80   82 1    
   159   80  201 1    
   160   81  202 1    
   161   81  203 1    
   162   81  204 1    
   163   82   83 2    
   164   82   84 am   BACKBONE|DICT|INTERRES
   165   84   85 1    
   166   84  205 1    
   167   85   86 1    
   168   85   87 1    
   169   85  206 1    
   170   86  207 1    
   171   86  208 1    
   172   86  209 1    
   173   87   88 2    
   174   87   89 am   BACKBONE|DICT|INTERRES
   175   89   90 1    
   176   89  210 1    
   177   90   91 1    
   178   90   92 1    
   179   90  211 1    
   180   91  212 1    
   181   91  213 1    
   182   91  214 1    
   183   92   93 2    
   184   92   94 am   BACKBONE|DICT|INTERRES
   185   94   95 1    
   186   94  215 1    
   187   95   96 1    
   188   95   97 1    
   189   95  216 1    
   190   96  217 1    
   191   96  218 1    
   192   96  219 1    
   193   97   98 2    
   194   97   99 am   BACKBONE|DICT|INTERRES
   195   99  100 1    
   196   99  220 1    
   197  100  101 1    
   198  100  102 1    
   199  100  221 1    
   200  101  222 1    
   201  101  223 1    
   202  101  224 1    
   203  102  103 2    
   204  102  104 am   BACKBONE|DICT|INTERRES
   205  104  105 1    
   206  104  225 1    
   207  105  106 1    
   208  105  107 1    
   209  105  226 1    
   210  106  227 1    
   211  106  228 1    
   212  106  229 1    
   213  107  108 2    
   214  107  109 am   BACKBONE|DICT|INTERRES
   215  109  110 1    
   216  109  230 1    
   217  110  111 1    
   218  110  112 1    
   219  110  231 1    
   220  111  232 1    
   221  111  233 1    
   222  111  234 1    
   223  112  113 2    
   224  112  114 am   BACKBONE|DICT|INTERRES
   225  114  115 1    
   226  114  235 1    
   227  115  116 1    
   228  115  117 1    
   229  115  236 1    
   230  116  237 1    
   231  116  238 1    
   232  116  239 1    
   233  117  118 2    
   234  117  119 am   BACKBONE|DICT|INTERRES
   235  119  120 1    
   236  119  240 1    
   237  120  121 1    
   238  120  124 1    
   239  120  241 1    
   240  121  122 am   BACKBONE|DICT|INTERRES
   241  121  123 2    
   242  122  242 1    
   243  122  243 1    
   244  124  125 1    
   245  124  244 1    
   246  124  245 1    
   247  125  126 1    
   248  126  246 1    
   249  126  247 1    
@<TRIPOS>SUBSTRUCTURE
     1 UNK         1 GROUP             0       ****    0 ROOT    
