@<TRIPOS>MOLECULE
3R540
247   249    1
SMALL
USER_CHARGES


@<TRIPOS>ATOM
      1 CA          5.3296  -18.6341  -46.8590 C.3       0 UNK        -0.1800 
      2 C           4.6997  -17.3952  -46.2424 C.2       0 UNK         0.5000 
      3 O           4.8898  -17.1367  -45.0543 O.2       0 UNK        -0.5000 
      4 N           3.9646  -16.6154  -47.0460 N.am      1 UNK        -0.5000 
      5 CA          3.2241  -15.4112  -46.6372 C.3       1 UNK         0.1400 
      6 C6          2.2459  -14.9295  -47.7380 C.3       23 UNK        -0.0398 
      7 S7          3.0289  -14.5956  -49.3555 S.3       23 UNK        -0.2404 
      8 C8          2.3838  -15.9551  -50.3828 C.3       23 UNK        -0.0205 
      9 C9          0.8941  -15.8174  -50.6660 C.ar      23 UNK        -0.0193 
     10 C10         0.4334  -14.8496  -51.5627 C.ar      23 UNK        -0.1150 
     11 C11        -0.9297  -14.7433  -51.8558 C.ar      23 UNK        -0.0193 
     12 C12        -1.8376  -15.6095  -51.2406 C.ar      23 UNK        -0.1150 
     13 C13        -1.3873  -16.5853  -50.3487 C.ar      23 UNK        -0.0193 
     14 C14        -0.0231  -16.6808  -50.0612 C.ar      23 UNK        -0.1150 
     15 C15        -2.3645  -17.5545  -49.7095 C.3       23 UNK        -0.0205 
     16 S16        -2.3487  -19.1461  -50.5760 S.3       23 UNK        -0.2404 
     17 C17        -3.2040  -20.2098  -49.3747 C.3       23 UNK        -0.0398 
     18 CA         -2.2200  -21.1194  -48.6059 C.3       11 UNK         0.1400 
     19 N          -1.3791  -20.3881  -47.6516 N.am      11 UNK        -0.5000 
     20 C          -0.3021  -20.9069  -47.0441 C.2       10 UNK         0.5000 
     21 O           0.1181  -22.0449  -47.2508 O.2       10 UNK        -0.5000 
     22 CA          0.3836  -20.0286  -45.9842 C.3       10 UNK         0.1400 
     23 CB          1.3238  -19.0076  -46.6407 C.3       10 UNK        -0.1800 
     24 N          -0.5922  -19.3406  -45.1372 N.am      10 UNK        -0.5000 
     25 C          -1.3521  -19.9667  -44.2248 C.2       9 UNK         0.5000 
     26 O          -1.2731  -21.1723  -43.9910 O.2       9 UNK        -0.5000 
     27 CA         -2.4077  -19.1293  -43.4752 C.3       9 UNK         0.1400 
     28 CB         -1.8176  -18.5396  -42.1861 C.3       9 UNK        -0.1800 
     29 N          -2.9763  -18.0455  -44.2737 N.am      9 UNK        -0.5000 
     30 C          -3.6337  -18.1908  -45.4321 C.2       8 UNK         0.5000 
     31 O          -3.8806  -19.2794  -45.9501 O.2       8 UNK        -0.5000 
     32 CA         -4.0206  -16.8935  -46.1660 C.3       8 UNK         0.1400 
     33 CB         -5.4391  -16.4580  -45.7731 C.3       8 UNK        -0.1800 
     34 N          -3.0949  -15.7803  -45.9313 N.am      8 UNK        -0.5000 
     35 C          -1.7759  -15.7851  -46.1663 C.2       7 UNK         0.5000 
     36 O          -1.1544  -16.7675  -46.5686 O.2       7 UNK        -0.5000 
     37 CA         -1.0077  -14.4991  -45.8401 C.3       7 UNK         0.1400 
     38 CB         -1.3716  -13.3449  -46.7920 C.3       7 UNK        -0.1800 
     39 N          -1.0980  -14.1160  -44.4312 N.am      7 UNK        -0.5000 
     40 C          -2.1459  -13.6639  -43.7269 C.2       6 UNK         0.5000 
     41 O          -3.2692  -13.4951  -44.2033 O.2       6 UNK        -0.5000 
     42 CA         -1.9093  -13.3749  -42.2270 C.3       6 UNK         0.1400 
     43 CB         -2.5570  -14.4726  -41.3681 C.3       6 UNK        -0.1800 
     44 N          -0.4915  -13.2744  -41.8656 N.am      6 UNK        -0.5000 
     45 C           0.3313  -12.2860  -42.2439 C.2       5 UNK         0.5000 
     46 O          -0.0536  -11.2700  -42.8237 O.2       5 UNK        -0.5000 
     47 CA          1.8389  -12.4649  -41.9595 C.3       5 UNK         0.1400 
     48 CB          2.2700  -11.5797  -40.7799 C.3       5 UNK        -0.1800 
     49 N           2.2935  -13.8386  -41.7036 N.am      5 UNK        -0.5000 
     50 C           2.1474  -14.8945  -42.5153 C.2       4 UNK         0.5000 
     51 O           1.4840  -14.8772  -43.5519 O.2       4 UNK        -0.5000 
     52 CA          2.8999  -16.1719  -42.1068 C.3       4 UNK         0.1400 
     53 CB          2.3035  -17.4354  -42.7519 C.3       4 UNK        -0.1800 
     54 N           4.2980  -16.0588  -42.5071 N.am      4 UNK        -0.5000 
     55 C           5.2497  -15.4068  -41.8271 C.2       3 UNK         0.5000 
     56 O           5.0602  -14.8626  -40.7382 O.2       3 UNK        -0.5000 
     57 CA          6.6333  -15.3298  -42.4900 C.3       3 UNK         0.1400 
     58 CB          7.3479  -16.6892  -42.4243 C.3       3 UNK        -0.1800 
     59 N           6.5068  -14.9167  -43.8868 N.am      3 UNK        -0.5000 
     60 C           6.6883  -13.6663  -44.3347 C.2       2 UNK         0.5000 
     61 O           7.0416  -12.7272  -43.6206 O.2       2 UNK        -0.5000 
     62 CA          6.4317  -13.4149  -45.8352 C.3       2 UNK         0.1400 
     63 CB          7.7339  -13.5647  -46.6363 C.3       2 UNK        -0.1800 
     64 N           5.4226  -14.3133  -46.3957 N.am      2 UNK        -0.5000 
     65 C           4.1138  -14.2592  -46.1113 C.2       1 UNK         0.5000 
     66 O           3.6071  -13.3593  -45.4411 O.2       1 UNK        -0.5000 
     67 C          -2.9755  -22.2731  -47.9239 C.2       11 UNK         0.5000 
     68 O          -3.0775  -23.3473  -48.5163 O.2       11 UNK        -0.5000 
     69 N          -3.4503  -22.0463  -46.6904 N.am      12 UNK        -0.5000 
     70 CA         -4.0910  -23.0515  -45.8439 C.3       12 UNK         0.1400 
     71 CB         -4.6655  -22.3833  -44.5865 C.3       12 UNK        -0.1800 
     72 C          -3.1370  -24.2008  -45.4726 C.2       12 UNK         0.5000 
     73 O          -3.5240  -25.3642  -45.5809 O.2       12 UNK        -0.5000 
     74 N          -1.9022  -23.8567  -45.0778 N.am      13 UNK        -0.5000 
     75 CA         -0.8402  -24.8073  -44.7429 C.3       13 UNK         0.1400 
     76 CB          0.3354  -24.0580  -44.0976 C.3       13 UNK        -0.1800 
     77 C          -0.3624  -25.6262  -45.9560 C.2       13 UNK         0.5000 
     78 O          -0.1609  -26.8347  -45.8311 O.2       13 UNK        -0.5000 
     79 N          -0.2056  -24.9606  -47.1085 N.am      14 UNK        -0.5000 
     80 CA          0.1874  -25.5812  -48.3756 C.3       14 UNK         0.1400 
     81 CB          0.6656  -24.4817  -49.3369 C.3       14 UNK        -0.1800 
     82 C          -0.9383  -26.4012  -49.0361 C.2       14 UNK         0.5000 
     83 O          -0.6448  -27.2505  -49.8781 O.2       14 UNK        -0.5000 
     84 N          -2.1950  -26.1044  -48.6720 N.am      15 UNK        -0.5000 
     85 CA         -3.4413  -26.5754  -49.2846 C.3       15 UNK         0.1400 
     86 CB         -3.6284  -28.0928  -49.0830 C.3       15 UNK        -0.1800 
     87 C          -3.5570  -26.1336  -50.7600 C.2       15 UNK         0.5000 
     88 O          -4.0124  -26.9076  -51.6031 O.2       15 UNK        -0.5000 
     89 N          -3.1160  -24.8967  -51.0367 N.am      16 UNK        -0.5000 
     90 CA         -2.9110  -24.2978  -52.3589 C.3       16 UNK         0.1400 
     91 CB         -2.2949  -22.9024  -52.1679 C.3       16 UNK        -0.1800 
     92 C          -4.1964  -24.2367  -53.2060 C.2       16 UNK         0.5000 
     93 O          -4.9612  -23.2770  -53.0914 O.2       16 UNK        -0.5000 
     94 N          -4.4322  -25.2904  -53.9990 N.am      17 UNK        -0.5000 
     95 CA         -5.6479  -25.5584  -54.7791 C.3       17 UNK         0.1400 
     96 CB         -5.8327  -24.5095  -55.8934 C.3       17 UNK        -0.1800 
     97 C          -6.9130  -25.7143  -53.9041 C.2       17 UNK         0.5000 
     98 O          -8.0197  -25.4730  -54.3881 O.2       17 UNK        -0.5000 
     99 N          -6.7166  -26.1226  -52.6401 N.am      18 UNK        -0.5000 
    100 CA        -7.7170  -26.3099  -51.5862 C.3       18 UNK         0.1400 
    101 CB        -8.5659  -27.5625  -51.8887 C.3       18 UNK        -0.1800 
    102 C         -8.5859  -25.0489  -51.3365 C.2       18 UNK         0.5000 
    103 O         -9.7657  -25.0519  -51.6884 O.2       18 UNK        -0.5000 
    104 N         -8.0562  -23.9596  -50.7613 N.am      19 UNK        -0.5000 
    105 CA        -6.7194  -23.7499  -50.2092 C.3       19 UNK         0.1400 
    106 CB        -6.6103  -24.4060  -48.8165 C.3       19 UNK        -0.1800 
    107 C         -6.4811  -22.2288  -50.1478 C.2       19 UNK         0.5000 
    108 O         -6.4319  -21.6595  -49.0563 O.2       19 UNK        -0.5000 
    109 N         -6.4182  -21.5763  -51.3158 N.am      20 UNK        -0.5000 
    110 CA        -6.4214  -20.1138  -51.4354 C.3       20 UNK         0.1400 
    111 CB        -7.8781  -19.6103  -51.3858 C.3       20 UNK        -0.1800 
    112 C         -5.6833  -19.5665  -52.6743 C.2       20 UNK         0.5000 
    113 O         -5.7307  -18.3545  -52.8922 O.2       20 UNK        -0.5000 
    114 N         -5.0407  -20.4213  -53.4846 N.am      21 UNK        -0.5000 
    115 CA        -4.3540  -20.0049  -54.7113 C.3       21 UNK         0.1400 
    116 CB        -4.0876  -21.2238  -55.6076 C.3       21 UNK        -0.1800 
    117 C         -3.0536  -19.2279  -54.4283 C.2       21 UNK         0.5000 
    118 O         -2.0529  -19.8308  -54.0380 O.2       21 UNK        -0.5000 
    119 N         -3.0967  -17.9100  -54.6565 N.am      22 UNK        -0.5000 
    120 CA        -1.9481  -16.9933  -54.6220 C.3       22 UNK         0.1400 
    121 C         -0.8838  -17.3578  -55.6986 C.2       22 UNK         0.5000 
    122 N          0.3895  -17.4214  -55.3332 N.am      22 UNK        -0.7600 
    123 O         -1.2050  -17.5540  -56.8691 O.2       22 UNK        -0.5000 
    124 C124       -2.4466  -15.5298  -54.7664 C.3       23 UNK        -0.0398 
    125 S125       -1.1556  -14.2497  -54.5660 S.3       23 UNK        -0.2404 
    126 C126       -1.4146  -13.7017  -52.8500 C.3       23 UNK        -0.0205 
    127 H127        5.0915  -18.7257  -47.9190 H         1 UNK         0.0600 
    128 H128        4.9680  -19.5277  -46.3504 H         1 UNK         0.0600 
    129 H129        6.4137  -18.5952  -46.7540 H         1 UNK         0.0600 
    130 H130        3.8823  -16.8568  -48.0225 H         1 UNK         0.3000 
    131 H131        2.6106  -15.7122  -45.7864 H         1 UNK         0.0600 
    132 H132        1.4581  -15.6727  -47.8615 H         1 UNK         0.0800 
    133 H133        1.7346  -14.0178  -47.4250 H         1 UNK         0.0800 
    134 H134        2.6003  -16.9109  -49.9035 H         1 UNK         0.0800 
    135 H135        2.9245  -15.9630  -51.3302 H         1 UNK         0.0800 
    136 H136        1.1390  -14.1854  -52.0422 H         1 UNK         0.1150 
    137 H137       -2.8913  -15.5392  -51.4714 H         1 UNK         0.1150 
    138 H138        0.3225  -17.4444  -49.3802 H         1 UNK         0.1150 
    139 H139       -2.0893  -17.7144  -48.6701 H         1 UNK         0.0800 
    140 H140       -3.3761  -17.1461  -49.7111 H         1 UNK         0.0800 
    141 H141       -3.9005  -20.8169  -49.9516 H         1 UNK         0.0800 
    142 H142       -3.8139  -19.6138  -48.6939 H         1 UNK         0.0800 
    143 H143       -1.5524  -21.5805  -49.3373 H         1 UNK         0.0600 
    144 H144       -1.6793  -19.4602  -47.3924 H         1 UNK         0.3000 
    145 H145        0.9883  -20.6799  -45.3492 H         1 UNK         0.0600 
    146 H146        1.8194  -18.3925  -45.8917 H         1 UNK         0.0600 
    147 H147        2.1013  -19.5086  -47.2186 H         1 UNK         0.0600 
    148 H148        0.7915  -18.3418  -47.3178 H         1 UNK         0.0600 
    149 H149       -0.7521  -18.3588  -45.3342 H         1 UNK         0.3000 
    150 H150       -3.2235  -19.7996  -43.2000 H         1 UNK         0.0600 
    151 H151       -1.3450  -19.3132  -41.5792 H         1 UNK         0.0600 
    152 H152       -2.5931  -18.0778  -41.5748 H         1 UNK         0.0600 
    153 H153       -1.0653  -17.7808  -42.4003 H         1 UNK         0.0600 
    154 H154       -2.8141  -17.1069  -43.9422 H         1 UNK         0.3000 
    155 H155       -4.0145  -17.1092  -47.2351 H         1 UNK         0.0600 
    156 H156       -6.1583  -17.2588  -45.9513 H         1 UNK         0.0600 
    157 H157       -5.7626  -15.5962  -46.3572 H         1 UNK         0.0600 
    158 H158       -5.4992  -16.1894  -44.7176 H         1 UNK         0.0600 
    159 H159       -3.4858  -14.9358  -45.5239 H         1 UNK         0.3000 
    160 H160        0.0456  -14.7274  -45.9941 H         1 UNK         0.0600 
    161 H161       -2.4161  -13.0470  -46.7005 H         1 UNK         0.0600 
    162 H162       -1.2054  -13.6342  -47.8308 H         1 UNK         0.0600 
    163 H163       -0.7549  -12.4677  -46.5962 H         1 UNK         0.0600 
    164 H164       -0.2264  -14.2603  -43.9254 H         1 UNK         0.3000 
    165 H165       -2.3929  -12.4237  -41.9958 H         1 UNK         0.0600 
    166 H166       -2.4650  -14.2475  -40.3054 H         1 UNK         0.0600 
    167 H167       -3.6215  -14.5660  -41.5873 H         1 UNK         0.0600 
    168 H168       -2.0984  -15.4458  -41.5463 H         1 UNK         0.0600 
    169 H169       -0.0885  -14.0654  -41.3859 H         1 UNK         0.3000 
    170 H170        2.3663  -12.1211  -42.8518 H         1 UNK         0.0600 
    171 H171        3.3515  -11.6026  -40.6435 H         1 UNK         0.0600 
    172 H172        1.9880  -10.5389  -40.9450 H         1 UNK         0.0600 
    173 H173        1.8059  -11.9020  -39.8469 H         1 UNK         0.0600 
    174 H174        2.8969  -13.9562  -40.8999 H         1 UNK         0.3000 
    175 H175        2.8343  -16.2838  -41.0225 H         1 UNK         0.0600 
    176 H176        2.3472  -17.3926  -43.8398 H         1 UNK         0.0600 
    177 H177        2.8379  -18.3304  -42.4333 H         1 UNK         0.0600 
    178 H178        1.2593  -17.5619  -42.4692 H         1 UNK         0.0600 
    179 H179        4.5329  -16.4645  -43.4106 H         1 UNK         0.3000 
    180 H180        7.2349  -14.6085  -41.9329 H         1 UNK         0.0600 
    181 H181        6.8061  -17.4616  -42.9718 H         1 UNK         0.0600 
    182 H182        7.4491  -17.0271  -41.3922 H         1 UNK         0.0600 
    183 H183        8.3514  -16.6247  -42.8452 H         1 UNK         0.0600 
    184 H184        6.1595  -15.6193  -44.5294 H         1 UNK         0.3000 
    185 H185        6.0781  -12.3875  -45.9455 H         1 UNK         0.0600 
    186 H186        7.5792  -13.3263  -47.6888 H         1 UNK         0.0600 
    187 H187        8.5030  -12.8886  -46.2606 H         1 UNK         0.0600 
    188 H188        8.1302  -14.5791  -46.5755 H         1 UNK         0.0600 
    189 H189        5.7545  -15.0747  -46.9691 H         1 UNK         0.3000 
    190 H190       -3.3919  -21.1048  -46.3132 H         1 UNK         0.3000 
    191 H191       -4.9261  -23.4746  -46.4016 H         1 UNK         0.0600 
    192 H192       -5.3534  -21.5782  -44.8461 H         1 UNK         0.0600 
    193 H193       -5.2191  -23.1035  -43.9829 H         1 UNK         0.0600 
    194 H194       -3.8814  -21.9652  -43.9568 H         1 UNK         0.0600 
    195 H195       -1.6785  -22.8729  -44.9646 H         1 UNK         0.3000 
    196 H196       -1.2390  -25.5083  -44.0067 H         1 UNK         0.0600 
    197 H197        1.1408  -24.7447  -43.8341 H         1 UNK         0.0600 
    198 H198        0.0255  -23.5542  -43.1819 H         1 UNK         0.0600 
    199 H199        0.7503  -23.3050  -44.7686 H         1 UNK         0.0600 
    200 H200       -0.3237  -23.9512  -47.1150 H         1 UNK         0.3000 
    201 H201        1.0232  -26.2581  -48.1869 H         1 UNK         0.0600 
    202 H202        1.5129  -23.9359  -48.9214 H         1 UNK         0.0600 
    203 H203       -0.1260  -23.7611  -49.5454 H         1 UNK         0.0600 
    204 H204        0.9864  -24.9035  -50.2902 H         1 UNK         0.0600 
    205 H205       -2.3116  -25.3529  -48.0037 H         1 UNK         0.3000 
    206 H206       -4.2460  -26.0763  -48.7470 H         1 UNK         0.0600 
    207 H207       -3.5348  -28.3636  -48.0313 H         1 UNK         0.0600 
    208 H208       -4.6185  -28.4097  -49.4128 H         1 UNK         0.0600 
    209 H209       -2.8968  -28.6727  -49.6459 H         1 UNK         0.0600 
    210 H210       -2.8449  -24.3252  -50.2431 H         1 UNK         0.3000 
    211 H211       -2.1819  -24.9124  -52.8903 H         1 UNK         0.0600 
    212 H212       -2.0829  -22.4347  -53.1294 H         1 UNK         0.0600 
    213 H213       -1.3534  -22.9545  -51.6216 H         1 UNK         0.0600 
    214 H214       -2.9627  -22.2366  -51.6219 H         1 UNK         0.0600 
    215 H215       -3.7690  -26.0533  -53.9689 H         1 UNK         0.3000 
    216 H216       -5.4895  -26.5250  -55.2591 H         1 UNK         0.0600 
    217 H217       -6.5722  -24.8430  -56.6220 H         1 UNK         0.0600 
    218 H218       -6.1848  -23.5608  -55.4893 H         1 UNK         0.0600 
    219 H219       -4.9029  -24.3283  -56.4324 H         1 UNK         0.0600 
    220 H220       -5.7592  -26.3239  -52.3675 H         1 UNK         0.3000 
    221 H221       -7.1645  -26.5287  -50.6760 H         1 UNK         0.0600 
    222 H222       -9.1390  -27.4559  -52.8104 H         1 UNK         0.0600 
    223 H223       -7.9379  -28.4480  -51.9877 H         1 UNK         0.0600 
    224 H224       -9.2748  -27.7566  -51.0830 H         1 UNK         0.0600 
    225 H225       -8.6566  -23.1522  -50.6687 H         1 UNK         0.3000 
    226 H226       -5.9667  -24.1828  -50.8642 H         1 UNK         0.0600 
    227 H227       -6.7489  -25.4840  -48.8372 H         1 UNK         0.0600 
    228 H228       -5.6248  -24.2234  -48.3934 H         1 UNK         0.0600 
    229 H229       -7.3448  -23.9977  -48.1211 H         1 UNK         0.0600 
    230 H230       -6.3970  -22.1127  -52.1763 H         1 UNK         0.3000 
    231 H231       -5.8944  -19.6844  -50.5817 H         1 UNK         0.0600 
    232 H232       -8.4641  -20.0061  -52.2159 H         1 UNK         0.0600 
    233 H233       -7.9265  -18.5219  -51.4374 H         1 UNK         0.0600 
    234 H234       -8.3692  -19.9053  -50.4584 H         1 UNK         0.0600 
    235 H235       -4.9901  -21.4094  -53.2541 H         1 UNK         0.3000 
    236 H236       -5.0281  -19.3502  -55.2683 H         1 UNK         0.0600 
    237 H237       -5.0224  -21.6690  -55.9421 H         1 UNK         0.0600 
    238 H238       -3.5325  -20.9366  -56.5015 H         1 UNK         0.0600 
    239 H239       -3.5062  -21.9894  -55.0952 H         1 UNK         0.0600 
    240 H240       -3.9723  -17.5075  -54.9562 H         1 UNK         0.3000 
    241 H241       -1.4890  -17.1030  -53.6380 H         1 UNK         0.0600 
    242 H242        0.6698  -17.2490  -54.3804 H         1 UNK         0.3800 
    243 H243        1.0888  -17.6455  -56.0237 H         1 UNK         0.3800 
    244 H244       -3.2397  -15.3376  -54.0427 H         1 UNK         0.0800 
    245 H245       -2.9042  -15.3867  -55.7469 H         1 UNK         0.0800 
    246 H246       -2.4676  -13.4660  -52.6879 H         1 UNK         0.0800 
    247 H247       -0.8682  -12.7707  -52.6921 H         1 UNK         0.0800 
@<TRIPOS>BOND
     1    1    2 1    
     2    1  127 1    
     3    1  128 1    
     4    1  129 1    
     5    2    3 2    
     6    2    4 am   BACKBONE|DICT|INTERRES
     7    4    5 1    
     8    4  130 1    
     9    5    6 1    
    10    5   65 1    
    11    5  131 1    
    12    6    7 1    
    13    6  132 1    
    14    6  133 1    
    15    7    8 1    
    16    8    9 1    
    17    8  134 1    
    18    8  135 1    
    19    9   10 ar   
    20    9   14 ar   
    21   10   11 ar   
    22   10  136 1    
    23   11   12 ar   
    24   11  126 1    
    25   12   13 ar   
    26   12  137 1    
    27   13   14 ar   
    28   13   15 1    
    29   14  138 1    
    30   15   16 1    
    31   15  139 1    
    32   15  140 1    
    33   16   17 1    
    34   17   18 1    
    35   17  141 1    
    36   17  142 1    
    37   18   19 1    
    38   18   67 1    
    39   18  143 1    
    40   19   20 am   BACKBONE|DICT|INTERRES
    41   19  144 1    
    42   20   21 2    
    43   20   22 1    
    44   22   23 1    
    45   22   24 1    
    46   22  145 1    
    47   23  146 1    
    48   23  147 1    
    49   23  148 1    
    50   24   25 am   BACKBONE|DICT|INTERRES
    51   24  149 1    
    52   25   26 2    
    53   25   27 1    
    54   27   28 1    
    55   27   29 1    
    56   27  150 1    
    57   28  151 1    
    58   28  152 1    
    59   28  153 1    
    60   29   30 am   BACKBONE|DICT|INTERRES
    61   29  154 1    
    62   30   31 2    
    63   30   32 1    
    64   32   33 1    
    65   32   34 1    
    66   32  155 1    
    67   33  156 1    
    68   33  157 1    
    69   33  158 1    
    70   34   35 am   BACKBONE|DICT|INTERRES
    71   34  159 1    
    72   35   36 2    
    73   35   37 1    
    74   37   38 1    
    75   37   39 1    
    76   37  160 1    
    77   38  161 1    
    78   38  162 1    
    79   38  163 1    
    80   39   40 am   BACKBONE|DICT|INTERRES
    81   39  164 1    
    82   40   41 2    
    83   40   42 1    
    84   42   43 1    
    85   42   44 1    
    86   42  165 1    
    87   43  166 1    
    88   43  167 1    
    89   43  168 1    
    90   44   45 am   BACKBONE|DICT|INTERRES
    91   44  169 1    
    92   45   46 2    
    93   45   47 1    
    94   47   48 1    
    95   47   49 1    
    96   47  170 1    
    97   48  171 1    
    98   48  172 1    
    99   48  173 1    
   100   49   50 am   BACKBONE|DICT|INTERRES
   101   49  174 1    
   102   50   51 2    
   103   50   52 1    
   104   52   53 1    
   105   52   54 1    
   106   52  175 1    
   107   53  176 1    
   108   53  177 1    
   109   53  178 1    
   110   54   55 am   BACKBONE|DICT|INTERRES
   111   54  179 1    
   112   55   56 2    
   113   55   57 1    
   114   57   58 1    
   115   57   59 1    
   116   57  180 1    
   117   58  181 1    
   118   58  182 1    
   119   58  183 1    
   120   59   60 am   BACKBONE|DICT|INTERRES
   121   59  184 1    
   122   60   61 2    
   123   60   62 1    
   124   62   63 1    
   125   62   64 1    
   126   62  185 1    
   127   63  186 1    
   128   63  187 1    
   129   63  188 1    
   130   64   65 am   BACKBONE|DICT|INTERRES
   131   64  189 1    
   132   65   66 2    
   133   67   68 2    
   134   67   69 am   BACKBONE|DICT|INTERRES
   135   69   70 1    
   136   69  190 1    
   137   70   71 1    
   138   70   72 1    
   139   70  191 1    
   140   71  192 1    
   141   71  193 1    
   142   71  194 1    
   143   72   73 2    
   144   72   74 am   BACKBONE|DICT|INTERRES
   145   74   75 1    
   146   74  195 1    
   147   75   76 1    
   148   75   77 1    
   149   75  196 1    
   150   76  197 1    
   151   76  198 1    
   152   76  199 1    
   153   77   78 2    
   154   77   79 am   BACKBONE|DICT|INTERRES
   155   79   80 1    
   156   79  200 1    
   157   80   81 1    
   158   80   82 1    
   159   80  201 1    
   160   81  202 1    
   161   81  203 1    
   162   81  204 1    
   163   82   83 2    
   164   82   84 am   BACKBONE|DICT|INTERRES
   165   84   85 1    
   166   84  205 1    
   167   85   86 1    
   168   85   87 1    
   169   85  206 1    
   170   86  207 1    
   171   86  208 1    
   172   86  209 1    
   173   87   88 2    
   174   87   89 am   BACKBONE|DICT|INTERRES
   175   89   90 1    
   176   89  210 1    
   177   90   91 1    
   178   90   92 1    
   179   90  211 1    
   180   91  212 1    
   181   91  213 1    
   182   91  214 1    
   183   92   93 2    
   184   92   94 am   BACKBONE|DICT|INTERRES
   185   94   95 1    
   186   94  215 1    
   187   95   96 1    
   188   95   97 1    
   189   95  216 1    
   190   96  217 1    
   191   96  218 1    
   192   96  219 1    
   193   97   98 2    
   194   97   99 am   BACKBONE|DICT|INTERRES
   195   99  100 1    
   196   99  220 1    
   197  100  101 1    
   198  100  102 1    
   199  100  221 1    
   200  101  222 1    
   201  101  223 1    
   202  101  224 1    
   203  102  103 2    
   204  102  104 am   BACKBONE|DICT|INTERRES
   205  104  105 1    
   206  104  225 1    
   207  105  106 1    
   208  105  107 1    
   209  105  226 1    
   210  106  227 1    
   211  106  228 1    
   212  106  229 1    
   213  107  108 2    
   214  107  109 am   BACKBONE|DICT|INTERRES
   215  109  110 1    
   216  109  230 1    
   217  110  111 1    
   218  110  112 1    
   219  110  231 1    
   220  111  232 1    
   221  111  233 1    
   222  111  234 1    
   223  112  113 2    
   224  112  114 am   BACKBONE|DICT|INTERRES
   225  114  115 1    
   226  114  235 1    
   227  115  116 1    
   228  115  117 1    
   229  115  236 1    
   230  116  237 1    
   231  116  238 1    
   232  116  239 1    
   233  117  118 2    
   234  117  119 am   BACKBONE|DICT|INTERRES
   235  119  120 1    
   236  119  240 1    
   237  120  121 1    
   238  120  124 1    
   239  120  241 1    
   240  121  122 am   BACKBONE|DICT|INTERRES
   241  121  123 2    
   242  122  242 1    
   243  122  243 1    
   244  124  125 1    
   245  124  244 1    
   246  124  245 1    
   247  125  126 1    
   248  126  246 1    
   249  126  247 1    
@<TRIPOS>SUBSTRUCTURE
     1 UNK         1 GROUP             0       ****    0 ROOT    
