@<TRIPOS>MOLECULE
3R540
247   249    1
SMALL
USER_CHARGES


@<TRIPOS>ATOM
      1 CA         -1.1365  -12.2784  -46.2656 C.3       0 UNK        -0.1800 
      2 C          -0.0488  -11.5686  -47.0584 C.2       0 UNK         0.5000 
      3 O           0.2099  -10.3874  -46.8235 O.2       0 UNK        -0.5000 
      4 N           0.5962  -12.2831  -47.9892 N.am      1 UNK        -0.5000 
      5 CA          1.7567  -11.8258  -48.7627 C.3       1 UNK         0.1400 
      6 C6          2.1693  -12.8144  -49.8889 C.3       23 UNK        -0.0398 
      7 S7          2.0179  -14.5868  -49.4509 S.3       23 UNK        -0.2404 
      8 C8          0.9164  -15.1830  -50.7745 C.3       23 UNK        -0.0205 
      9 C9          0.1848  -16.4502  -50.3650 C.ar      23 UNK        -0.0193 
     10 C10        -1.1639  -16.3914  -49.9997 C.ar      23 UNK        -0.1150 
     11 C11        -1.8479  -17.5495  -49.6208 C.ar      23 UNK        -0.0193 
     12 C12        -1.1717  -18.7707  -49.6121 C.ar      23 UNK        -0.1150 
     13 C13         0.1781  -18.8414  -49.9601 C.ar      23 UNK        -0.0193 
     14 C14         0.8515  -17.6792  -50.3466 C.ar      23 UNK        -0.1150 
     15 C15         0.9044  -20.1722  -49.8825 C.3       23 UNK        -0.0205 
     16 S16         1.6593  -20.3626  -48.2426 S.3       23 UNK        -0.2404 
     17 C17         1.9386  -22.1560  -48.1439 C.3       23 UNK        -0.0398 
     18 CA          0.9148  -22.9338  -47.2797 C.3       11 UNK         0.1400 
     19 N           0.7817  -22.4542  -45.8975 N.am      11 UNK        -0.5000 
     20 C           0.3072  -23.2278  -44.9081 C.2       10 UNK         0.5000 
     21 O          -0.0365  -24.3991  -45.0728 O.2       10 UNK        -0.5000 
     22 CA          0.1507  -22.5976  -43.5131 C.3       10 UNK         0.1400 
     23 CB          1.5078  -22.4512  -42.8083 C.3       10 UNK        -0.1800 
     24 N          -0.5473  -21.3136  -43.5434 N.am      10 UNK        -0.5000 
     25 C          -1.8286  -21.1621  -43.9080 C.2       9 UNK         0.5000 
     26 O          -2.5549  -22.0945  -44.2518 O.2       9 UNK        -0.5000 
     27 CA         -2.3901  -19.7280  -43.9198 C.3       9 UNK         0.1400 
     28 CB         -2.8425  -19.3108  -42.5128 C.3       9 UNK        -0.1800 
     29 N          -1.4412  -18.7462  -44.4441 N.am      9 UNK        -0.5000 
     30 C          -0.9496  -18.7651  -45.6914 C.2       8 UNK         0.5000 
     31 O          -1.2864  -19.5903  -46.5379 O.2       8 UNK        -0.5000 
     32 CA          0.1448  -17.7338  -46.0223 C.3       8 UNK         0.1400 
     33 CB         -0.4563  -16.3409  -46.2626 C.3       8 UNK        -0.1800 
     34 N           1.1685  -17.6546  -44.9793 N.am      8 UNK        -0.5000 
     35 C           1.9276  -18.6788  -44.5597 C.2       7 UNK         0.5000 
     36 O           1.8871  -19.8137  -45.0324 O.2       7 UNK        -0.5000 
     37 CA          2.8458  -18.4021  -43.3596 C.3       7 UNK         0.1400 
     38 CB          4.1231  -17.6716  -43.7994 C.3       7 UNK        -0.1800 
     39 N           2.1547  -17.6306  -42.3266 N.am      7 UNK        -0.5000 
     40 C           1.1771  -18.1222  -41.5515 C.2       6 UNK         0.5000 
     41 O           0.7899  -19.2899  -41.5980 O.2       6 UNK        -0.5000 
     42 CA          0.4955  -17.1338  -40.5870 C.3       6 UNK         0.1400 
     43 CB          1.3095  -16.9901  -39.2925 C.3       6 UNK        -0.1800 
     44 N           0.2938  -15.8121  -41.1835 N.am      6 UNK        -0.5000 
     45 C          -0.5485  -15.5636  -42.1960 C.2       5 UNK         0.5000 
     46 O          -1.2691  -16.4184  -42.7088 O.2       5 UNK        -0.5000 
     47 CA         -0.5558  -14.1312  -42.7620 C.3       5 UNK         0.1400 
     48 CB         -1.5468  -13.2465  -41.9924 C.3       5 UNK        -0.1800 
     49 N           0.7605  -13.4878  -42.7709 N.am      5 UNK        -0.5000 
     50 C           1.8438  -13.9469  -43.4111 C.2       4 UNK         0.5000 
     51 O           1.8624  -15.0064  -44.0389 O.2       4 UNK        -0.5000 
     52 CA          3.0991  -13.0595  -43.3349 C.3       4 UNK         0.1400 
     53 CB          4.3293  -13.6999  -44.0013 C.3       4 UNK        -0.1800 
     54 N           2.8443  -11.7629  -43.9578 N.am      4 UNK        -0.5000 
     55 C           2.3072  -10.7004  -43.3410 C.2       3 UNK         0.5000 
     56 O           1.9250  -10.7355  -42.1697 O.2       3 UNK        -0.5000 
     57 CA          2.1287   -9.3997  -44.1566 C.3       3 UNK         0.1400 
     58 CB          2.4973   -8.1414  -43.3437 C.3       3 UNK        -0.1800 
     59 N           2.8055   -9.4121  -45.4588 N.am      3 UNK        -0.5000 
     60 C           4.1248   -9.4533  -45.7097 C.2       2 UNK         0.5000 
     61 O           4.9897   -9.3739  -44.8364 O.2       2 UNK        -0.5000 
     62 CA          4.5422   -9.6474  -47.1879 C.3       2 UNK         0.1400 
     63 CB          5.8771  -10.4092  -47.3277 C.3       2 UNK        -0.1800 
     64 N           3.5025  -10.2747  -48.0189 N.am      2 UNK        -0.5000 
     65 C           2.9363  -11.4770  -47.8305 C.2       1 UNK         0.5000 
     66 O           3.2625  -12.2573  -46.9341 O.2       1 UNK        -0.5000 
     67 C          -0.4497  -23.1269  -47.9744 C.2       11 UNK         0.5000 
     68 O          -0.5766  -24.0612  -48.7643 O.2       11 UNK        -0.5000 
     69 N          -1.4616  -22.3111  -47.6357 N.am      12 UNK        -0.5000 
     70 CA         -2.8480  -22.5074  -48.0722 C.3       12 UNK         0.1400 
     71 CB         -3.7231  -21.3254  -47.6301 C.3       12 UNK        -0.1800 
     72 C          -3.4446  -23.8305  -47.5596 C.2       12 UNK         0.5000 
     73 O          -4.0675  -24.5506  -48.3371 O.2       12 UNK        -0.5000 
     74 N          -3.2162  -24.1401  -46.2749 N.am      13 UNK        -0.5000 
     75 CA         -3.6479  -25.3827  -45.6330 C.3       13 UNK         0.1400 
     76 CB         -3.4746  -25.2596  -44.1117 C.3       13 UNK        -0.1800 
     77 C          -2.9161  -26.6302  -46.1637 C.2       13 UNK         0.5000 
     78 O          -3.5234  -27.6996  -46.2301 O.2       13 UNK        -0.5000 
     79 N          -1.6344  -26.4789  -46.5274 N.am      14 UNK        -0.5000 
     80 CA         -0.8260  -27.5257  -47.1561 C.3       14 UNK         0.1400 
     81 CB          0.6570  -27.1289  -47.1015 C.3       14 UNK        -0.1800 
     82 C          -1.2589  -27.8133  -48.6071 C.2       14 UNK         0.5000 
     83 O          -1.2409  -28.9705  -49.0301 O.2       14 UNK        -0.5000 
     84 N          -1.6407  -26.7573  -49.3358 N.am      15 UNK        -0.5000 
     85 CA         -2.2012  -26.8096  -50.6838 C.3       15 UNK         0.1400 
     86 CB         -1.9343  -25.4560  -51.3695 C.3       15 UNK        -0.1800 
     87 C          -3.7063  -27.1570  -50.6681 C.2       15 UNK         0.5000 
     88 O          -4.2640  -27.5272  -49.6317 O.2       15 UNK        -0.5000 
     89 N          -4.3555  -27.0258  -51.8318 N.am      16 UNK        -0.5000 
     90 CA         -5.7937  -27.2155  -52.0314 C.3       16 UNK         0.1400 
     91 CB         -6.0562  -27.4539  -53.5297 C.3       16 UNK        -0.1800 
     92 C          -6.6151  -26.0348  -51.4674 C.2       16 UNK         0.5000 
     93 O          -7.2243  -25.2832  -52.2311 O.2       16 UNK        -0.5000 
     94 N          -6.5725  -25.8662  -50.1388 N.am      17 UNK        -0.5000 
     95 CA         -7.2852  -24.9043  -49.2808 C.3       17 UNK         0.1400 
     96 CB         -8.8085  -25.1070  -49.3882 C.3       17 UNK        -0.1800 
     97 C          -6.9189  -23.4157  -49.4700 C.2       17 UNK         0.5000 
     98 O          -7.0796  -22.6372  -48.5298 O.2       17 UNK        -0.5000 
     99 N          -6.4352  -23.0504  -50.6584 N.am      18 UNK        -0.5000 
    100 CA        -5.9922  -21.7219  -51.0754 C.3       18 UNK         0.1400 
    101 CB        -7.1814  -20.7482  -51.1638 C.3       18 UNK        -0.1800 
    102 C         -5.2693  -21.8273  -52.4277 C.2       18 UNK         0.5000 
    103 O         -4.2788  -21.1278  -52.6447 O.2       18 UNK        -0.5000 
    104 N         -5.7585  -22.7331  -53.2933 N.am      19 UNK        -0.5000 
    105 CA        -5.1863  -23.1365  -54.5814 C.3       19 UNK         0.1400 
    106 CB        -3.9343  -24.0053  -54.3322 C.3       19 UNK        -0.1800 
    107 C         -4.9315  -21.9509  -55.5389 C.2       19 UNK         0.5000 
    108 O         -5.6643  -20.9609  -55.5032 O.2       19 UNK        -0.5000 
    109 N         -3.8906  -22.0570  -56.3733 N.am      20 UNK        -0.5000 
    110 CA        -3.4369  -20.9942  -57.2724 C.3       20 UNK         0.1400 
    111 CB        -2.5065  -21.6087  -58.3303 C.3       20 UNK        -0.1800 
    112 C         -2.7307  -19.8341  -56.5391 C.2       20 UNK         0.5000 
    113 O         -2.5510  -18.7711  -57.1347 O.2       20 UNK        -0.5000 
    114 N         -2.3261  -20.0558  -55.2793 N.am      21 UNK        -0.5000 
    115 CA        -1.6287  -19.0782  -54.4469 C.3       21 UNK         0.1400 
    116 CB        -0.9945  -19.7869  -53.2416 C.3       21 UNK        -0.1800 
    117 C         -2.5397  -17.9242  -53.9937 C.2       21 UNK         0.5000 
    118 O         -2.1082  -16.7708  -54.0345 O.2       21 UNK        -0.5000 
    119 N         -3.7780  -18.2419  -53.5945 N.am      22 UNK        -0.5000 
    120 CA        -4.7527  -17.2546  -53.1035 C.3       22 UNK         0.1400 
    121 C         -6.2458  -17.6121  -53.3509 C.2       22 UNK         0.5000 
    122 N         -6.5872  -18.6674  -54.0788 N.am      22 UNK        -0.7600 
    123 O         -7.1322  -16.8922  -52.8988 O.2       22 UNK        -0.5000 
    124 C124       -4.4588  -16.7946  -51.6482 C.3       23 UNK        -0.0398 
    125 S125       -4.4424  -18.1496  -50.4224 S.3       23 UNK        -0.2404 
    126 C126       -3.3003  -17.4803  -49.1732 C.3       23 UNK        -0.0205 
    127 H127       -2.1113  -11.8514  -46.5000 H         1 UNK         0.0600 
    128 H128       -0.9571  -12.1556  -45.1977 H         1 UNK         0.0600 
    129 H129       -1.1675  -13.3458  -46.4852 H         1 UNK         0.0600 
    130 H130        0.3712  -13.2601  -48.1125 H         1 UNK         0.3000 
    131 H131        1.4490  -10.8992  -49.2524 H         1 UNK         0.0600 
    132 H132        1.5513  -12.6131  -50.7641 H         1 UNK         0.0800 
    133 H133        3.1911  -12.6278  -50.2251 H         1 UNK         0.0800 
    134 H134        1.5017  -15.3682  -51.6763 H         1 UNK         0.0800 
    135 H135        0.1894  -14.4117  -51.0326 H         1 UNK         0.0800 
    136 H136       -1.6794  -15.4415  -50.0006 H         1 UNK         0.1150 
    137 H137       -1.6877  -19.6678  -49.3059 H         1 UNK         0.1150 
    138 H138        1.8983  -17.7264  -50.6118 H         1 UNK         0.1150 
    139 H139        0.2044  -20.9877  -50.0706 H         1 UNK         0.0800 
    140 H140        1.6743  -20.2345  -50.6529 H         1 UNK         0.0800 
    141 H141        1.9933  -22.5761  -49.1498 H         1 UNK         0.0800 
    142 H142        2.9332  -22.2969  -47.7192 H         1 UNK         0.0800 
    143 H143        1.3341  -23.9394  -47.2055 H         1 UNK         0.0600 
    144 H144        1.0503  -21.4914  -45.7081 H         1 UNK         0.3000 
    145 H145       -0.4556  -23.2812  -42.9149 H         1 UNK         0.0600 
    146 H146        1.3859  -22.0690  -41.7947 H         1 UNK         0.0600 
    147 H147        2.0119  -23.4154  -42.7335 H         1 UNK         0.0600 
    148 H148        2.1753  -21.7758  -43.3417 H         1 UNK         0.0600 
    149 H149       -0.0178  -20.4986  -43.2584 H         1 UNK         0.3000 
    150 H150       -3.2657  -19.7213  -44.5717 H         1 UNK         0.0600 
    151 H151       -3.5565  -20.0263  -42.1031 H         1 UNK         0.0600 
    152 H152       -3.3317  -18.3368  -42.5294 H         1 UNK         0.0600 
    153 H153       -2.0020  -19.2509  -41.8208 H         1 UNK         0.0600 
    154 H154       -1.1552  -18.0049  -43.8109 H         1 UNK         0.3000 
    155 H155        0.6343  -18.0443  -46.9453 H         1 UNK         0.0600 
    156 H156       -0.9471  -15.9541  -45.3712 H         1 UNK         0.0600 
    157 H157       -1.2021  -16.3703  -47.0563 H         1 UNK         0.0600 
    158 H158        0.3114  -15.6271  -46.5626 H         1 UNK         0.0600 
    159 H159        1.3096  -16.7434  -44.5507 H         1 UNK         0.3000 
    160 H160        3.1387  -19.3620  -42.9287 H         1 UNK         0.0600 
    161 H161        3.8988  -16.7339  -44.3072 H         1 UNK         0.0600 
    162 H162        4.6976  -18.2855  -44.4939 H         1 UNK         0.0600 
    163 H163        4.7683  -17.4509  -42.9489 H         1 UNK         0.0600 
    164 H164        2.3682  -16.6456  -42.2763 H         1 UNK         0.3000 
    165 H165       -0.4837  -17.5435  -40.3297 H         1 UNK         0.0600 
    166 H166        0.7953  -16.3535  -38.5722 H         1 UNK         0.0600 
    167 H167        1.4602  -17.9604  -38.8174 H         1 UNK         0.0600 
    168 H168        2.2940  -16.5595  -39.4793 H         1 UNK         0.0600 
    169 H169        0.8498  -15.0523  -40.8198 H         1 UNK         0.3000 
    170 H170       -0.8942  -14.1939  -43.7970 H         1 UNK         0.0600 
    171 H171       -2.5438  -13.6892  -41.9879 H         1 UNK         0.0600 
    172 H172       -1.2424  -13.1100  -40.9540 H         1 UNK         0.0600 
    173 H173       -1.6324  -12.2606  -42.4498 H         1 UNK         0.0600 
    174 H174        0.8400  -12.5975  -42.2932 H         1 UNK         0.3000 
    175 H175        3.3379  -12.9150  -42.2792 H         1 UNK         0.0600 
    176 H176        4.1396  -13.9588  -45.0436 H         1 UNK         0.0600 
    177 H177        5.1865  -13.0269  -43.9760 H         1 UNK         0.0600 
    178 H178        4.6201  -14.6125  -43.4812 H         1 UNK         0.0600 
    179 H179        3.0686  -11.6989  -44.9452 H         1 UNK         0.3000 
    180 H180        1.0630   -9.3387  -44.3803 H         1 UNK         0.0600 
    181 H181        3.5299   -8.1685  -42.9953 H         1 UNK         0.0600 
    182 H182        1.8617   -8.0461  -42.4626 H         1 UNK         0.0600 
    183 H183        2.3651   -7.2359  -43.9358 H         1 UNK         0.0600 
    184 H184        2.1771   -9.5169  -46.2470 H         1 UNK         0.3000 
    185 H185        4.6914   -8.6447  -47.5906 H         1 UNK         0.0600 
    186 H186        6.6906   -9.8679  -46.8435 H         1 UNK         0.0600 
    187 H187        5.8284  -11.3991  -46.8729 H         1 UNK         0.0600 
    188 H188        6.1522  -10.5344  -48.3749 H         1 UNK         0.0600 
    189 H189        3.1490   -9.6931  -48.7667 H         1 UNK         0.3000 
    190 H190       -1.2820  -21.5155  -47.0291 H         1 UNK         0.3000 
    191 H191       -2.8537  -22.5413  -49.1638 H         1 UNK         0.0600 
    192 H192       -3.6943  -21.1823  -46.5506 H         1 UNK         0.0600 
    193 H193       -4.7646  -21.4810  -47.9090 H         1 UNK         0.0600 
    194 H194       -3.4054  -20.3977  -48.0989 H         1 UNK         0.0600 
    195 H195       -2.7374  -23.4677  -45.6830 H         1 UNK         0.3000 
    196 H196       -4.7116  -25.5134  -45.8425 H         1 UNK         0.0600 
    197 H197       -3.8001  -26.1690  -43.6052 H         1 UNK         0.0600 
    198 H198       -4.0674  -24.4359  -43.7135 H         1 UNK         0.0600 
    199 H199       -2.4335  -25.0847  -43.8383 H         1 UNK         0.0600 
    200 H200       -1.1833  -25.5875  -46.3556 H         1 UNK         0.3000 
    201 H201       -0.9514  -28.4448  -46.5800 H         1 UNK         0.0600 
    202 H202        0.9790  -26.9383  -46.0775 H         1 UNK         0.0600 
    203 H203        0.8547  -26.2324  -47.6888 H         1 UNK         0.0600 
    204 H204        1.2871  -27.9253  -47.4991 H         1 UNK         0.0600 
    205 H205       -1.5948  -25.8372  -48.9125 H         1 UNK         0.3000 
    206 H206       -1.6858  -27.5888  -51.2486 H         1 UNK         0.0600 
    207 H207       -0.8842  -25.1743  -51.2888 H         1 UNK         0.0600 
    208 H208       -2.1650  -25.4937  -52.4334 H         1 UNK         0.0600 
    209 H209       -2.5276  -24.6553  -50.9248 H         1 UNK         0.0600 
    210 H210       -3.8347  -26.7211  -52.6402 H         1 UNK         0.3000 
    211 H211       -6.1069  -28.1139  -51.4954 H         1 UNK         0.0600 
    212 H212       -5.7554  -26.6000  -54.1375 H         1 UNK         0.0600 
    213 H213       -7.1164  -27.6305  -53.7159 H         1 UNK         0.0600 
    214 H214       -5.5154  -28.3290  -53.8903 H         1 UNK         0.0600 
    215 H215       -5.9239  -26.4711  -49.6409 H         1 UNK         0.3000 
    216 H216       -6.9906  -25.1571  -48.2610 H         1 UNK         0.0600 
    217 H217       -9.3372  -24.4717  -48.6765 H         1 UNK         0.0600 
    218 H218       -9.0859  -26.1383  -49.1705 H         1 UNK         0.0600 
    219 H219       -9.1817  -24.8606  -50.3827 H         1 UNK         0.0600 
    220 H220       -6.3631  -23.7829  -51.3556 H         1 UNK         0.3000 
    221 H221       -5.2766  -21.3485  -50.3408 H         1 UNK         0.0600 
    222 H222       -7.9265  -21.0853  -51.8851 H         1 UNK         0.0600 
    223 H223       -7.6765  -20.6260  -50.2011 H         1 UNK         0.0600 
    224 H224       -6.8472  -19.7590  -51.4721 H         1 UNK         0.0600 
    225 H225       -6.6178  -23.2086  -53.0512 H         1 UNK         0.3000 
    226 H226       -5.9375  -23.7625  -55.0647 H         1 UNK         0.0600 
    227 H227       -3.5945  -24.4963  -55.2445 H         1 UNK         0.0600 
    228 H228       -4.1541  -24.7928  -53.6140 H         1 UNK         0.0600 
    229 H229       -3.1053  -23.4191  -53.9332 H         1 UNK         0.0600 
    230 H230       -3.3343  -22.8994  -56.3539 H         1 UNK         0.3000 
    231 H231       -4.3067  -20.5765  -57.7841 H         1 UNK         0.0600 
    232 H232       -2.1734  -20.8543  -59.0443 H         1 UNK         0.0600 
    233 H233       -3.0148  -22.3882  -58.8982 H         1 UNK         0.0600 
    234 H234       -1.6165  -22.0474  -57.8774 H         1 UNK         0.0600 
    235 H235       -2.5435  -20.9428  -54.8500 H         1 UNK         0.3000 
    236 H236       -0.8198  -18.6487  -55.0420 H         1 UNK         0.0600 
    237 H237       -0.3400  -20.6000  -53.5551 H         1 UNK         0.0600 
    238 H238       -0.3881  -19.0855  -52.6699 H         1 UNK         0.0600 
    239 H239       -1.7456  -20.1978  -52.5661 H         1 UNK         0.0600 
    240 H240       -4.0416  -19.2177  -53.5110 H         1 UNK         0.3000 
    241 H241       -4.6299  -16.3683  -53.7289 H         1 UNK         0.0600 
    242 H242       -7.5676  -18.8434  -54.2254 H         1 UNK         0.3800 
    243 H243       -5.9197  -19.2962  -54.5112 H         1 UNK         0.3800 
    244 H244       -3.4919  -16.2928  -51.6296 H         1 UNK         0.0800 
    245 H245       -5.1782  -16.0414  -51.3235 H         1 UNK         0.0800 
    246 H246       -3.5850  -16.4548  -48.9334 H         1 UNK         0.0800 
    247 H247       -3.4135  -18.0462  -48.2479 H         1 UNK         0.0800 
@<TRIPOS>BOND
     1    1    2 1    
     2    1  127 1    
     3    1  128 1    
     4    1  129 1    
     5    2    3 2    
     6    2    4 am   BACKBONE|DICT|INTERRES
     7    4    5 1    
     8    4  130 1    
     9    5    6 1    
    10    5   65 1    
    11    5  131 1    
    12    6    7 1    
    13    6  132 1    
    14    6  133 1    
    15    7    8 1    
    16    8    9 1    
    17    8  134 1    
    18    8  135 1    
    19    9   10 ar   
    20    9   14 ar   
    21   10   11 ar   
    22   10  136 1    
    23   11   12 ar   
    24   11  126 1    
    25   12   13 ar   
    26   12  137 1    
    27   13   14 ar   
    28   13   15 1    
    29   14  138 1    
    30   15   16 1    
    31   15  139 1    
    32   15  140 1    
    33   16   17 1    
    34   17   18 1    
    35   17  141 1    
    36   17  142 1    
    37   18   19 1    
    38   18   67 1    
    39   18  143 1    
    40   19   20 am   BACKBONE|DICT|INTERRES
    41   19  144 1    
    42   20   21 2    
    43   20   22 1    
    44   22   23 1    
    45   22   24 1    
    46   22  145 1    
    47   23  146 1    
    48   23  147 1    
    49   23  148 1    
    50   24   25 am   BACKBONE|DICT|INTERRES
    51   24  149 1    
    52   25   26 2    
    53   25   27 1    
    54   27   28 1    
    55   27   29 1    
    56   27  150 1    
    57   28  151 1    
    58   28  152 1    
    59   28  153 1    
    60   29   30 am   BACKBONE|DICT|INTERRES
    61   29  154 1    
    62   30   31 2    
    63   30   32 1    
    64   32   33 1    
    65   32   34 1    
    66   32  155 1    
    67   33  156 1    
    68   33  157 1    
    69   33  158 1    
    70   34   35 am   BACKBONE|DICT|INTERRES
    71   34  159 1    
    72   35   36 2    
    73   35   37 1    
    74   37   38 1    
    75   37   39 1    
    76   37  160 1    
    77   38  161 1    
    78   38  162 1    
    79   38  163 1    
    80   39   40 am   BACKBONE|DICT|INTERRES
    81   39  164 1    
    82   40   41 2    
    83   40   42 1    
    84   42   43 1    
    85   42   44 1    
    86   42  165 1    
    87   43  166 1    
    88   43  167 1    
    89   43  168 1    
    90   44   45 am   BACKBONE|DICT|INTERRES
    91   44  169 1    
    92   45   46 2    
    93   45   47 1    
    94   47   48 1    
    95   47   49 1    
    96   47  170 1    
    97   48  171 1    
    98   48  172 1    
    99   48  173 1    
   100   49   50 am   BACKBONE|DICT|INTERRES
   101   49  174 1    
   102   50   51 2    
   103   50   52 1    
   104   52   53 1    
   105   52   54 1    
   106   52  175 1    
   107   53  176 1    
   108   53  177 1    
   109   53  178 1    
   110   54   55 am   BACKBONE|DICT|INTERRES
   111   54  179 1    
   112   55   56 2    
   113   55   57 1    
   114   57   58 1    
   115   57   59 1    
   116   57  180 1    
   117   58  181 1    
   118   58  182 1    
   119   58  183 1    
   120   59   60 am   BACKBONE|DICT|INTERRES
   121   59  184 1    
   122   60   61 2    
   123   60   62 1    
   124   62   63 1    
   125   62   64 1    
   126   62  185 1    
   127   63  186 1    
   128   63  187 1    
   129   63  188 1    
   130   64   65 am   BACKBONE|DICT|INTERRES
   131   64  189 1    
   132   65   66 2    
   133   67   68 2    
   134   67   69 am   BACKBONE|DICT|INTERRES
   135   69   70 1    
   136   69  190 1    
   137   70   71 1    
   138   70   72 1    
   139   70  191 1    
   140   71  192 1    
   141   71  193 1    
   142   71  194 1    
   143   72   73 2    
   144   72   74 am   BACKBONE|DICT|INTERRES
   145   74   75 1    
   146   74  195 1    
   147   75   76 1    
   148   75   77 1    
   149   75  196 1    
   150   76  197 1    
   151   76  198 1    
   152   76  199 1    
   153   77   78 2    
   154   77   79 am   BACKBONE|DICT|INTERRES
   155   79   80 1    
   156   79  200 1    
   157   80   81 1    
   158   80   82 1    
   159   80  201 1    
   160   81  202 1    
   161   81  203 1    
   162   81  204 1    
   163   82   83 2    
   164   82   84 am   BACKBONE|DICT|INTERRES
   165   84   85 1    
   166   84  205 1    
   167   85   86 1    
   168   85   87 1    
   169   85  206 1    
   170   86  207 1    
   171   86  208 1    
   172   86  209 1    
   173   87   88 2    
   174   87   89 am   BACKBONE|DICT|INTERRES
   175   89   90 1    
   176   89  210 1    
   177   90   91 1    
   178   90   92 1    
   179   90  211 1    
   180   91  212 1    
   181   91  213 1    
   182   91  214 1    
   183   92   93 2    
   184   92   94 am   BACKBONE|DICT|INTERRES
   185   94   95 1    
   186   94  215 1    
   187   95   96 1    
   188   95   97 1    
   189   95  216 1    
   190   96  217 1    
   191   96  218 1    
   192   96  219 1    
   193   97   98 2    
   194   97   99 am   BACKBONE|DICT|INTERRES
   195   99  100 1    
   196   99  220 1    
   197  100  101 1    
   198  100  102 1    
   199  100  221 1    
   200  101  222 1    
   201  101  223 1    
   202  101  224 1    
   203  102  103 2    
   204  102  104 am   BACKBONE|DICT|INTERRES
   205  104  105 1    
   206  104  225 1    
   207  105  106 1    
   208  105  107 1    
   209  105  226 1    
   210  106  227 1    
   211  106  228 1    
   212  106  229 1    
   213  107  108 2    
   214  107  109 am   BACKBONE|DICT|INTERRES
   215  109  110 1    
   216  109  230 1    
   217  110  111 1    
   218  110  112 1    
   219  110  231 1    
   220  111  232 1    
   221  111  233 1    
   222  111  234 1    
   223  112  113 2    
   224  112  114 am   BACKBONE|DICT|INTERRES
   225  114  115 1    
   226  114  235 1    
   227  115  116 1    
   228  115  117 1    
   229  115  236 1    
   230  116  237 1    
   231  116  238 1    
   232  116  239 1    
   233  117  118 2    
   234  117  119 am   BACKBONE|DICT|INTERRES
   235  119  120 1    
   236  119  240 1    
   237  120  121 1    
   238  120  124 1    
   239  120  241 1    
   240  121  122 am   BACKBONE|DICT|INTERRES
   241  121  123 2    
   242  122  242 1    
   243  122  243 1    
   244  124  125 1    
   245  124  244 1    
   246  124  245 1    
   247  125  126 1    
   248  126  246 1    
   249  126  247 1    
@<TRIPOS>SUBSTRUCTURE
     1 UNK         1 GROUP             0       ****    0 ROOT    
